REMARK  Name = ZINC57037714
REMARK  13 active torsions:
REMARK  status: ('A' for Active; 'I' for Inactive)
REMARK    1  A    between atoms: C_1  and  C_2
REMARK    2  A    between atoms: C_2  and  C_4
REMARK    3  A    between atoms: C_2  and  N_16
REMARK    4  A    between atoms: C_7  and  O_12
REMARK    5  A    between atoms: C_8  and  O_10
REMARK    6  A    between atoms: O_10  and  C_11
REMARK    7  A    between atoms: O_12  and  C_13
REMARK    8  A    between atoms: C_13  and  C_14
REMARK    9  A    between atoms: C_14  and  O_15
REMARK   10  A    between atoms: N_19  and  C_20
REMARK   11  A    between atoms: C_20  and  C_21
REMARK   12  A    between atoms: N_27  and  C_28
REMARK   13  A    between atoms: N_27  and  C_29
REMARK                            x       y       z     vdW  Elec       q    Type
REMARK                         _______ _______ _______ _____ _____    ______ ____
ROOT
ATOM      1  N   UNL     1       0.719  -0.538   1.160  0.00  0.00    -0.293 N 
ATOM      2  C   UNL     1       2.063  -0.627   1.156  0.00  0.00    +0.300 C 
ATOM      3  O   UNL     1       2.691  -0.309   0.164  0.00  0.00    -0.253 OA
ATOM      4  N   UNL     1       2.713  -1.069   2.251  0.00  0.00    -0.295 N 
ATOM      5  H   UNL     1       0.218  -0.792   1.951  0.00  0.00    +0.151 HD
ATOM      6  H   UNL     1       2.213  -1.324   3.042  0.00  0.00    +0.151 HD
ENDROOT
BRANCH   1   8
ATOM      7  C   UNL     1      -0.033   1.472  -0.013  0.00  0.00    +0.033 C 
ATOM      8  C   UNL     1       0.012  -0.057  -0.030  0.00  0.00    +0.102 C 
BRANCH   8   9
ATOM      9  C   UNL     1      -1.393  -0.601  -0.034  0.00  0.00    -0.024 A 
ATOM     10  C   UNL     1      -2.112  -0.663   1.145  0.00  0.00    +0.009 A 
ATOM     11  C   UNL     1      -3.402  -1.161   1.146  0.00  0.00    +0.050 A 
ATOM     12  C   UNL     1      -3.977  -1.599  -0.036  0.00  0.00    +0.162 A 
ATOM     13  C   UNL     1      -3.253  -1.536  -1.223  0.00  0.00    +0.162 A 
ATOM     14  C   UNL     1      -1.963  -1.031  -1.218  0.00  0.00    +0.054 A 
BRANCH  13  15
ATOM     15  O   UNL     1      -3.813  -1.964  -2.386  0.00  0.00    -0.491 OA
ATOM     16  C   UNL     1      -3.012  -1.869  -3.565  0.00  0.00    +0.277 C 
ENDBRANCH  13  15
BRANCH  12  17
ATOM     17  O   UNL     1      -5.245  -2.090  -0.036  0.00  0.00    -0.486 OA
BRANCH  17  18
ATOM     18  C   UNL     1      -5.927  -2.125   1.219  0.00  0.00    +0.257 C 
BRANCH  18  19
ATOM     19  C   UNL     1      -7.330  -2.703   1.021  0.00  0.00    +0.196 C 
BRANCH  19  20
ATOM     20  O   UNL     1      -7.228  -4.067   0.607  0.00  0.00    -0.392 OA
ATOM     21  H   UNL     1      -8.082  -4.499   0.463  0.00  0.00    +0.210 HD
ENDBRANCH  19  20
ENDBRANCH  18  19
ENDBRANCH  17  18
ENDBRANCH  12  17
ENDBRANCH   8   9
ENDBRANCH   1   8
BRANCH   4  22
ATOM     22  C   UNL     1       4.175  -1.167   2.246  0.00  0.00    +0.142 C 
BRANCH  22  23
ATOM     23  C   UNL     1       4.648  -1.684   3.579  0.00  0.00    -0.014 A 
ATOM     24  C   UNL     1       4.939  -0.801   4.611  0.00  0.00    +0.010 A 
ATOM     25  C   UNL     1       5.371  -1.317   5.820  0.00  0.00    +0.042 A 
ATOM     26  C   UNL     1       5.498  -2.695   5.960  0.00  0.00    +0.098 A 
ATOM     27  N   UNL     1       5.211  -3.505   4.952  0.00  0.00    -0.349 N 
ATOM     28  C   UNL     1       4.792  -3.040   3.790  0.00  0.00    +0.089 A 
ATOM     29  N   UNL     1       5.932  -3.228   7.169  0.00  0.00    -0.323 N 
ATOM     30  C   UNL     1       6.379  -2.337   8.242  0.00  0.00    +0.130 C 
ATOM     31  C   UNL     1       5.941  -4.679   7.369  0.00  0.00    +0.130 C 
ATOM     32  H   UNL     1       5.308  -4.462   5.072  0.00  0.00    +0.167 HD
ENDBRANCH  22  23
ENDBRANCH   4  22
TORSDOF 9
