REMARK  Name = ZINC09290263
REMARK  11 active torsions:
REMARK  status: ('A' for Active; 'I' for Inactive)
REMARK    1  A    between atoms: C_1  and  C_2
REMARK    2  A    between atoms: C_2  and  C_3
REMARK    3  A    between atoms: C_3  and  C_5
REMARK    4  A    between atoms: C_3  and  S_19
REMARK    5  A    between atoms: N_7  and  C_8
REMARK    6  A    between atoms: C_9  and  C_17
REMARK    7  A    between atoms: S_19  and  C_20
REMARK    8  A    between atoms: C_23  and  C_27
REMARK    9  A    between atoms: C_24  and  C_26
REMARK   10  A    between atoms: C_27  and  C_28
REMARK   11  A    between atoms: C_31  and  O_34
REMARK                            x       y       z     vdW  Elec       q    Type
REMARK                         _______ _______ _______ _____ _____    ______ ____
ROOT
ATOM      1  C   UNL     1       3.708  -1.885   0.008  0.00  0.00    +0.140 C 
ENDROOT
BRANCH   1   2
ATOM      2  C   UNL     1       4.440  -3.171  -0.277  0.00  0.00    +0.231 C 
ATOM      3  O   UNL     1       3.887  -4.236  -0.100  0.00  0.00    -0.274 OA
ATOM      4  N   UNL     1       5.709  -3.138  -0.728  0.00  0.00    -0.278 N 
ATOM      5  H   UNL     1       6.152  -2.286  -0.870  0.00  0.00    +0.155 HD
BRANCH   4   6
ATOM      6  C   UNL     1       6.384  -4.322  -0.991  0.00  0.00    +0.090 A 
ATOM      7  C   UNL     1       7.679  -4.491  -1.455  0.00  0.00    +0.084 A 
ATOM      8  C   UNL     1       8.152  -5.851  -1.649  0.00  0.00    -0.018 A 
ATOM      9  C   UNL     1       7.258  -6.819  -1.348  0.00  0.00    -0.004 A 
ATOM     10  S   UNL     1       5.814  -5.948  -0.810  0.00  0.00    -0.077 S 
ATOM     11  C   UNL     1       7.462  -8.299  -1.448  0.00  0.00    +0.043 C 
ATOM     12  C   UNL     1       8.713  -8.559  -2.300  0.00  0.00    +0.005 C 
ATOM     13  C   UNL     1       9.846  -7.659  -1.798  0.00  0.00    +0.005 C 
ATOM     14  C   UNL     1       9.548  -6.200  -2.151  0.00  0.00    +0.037 C 
BRANCH   7  15
ATOM     15  C   UNL     1       8.521  -3.366  -1.734  0.00  0.00    +0.102 C 
ATOM     16  N   UNL     1       9.188  -2.474  -1.955  0.00  0.00    -0.191 NA
ENDBRANCH   7  15
ENDBRANCH   4   6
ENDBRANCH   1   2
BRANCH   1  18
ATOM     17  C   UNL     1       3.503   0.029   1.601  0.00  0.00    +0.005 C 
ATOM     18  C   UNL     1       4.139  -1.344   1.373  0.00  0.00    +0.020 C 
ENDBRANCH   1  18
BRANCH   1  19
ATOM     19  S   UNL     1       1.925  -2.195   0.018  0.00  0.00    -0.075 S 
BRANCH  19  20
ATOM     20  C   UNL     1       1.669  -2.568  -1.685  0.00  0.00    +0.167 A 
ATOM     21  N   UNL     1       0.499  -2.983  -2.243  0.00  0.00    -0.336 N 
ATOM     22  H   UNL     1      -0.367  -3.133  -1.766  0.00  0.00    +0.168 HD
ATOM     23  C   UNL     1       0.735  -3.159  -3.588  0.00  0.00    +0.043 A 
ATOM     24  C   UNL     1       2.025  -2.849  -3.804  0.00  0.00    +0.060 A 
ATOM     25  N   UNL     1       2.576  -2.491  -2.632  0.00  0.00    -0.227 NA
ATOM     26  C   UNL     1       2.732  -2.896  -5.134  0.00  0.00    +0.067 C 
BRANCH  23  27
ATOM     27  C   UNL     1      -0.262  -3.619  -4.621  0.00  0.00    +0.090 C 
BRANCH  27  28
ATOM     28  C   UNL     1      -0.137  -5.109  -4.811  0.00  0.00    -0.041 A 
ATOM     29  C   UNL     1       0.727  -5.612  -5.766  0.00  0.00    +0.007 A 
ATOM     30  C   UNL     1       0.847  -6.978  -5.938  0.00  0.00    +0.045 A 
ATOM     31  C   UNL     1       0.091  -7.843  -5.161  0.00  0.00    +0.117 A 
ATOM     32  C   UNL     1      -0.779  -7.335  -4.208  0.00  0.00    +0.045 A 
ATOM     33  C   UNL     1      -0.892  -5.969  -4.035  0.00  0.00    +0.007 A 
BRANCH  31  34
ATOM     34  O   UNL     1       0.204  -9.187  -5.333  0.00  0.00    -0.507 OA
ATOM     35  H   UNL     1      -0.409  -9.553  -5.985  0.00  0.00    +0.292 HD
ENDBRANCH  31  34
ENDBRANCH  27  28
ENDBRANCH  23  27
ENDBRANCH  19  20
ENDBRANCH   1  19
TORSDOF 9
