REMARK  Name = ZINC09522260
REMARK  9 active torsions:
REMARK  status: ('A' for Active; 'I' for Inactive)
REMARK    1  A    between atoms: C_1  and  C_2
REMARK    2  A    between atoms: C_7  and  N_8
REMARK    3  A    between atoms: C_13  and  O_28
REMARK    4  A    between atoms: C_15  and  S_17
REMARK    5  A    between atoms: S_17  and  C_18
REMARK    6  A    between atoms: C_18  and  C_19
REMARK    7  A    between atoms: C_22  and  C_24
REMARK    8  A    between atoms: C_24  and  O_26
REMARK    9  A    between atoms: O_26  and  C_27
REMARK                            x       y       z     vdW  Elec       q    Type
REMARK                         _______ _______ _______ _____ _____    ______ ____
ROOT
ATOM      1  N   UNL     1       3.791   2.169   2.500  0.00  0.00    -0.214 N 
ATOM      2  C   UNL     1       3.464   1.788   1.229  0.00  0.00    +0.171 A 
ATOM      3  C   UNL     1       2.276   1.036   1.330  0.00  0.00    +0.100 A 
ATOM      4  C   UNL     1       1.934   0.986   2.699  0.00  0.00    +0.150 A 
ATOM      5  N   UNL     1       2.825   1.655   3.374  0.00  0.00    -0.172 NA
ATOM      6  C   UNL     1       1.717   0.508   0.152  0.00  0.00    +0.227 A 
ATOM      7  N   UNL     1       2.323   0.751  -1.001  0.00  0.00    -0.187 NA
ATOM      8  C   UNL     1       3.439   1.471  -1.053  0.00  0.00    +0.194 A 
ATOM      9  N   UNL     1       4.004   1.981   0.029  0.00  0.00    -0.202 NA
ENDROOT
BRANCH   1  16
ATOM     10  C   UNL     1       4.007   3.017   5.208  0.00  0.00    +0.046 C 
ATOM     11  C   UNL     1       5.046   3.375   4.176  0.00  0.00    -0.025 A 
ATOM     12  C   UNL     1       6.145   4.130   4.535  0.00  0.00    +0.005 A 
ATOM     13  C   UNL     1       7.095   4.464   3.588  0.00  0.00    +0.000 A 
ATOM     14  C   UNL     1       6.952   4.037   2.280  0.00  0.00    +0.002 A 
ATOM     15  C   UNL     1       5.858   3.276   1.917  0.00  0.00    +0.028 A 
ATOM     16  C   UNL     1       4.902   2.940   2.865  0.00  0.00    +0.071 A 
ENDBRANCH   1  16
BRANCH   6  17
ATOM     17  O   UNL     1       0.580  -0.227   0.195  0.00  0.00    -0.492 OA
ATOM     18  H   UNL     1       0.730  -1.176   0.304  0.00  0.00    +0.294 HD
ENDBRANCH   6  17
BRANCH   8  19
ATOM     19  S   UNL     1       4.193   1.755  -2.620  0.00  0.00    -0.078 S 
BRANCH  19  20
ATOM     20  C   UNL     1       3.040   0.862  -3.691  0.00  0.00    +0.151 C 
BRANCH  20  21
ATOM     21  C   UNL     1       3.497   0.971  -5.123  0.00  0.00    +0.116 A 
ATOM     22  C   UNL     1       4.332   0.112  -5.750  0.00  0.00    +0.046 A 
ATOM     23  C   UNL     1       4.495   0.578  -7.063  0.00  0.00    +0.057 A 
ATOM     24  C   UNL     1       3.741   1.712  -7.173  0.00  0.00    +0.212 A 
ATOM     25  O   UNL     1       3.139   1.930  -5.985  0.00  0.00    -0.452 OA
BRANCH  24  26
ATOM     26  C   UNL     1       3.605   2.543  -8.372  0.00  0.00    +0.375 C 
ATOM     27  O   UNL     1       4.197   2.241  -9.391  0.00  0.00    -0.241 OA
BRANCH  26  28
ATOM     28  O   UNL     1       2.824   3.643  -8.346  0.00  0.00    -0.462 OA
ATOM     29  C   UNL     1       2.737   4.418  -9.570  0.00  0.00    +0.280 C 
ENDBRANCH  26  28
ENDBRANCH  24  26
ENDBRANCH  20  21
ENDBRANCH  19  20
ENDBRANCH   8  19
TORSDOF 7
