REMARK  Name = ZINC14623547
REMARK  12 active torsions:
REMARK  status: ('A' for Active; 'I' for Inactive)
REMARK    1  A    between atoms: C_1  and  C_2
REMARK    2  A    between atoms: C_2  and  C_3
REMARK    3  A    between atoms: C_3  and  C_4
REMARK    4  A    between atoms: C_4  and  N_5
REMARK    5  A    between atoms: C_6  and  N_29
REMARK    6  A    between atoms: C_7  and  N_14
REMARK    7  A    between atoms: N_14  and  C_15
REMARK    8  A    between atoms: C_15  and  C_16
REMARK    9  A    between atoms: C_16  and  C_17
REMARK   10  A    between atoms: C_17  and  C_18
REMARK   11  A    between atoms: C_17  and  C_19
REMARK   12  A    between atoms: C_20  and  C_22
REMARK                            x       y       z     vdW  Elec       q    Type
REMARK                         _______ _______ _______ _____ _____    ______ ____
ROOT
ATOM      1  N   UNL     1      -0.646   2.873  -2.458  0.00  0.00    -0.280 N 
ATOM      2  C   UNL     1       0.468   3.561  -2.036  0.00  0.00    +0.127 A 
ATOM      3  C   UNL     1       1.230   3.043  -1.008  0.00  0.00    +0.140 A 
ATOM      4  C   UNL     1       0.842   1.823  -0.423  0.00  0.00    +0.277 A 
ATOM      5  O   UNL     1       1.498   1.342   0.486  0.00  0.00    -0.266 OA
ATOM      6  N   UNL     1      -0.258   1.189  -0.874  0.00  0.00    -0.273 N 
ATOM      7  H   UNL     1      -0.537   0.325  -0.456  0.00  0.00    +0.173 HD
ATOM      8  C   UNL     1      -0.985   1.706  -1.880  0.00  0.00    +0.331 A 
ATOM      9  O   UNL     1      -1.971   1.111  -2.271  0.00  0.00    -0.246 OA
ENDROOT
BRANCH   3  10
ATOM     10  N   UNL     1       2.378   3.724  -0.553  0.00  0.00    -0.260 N 
ATOM     11  C   UNL     1       2.274   4.988  -0.096  0.00  0.00    +0.252 C 
ATOM     12  O   UNL     1       3.265   5.580   0.286  0.00  0.00    -0.270 OA
BRANCH  11  13
ATOM     13  C   UNL     1       0.956   5.655  -0.059  0.00  0.00    +0.050 A 
ATOM     14  C   UNL     1      -0.213   4.894   0.018  0.00  0.00    +0.014 A 
ATOM     15  C   UNL     1      -1.440   5.523   0.057  0.00  0.00    +0.001 A 
ATOM     16  C   UNL     1      -1.516   6.904   0.008  0.00  0.00    +0.001 A 
ATOM     17  C   UNL     1      -0.363   7.664  -0.074  0.00  0.00    +0.015 A 
ATOM     18  C   UNL     1       0.872   7.048  -0.108  0.00  0.00    +0.025 A 
ATOM     19  I   UNL     1       2.617   8.200  -0.234  0.00  0.00    -0.043 I 
ENDBRANCH  11  13
BRANCH  10  20
ATOM     20  C   UNL     1       3.683   3.058  -0.576  0.00  0.00    +0.114 C 
BRANCH  20  21
ATOM     21  C   UNL     1       4.318   3.229  -1.957  0.00  0.00    +0.022 C 
BRANCH  21  22
ATOM     22  C   UNL     1       5.619   2.426  -2.022  0.00  0.00    -0.016 C 
ATOM     23  C   UNL     1       6.173   2.470  -3.448  0.00  0.00    +0.007 C 
ATOM     24  C   UNL     1       6.641   3.032  -1.059  0.00  0.00    +0.007 C 
ENDBRANCH  21  22
ENDBRANCH  20  21
ENDBRANCH  10  20
ENDBRANCH   3  10
BRANCH   2  25
ATOM     25  N   UNL     1       0.818   4.750  -2.630  0.00  0.00    -0.343 N 
ATOM     26  H   UNL     1       1.647   5.189  -2.385  0.00  0.00    +0.144 HD
ATOM     27  H   UNL     1       0.234   5.150  -3.293  0.00  0.00    +0.144 HD
ENDBRANCH   2  25
BRANCH   1  28
ATOM     28  C   UNL     1      -1.464   3.411  -3.547  0.00  0.00    +0.128 C 
BRANCH  28  29
ATOM     29  C   UNL     1      -0.944   2.882  -4.885  0.00  0.00    +0.021 C 
BRANCH  29  31
ATOM     30  C   UNL     1      -1.278   2.915  -7.361  0.00  0.00    +0.004 C 
ATOM     31  C   UNL     1      -1.798   3.444  -6.023  0.00  0.00    -0.002 C 
ENDBRANCH  29  31
ENDBRANCH  28  29
ENDBRANCH   1  28
TORSDOF 9
