REMARK  Name = ZINC20144443
REMARK  8 active torsions:
REMARK  status: ('A' for Active; 'I' for Inactive)
REMARK    1  A    between atoms: C_1  and  C_2
REMARK    2  A    between atoms: C_4  and  C_24
REMARK    3  A    between atoms: C_5  and  O_9
REMARK    4  A    between atoms: O_9  and  C_10
REMARK    5  A    between atoms: C_10  and  C_11
REMARK    6  A    between atoms: N_13  and  C_14
REMARK    7  A    between atoms: C_17  and  O_23
REMARK    8  A    between atoms: C_18  and  C_20
REMARK                            x       y       z     vdW  Elec       q    Type
REMARK                         _______ _______ _______ _____ _____    ______ ____
ROOT
ATOM      1  C   UNL     1       1.160  -6.258  -0.039  0.00  0.00    +0.255 C 
ATOM      2  O   UNL     1       0.045  -6.736  -0.027  0.00  0.00    -0.272 OA
ATOM      3  N   UNL     1       2.239  -7.066  -0.051  0.00  0.00    -0.283 N 
ATOM      4  H   UNL     1       3.128  -6.685  -0.128  0.00  0.00    +0.155 HD
ENDROOT
BRANCH   3   5
ATOM      5  C   UNL     1       2.077  -8.454   0.047  0.00  0.00    +0.034 A 
ATOM      6  C   UNL     1       0.980  -9.068  -0.549  0.00  0.00    +0.027 A 
ATOM      7  C   UNL     1       0.811 -10.435  -0.458  0.00  0.00    +0.048 A 
ATOM      8  C   UNL     1       1.735 -11.207   0.230  0.00  0.00    +0.131 A 
ATOM      9  C   UNL     1       2.843 -10.595   0.834  0.00  0.00    +0.106 A 
ATOM     10  C   UNL     1       3.010  -9.211   0.733  0.00  0.00    +0.042 A 
BRANCH   9  11
ATOM     11  C   UNL     1       3.829 -11.408   1.567  0.00  0.00    +0.390 C 
ATOM     12  O   UNL     1       4.794 -10.871   2.092  0.00  0.00    -0.240 OA
ATOM     13  O   UNL     1       3.682 -12.619   1.649  0.00  0.00    -0.240 OA
ENDBRANCH   9  11
BRANCH   8  14
ATOM     14  O   UNL     1       1.567 -12.550   0.319  0.00  0.00    -0.506 OA
ATOM     15  H   UNL     1       1.982 -13.047  -0.399  0.00  0.00    +0.292 HD
ENDBRANCH   8  14
ENDBRANCH   3   5
BRANCH   1  16
ATOM     16  C   UNL     1       1.338  -4.762  -0.040  0.00  0.00    +0.325 C 
BRANCH  16  17
ATOM     17  O   UNL     1       0.057  -4.130  -0.025  0.00  0.00    -0.481 OA
BRANCH  17  22
ATOM     18  C   UNL     1      -0.018   1.503  -0.021  0.00  0.00    +0.044 C 
ATOM     19  C   UNL     1       0.003  -0.004  -0.022  0.00  0.00    -0.049 A 
ATOM     20  C   UNL     1      -0.000  -0.693  -1.220  0.00  0.00    +0.010 A 
ATOM     21  C   UNL     1       0.018  -2.075  -1.224  0.00  0.00    -0.007 A 
ATOM     22  C   UNL     1       0.040  -2.771  -0.024  0.00  0.00    +0.138 A 
ATOM     23  C   UNL     1       0.043  -2.076   1.178  0.00  0.00    +0.060 A 
ATOM     24  C   UNL     1       0.030  -0.694   1.176  0.00  0.00    +0.022 A 
ATOM     25 BR   UNL     1       0.072  -3.020   2.816  0.00  0.00    -0.047 Br
ATOM     26  C   UNL     1       0.014  -2.825  -2.531  0.00  0.00    +0.047 C 
ENDBRANCH  17  22
ENDBRANCH  16  17
ENDBRANCH   1  16
TORSDOF 6
