REMARK  Name = ZINC58164037
REMARK  5 active torsions:
REMARK  status: ('A' for Active; 'I' for Inactive)
REMARK    1  A    between atoms: C_1  and  C_2
REMARK    2  A    between atoms: C_2  and  C_15
REMARK    3  A    between atoms: N_3  and  N_4
REMARK    4  A    between atoms: C_8  and  C_11
REMARK    5  A    between atoms: C_18  and  O_21
REMARK                            x       y       z     vdW  Elec       q    Type
REMARK                         _______ _______ _______ _____ _____    ______ ____
ROOT
ATOM      1  N   UNL     1       0.024   0.035   2.340  0.00  0.00    -0.221 N 
ATOM      2  C   UNL     1       0.045  -0.666   3.539  0.00  0.00    +0.138 A 
ATOM      3  C   UNL     1       0.041   0.029   4.745  0.00  0.00    +0.045 A 
ATOM      4  C   UNL     1       0.062  -0.681   5.931  0.00  0.00    +0.017 A 
ATOM      5  C   UNL     1       0.086  -2.069   5.872  0.00  0.00    +0.073 A 
ATOM      6  C   UNL     1       0.088  -2.694   4.641  0.00  0.00    +0.125 A 
ATOM      7  N   UNL     1       0.062  -1.991   3.525  0.00  0.00    -0.238 NA
ATOM      8  H   UNL     1       0.011   1.005   2.345  0.00  0.00    +0.176 HD
ENDROOT
BRANCH   5   9
ATOM      9  C   UNL     1       0.110  -2.884   7.139  0.00  0.00    +0.419 C 
ATOM     10  F   UNL     1      -1.202  -3.160   7.542  0.00  0.00    -0.166 F 
ATOM     11  F   UNL     1       0.789  -4.085   6.909  0.00  0.00    -0.166 F 
ATOM     12  F   UNL     1       0.764  -2.164   8.145  0.00  0.00    -0.166 F 
ENDBRANCH   5   9
BRANCH   1  15
ATOM     13  C   UNL     1      -0.018   1.503   0.010  0.00  0.00    +0.068 C 
ATOM     14  C   UNL     1       0.002  -0.004   0.002  0.00  0.00    +0.063 C 
ATOM     15  N   UNL     1       0.022  -0.659   1.123  0.00  0.00    -0.186 NA
BRANCH  14  16
ATOM     16  C   UNL     1      -0.000  -0.734  -1.279  0.00  0.00    -0.002 A 
ATOM     17  C   UNL     1      -0.015  -0.031  -2.486  0.00  0.00    +0.013 A 
ATOM     18  C   UNL     1      -0.017  -0.718  -3.681  0.00  0.00    +0.046 A 
ATOM     19  C   UNL     1      -0.004  -2.107  -3.686  0.00  0.00    +0.117 A 
ATOM     20  C   UNL     1       0.011  -2.810  -2.489  0.00  0.00    +0.046 A 
ATOM     21  C   UNL     1       0.019  -2.131  -1.289  0.00  0.00    +0.013 A 
BRANCH  19  22
ATOM     22  O   UNL     1      -0.006  -2.780  -4.867  0.00  0.00    -0.507 OA
ATOM     23  H   UNL     1       0.876  -2.966  -5.215  0.00  0.00    +0.292 HD
ENDBRANCH  19  22
ENDBRANCH  14  16
ENDBRANCH   1  15
TORSDOF 4
