REMARK  Name = ZINC12473672
REMARK  10 active torsions:
REMARK  status: ('A' for Active; 'I' for Inactive)
REMARK    1  A    between atoms: C_1  and  C_2
REMARK    2  A    between atoms: C_4  and  C_37
REMARK    3  A    between atoms: C_6  and  N_8
REMARK    4  A    between atoms: N_8  and  C_9
REMARK    5  A    between atoms: C_9  and  C_11
REMARK    6  A    between atoms: C_9  and  C_18
REMARK    7  A    between atoms: N_20  and  C_21
REMARK    8  A    between atoms: C_26  and  C_28
REMARK    9  A    between atoms: C_29  and  N_36
REMARK   10  A    between atoms: C_30  and  C_33
REMARK                            x       y       z     vdW  Elec       q    Type
REMARK                         _______ _______ _______ _____ _____    ______ ____
ROOT
ATOM      1  N   UNL     1      -0.297   5.353  -0.200  0.00  0.00    -0.251 N 
ATOM      2  C   UNL     1       0.893   5.976  -0.314  0.00  0.00    +0.262 C 
ATOM      3  O   UNL     1       0.996   7.151  -0.014  0.00  0.00    -0.269 OA
ENDROOT
BRANCH   1   9
ATOM      4  C   UNL     1       0.570   0.727   1.218  0.00  0.00    +0.044 C 
ATOM      5  C   UNL     1       0.018   1.714   0.223  0.00  0.00    -0.048 A 
ATOM      6  C   UNL     1      -0.586   1.263  -0.936  0.00  0.00    +0.006 A 
ATOM      7  C   UNL     1      -1.090   2.166  -1.853  0.00  0.00    -0.048 A 
ATOM      8  C   UNL     1      -1.000   3.523  -1.610  0.00  0.00    +0.027 A 
ATOM      9  C   UNL     1      -0.394   3.980  -0.447  0.00  0.00    +0.038 A 
ATOM     10  C   UNL     1       0.116   3.070   0.470  0.00  0.00    +0.027 A 
ATOM     11  C   UNL     1      -1.742   1.670  -3.118  0.00  0.00    +0.044 C 
ENDBRANCH   1   9
BRANCH   2  12
ATOM     12  C   UNL     1       2.061   5.239  -0.800  0.00  0.00    +0.116 A 
ATOM     13  C   UNL     1       3.392   5.651  -0.891  0.00  0.00    +0.076 A 
ATOM     14  C   UNL     1       4.224   4.658  -1.407  0.00  0.00    +0.155 A 
ATOM     15  N   UNL     1       3.708   3.498  -1.748  0.00  0.00    -0.203 NA
ATOM     16  S   UNL     1       2.164   3.580  -1.439  0.00  0.00    +0.019 S 
BRANCH  14  17
ATOM     17  C   UNL     1       5.668   4.908  -1.574  0.00  0.00    +0.262 C 
ATOM     18  O   UNL     1       6.139   5.984  -1.257  0.00  0.00    -0.269 OA
ATOM     19  N   UNL     1       6.465   3.945  -2.077  0.00  0.00    -0.324 N 
ATOM     20  H   UNL     1       6.089   3.088  -2.330  0.00  0.00    +0.145 HD
ATOM     21  H   UNL     1       7.415   4.110  -2.187  0.00  0.00    +0.145 HD
ENDBRANCH  14  17
BRANCH  13  22
ATOM     22  N   UNL     1       3.838   6.909  -0.508  0.00  0.00    -0.355 N 
ATOM     23  H   UNL     1       3.211   7.559  -0.154  0.00  0.00    +0.142 HD
ATOM     24  H   UNL     1       4.776   7.139  -0.595  0.00  0.00    +0.142 HD
ENDBRANCH  13  22
ENDBRANCH   2  12
BRANCH   1  25
ATOM     25  C   UNL     1      -1.489   6.114   0.183  0.00  0.00    +0.197 C 
BRANCH  25  26
ATOM     26  C   UNL     1      -2.705   5.231   0.074  0.00  0.00    -0.018 A 
ATOM     27  C   UNL     1      -2.755   4.036   0.768  0.00  0.00    +0.009 A 
ATOM     28  C   UNL     1      -3.872   3.228   0.674  0.00  0.00    +0.038 A 
ATOM     29  C   UNL     1      -4.937   3.610  -0.124  0.00  0.00    +0.123 A 
ATOM     30  C   UNL     1      -4.884   4.804  -0.823  0.00  0.00    +0.038 A 
ATOM     31  C   UNL     1      -3.768   5.614  -0.722  0.00  0.00    +0.009 A 
ATOM     32  F   UNL     1      -6.027   2.818  -0.222  0.00  0.00    -0.205 F 
ENDBRANCH  25  26
BRANCH  25  33
ATOM     33  C   UNL     1      -1.342   6.596   1.603  0.00  0.00    +0.239 C 
ATOM     34  O   UNL     1      -0.341   6.329   2.233  0.00  0.00    -0.273 OA
ATOM     35  N   UNL     1      -2.324   7.322   2.173  0.00  0.00    -0.311 N 
ATOM     36  H   UNL     1      -3.125   7.535   1.669  0.00  0.00    +0.149 HD
BRANCH  35  37
ATOM     37  C   UNL     1      -2.182   7.790   3.554  0.00  0.00    +0.073 C 
ATOM     38  C   UNL     1      -2.705   6.718   4.532  0.00  0.00    +0.022 C 
ATOM     39  C   UNL     1      -3.389   7.533   5.658  0.00  0.00    +0.002 C 
ATOM     40  C   UNL     1      -4.059   8.693   4.881  0.00  0.00    +0.002 C 
ATOM     41  C   UNL     1      -3.043   9.046   3.776  0.00  0.00    +0.022 C 
ENDBRANCH  35  37
ENDBRANCH  25  33
ENDBRANCH   1  25
TORSDOF 8
