REMARK  Name = ZINC37066272
REMARK  7 active torsions:
REMARK  status: ('A' for Active; 'I' for Inactive)
REMARK    1  A    between atoms: C_1  and  C_2
REMARK    2  A    between atoms: C_12  and  N_20
REMARK    3  A    between atoms: C_13  and  O_15
REMARK    4  A    between atoms: O_15  and  C_16
REMARK    5  A    between atoms: C_16  and  C_17
REMARK    6  A    between atoms: C_16  and  C_18
REMARK    7  A    between atoms: C_16  and  C_19
REMARK                            x       y       z     vdW  Elec       q    Type
REMARK                         _______ _______ _______ _____ _____    ______ ____
ROOT
ATOM      1  C   UNL     1       2.668  -0.180  -0.231  0.00  0.00    +0.028 C 
ATOM      2  C   UNL     1       1.359  -0.948  -0.035  0.00  0.00    +0.072 C 
ATOM      3  C   UNL     1       0.379  -0.586  -1.155  0.00  0.00    +0.022 C 
ATOM      4  C   UNL     1      -0.974  -1.247  -0.877  0.00  0.00    +0.003 C 
ATOM      5  C   UNL     1      -1.538  -0.724   0.446  0.00  0.00    +0.019 C 
ATOM      6  C   UNL     1      -0.579  -1.087   1.584  0.00  0.00    +0.107 C 
ATOM      7  N   UNL     1       0.761  -0.581   1.257  0.00  0.00    -0.312 N 
ATOM      8  C   UNL     1       1.451   0.233   2.152  0.00  0.00    +0.125 A 
ATOM      9  C   UNL     1       1.262   1.609   2.115  0.00  0.00    +0.046 A 
ATOM     10  C   UNL     1       1.951   2.412   3.009  0.00  0.00    +0.031 A 
ATOM     11  C   UNL     1       2.813   1.807   3.917  0.00  0.00    +0.087 A 
ATOM     12  C   UNL     1       2.954   0.421   3.898  0.00  0.00    +0.238 A 
ATOM     13  N   UNL     1       2.276  -0.314   3.033  0.00  0.00    -0.196 NA
ENDROOT
BRANCH  11  14
ATOM     14  N   UNL     1       3.531   2.582   4.840  0.00  0.00    -0.354 N 
ATOM     15  H   UNL     1       3.428   3.547   4.847  0.00  0.00    +0.142 HD
ATOM     16  H   UNL     1       4.130   2.154   5.471  0.00  0.00    +0.142 HD
ENDBRANCH  11  14
BRANCH  12  17
ATOM     17  O   UNL     1       3.793  -0.181   4.780  0.00  0.00    -0.469 OA
BRANCH  17  18
ATOM     18  C   UNL     1       3.894  -1.604   4.711  0.00  0.00    +0.104 C 
ATOM     19  C   UNL     1       4.394  -2.013   3.324  0.00  0.00    +0.055 C 
ATOM     20  C   UNL     1       4.878  -2.098   5.773  0.00  0.00    +0.055 C 
ATOM     21  C   UNL     1       2.519  -2.226   4.961  0.00  0.00    +0.055 C 
ENDBRANCH  17  18
ENDBRANCH  12  17
TORSDOF 3
