REMARK  Name = ZINC66118515
REMARK  9 active torsions:
REMARK  status: ('A' for Active; 'I' for Inactive)
REMARK    1  A    between atoms: C_1  and  C_2
REMARK    2  A    between atoms: C_2  and  C_3
REMARK    3  A    between atoms: C_3  and  C_5
REMARK    4  A    between atoms: C_3  and  O_6
REMARK    5  A    between atoms: O_6  and  C_7
REMARK    6  A    between atoms: C_12  and  C_13
REMARK    7  A    between atoms: C_13  and  C_30
REMARK    8  A    between atoms: N_23  and  C_24
REMARK    9  A    between atoms: C_24  and  C_25
REMARK                            x       y       z     vdW  Elec       q    Type
REMARK                         _______ _______ _______ _____ _____    ______ ____
ROOT
ATOM      1  C   UNL     1      -1.494   0.827  -4.636  0.00  0.00    +0.129 C 
ATOM      2  N   UNL     1      -2.105  -0.448  -4.246  0.00  0.00    -0.319 N 
ATOM      3  C   UNL     1      -2.179  -1.471  -5.185  0.00  0.00    +0.041 A 
ATOM      4  C   UNL     1      -2.171  -2.805  -4.812  0.00  0.00    +0.024 A 
ATOM      5  C   UNL     1      -2.257  -3.786  -5.780  0.00  0.00    +0.002 A 
ATOM      6  C   UNL     1      -2.350  -3.447  -7.121  0.00  0.00    +0.001 A 
ATOM      7  C   UNL     1      -2.354  -2.123  -7.510  0.00  0.00    +0.015 A 
ATOM      8  C   UNL     1      -2.264  -1.123  -6.544  0.00  0.00    +0.058 A 
ATOM      9  C   UNL     1      -2.240   0.304  -6.910  0.00  0.00    +0.251 C 
ATOM     10  O   UNL     1      -2.477   0.648  -8.052  0.00  0.00    -0.270 OA
ATOM     11  N   UNL     1      -1.954   1.224  -5.967  0.00  0.00    -0.265 N 
ATOM     12  C   UNL     1      -1.886   1.904  -3.623  0.00  0.00    +0.059 C 
ATOM     13  H   UNL     1      -2.452  -0.576  -3.349  0.00  0.00    +0.148 HD
ENDROOT
BRANCH   1  19
ATOM     14  C   UNL     1       0.667   0.205  -3.527  0.00  0.00    +0.128 A 
ATOM     15  C   UNL     1       2.047   0.064  -3.546  0.00  0.00    +0.046 A 
ATOM     16  C   UNL     1       2.759   0.399  -4.681  0.00  0.00    +0.004 A 
ATOM     17  C   UNL     1       2.098   0.874  -5.798  0.00  0.00    +0.001 A 
ATOM     18  C   UNL     1       0.723   1.016  -5.782  0.00  0.00    +0.011 A 
ATOM     19  C   UNL     1       0.005   0.678  -4.651  0.00  0.00    +0.035 A 
BRANCH  14  20
ATOM     20  O   UNL     1      -0.036  -0.123  -2.412  0.00  0.00    -0.489 OA
BRANCH  20  21
ATOM     21  C   UNL     1       0.718  -0.499  -1.257  0.00  0.00    +0.170 C 
ATOM     22  C   UNL     1       1.068  -1.986  -1.338  0.00  0.00    +0.052 C 
BRANCH  21  24
ATOM     23  C   UNL     1      -0.357   1.265   0.149  0.00  0.00    +0.007 C 
ATOM     24  C   UNL     1      -0.113  -0.238   0.001  0.00  0.00    +0.041 C 
ENDBRANCH  21  24
ENDBRANCH  20  21
ENDBRANCH  14  20
ENDBRANCH   1  19
BRANCH  11  25
ATOM     25  C   UNL     1      -2.107   2.647  -6.281  0.00  0.00    +0.184 C 
BRANCH  25  26
ATOM     26  C   UNL     1      -0.813   3.180  -6.841  0.00  0.00    +0.122 A 
ATOM     27  C   UNL     1      -0.470   3.205  -8.141  0.00  0.00    +0.046 A 
ATOM     28  C   UNL     1       0.818   3.784  -8.214  0.00  0.00    +0.041 A 
ATOM     29  C   UNL     1       1.185   4.077  -6.953  0.00  0.00    +0.195 A 
ATOM     30  O   UNL     1       0.191   3.715  -6.126  0.00  0.00    -0.466 OA
ENDBRANCH  25  26
ENDBRANCH  11  25
TORSDOF 6
