REMARK  Name = ZINC03548546
REMARK  7 active torsions:
REMARK  status: ('A' for Active; 'I' for Inactive)
REMARK    1  A    between atoms: C_1  and  C_2
REMARK    2  A    between atoms: C_2  and  C_3
REMARK    3  A    between atoms: C_10  and  C_12
REMARK    4  A    between atoms: C_12  and  O_14
REMARK    5  A    between atoms: O_14  and  C_15
REMARK    6  A    between atoms: C_15  and  C_17
REMARK    7  A    between atoms: C_15  and  C_18
REMARK                            x       y       z     vdW  Elec       q    Type
REMARK                         _______ _______ _______ _____ _____    ______ ____
ROOT
ATOM      1  C   UNL     1      -6.941  -0.857  -2.884  0.00  0.00    +0.347 C 
ATOM      2  O   UNL     1      -7.009   0.059  -3.682  0.00  0.00    -0.244 OA
ENDROOT
BRANCH   1   9
ATOM      3  C   UNL     1      -1.433  -0.534   0.013  0.00  0.00    -0.007 C 
ATOM      4  C   UNL     1      -1.412  -2.060   0.134  0.00  0.00    +0.009 C 
ATOM      5  C   UNL     1      -2.837  -2.553   0.416  0.00  0.00    +0.043 C 
ATOM      6  C   UNL     1      -3.769  -1.895  -0.559  0.00  0.00    -0.006 A 
ATOM      7  C   UNL     1      -3.499  -0.810  -1.341  0.00  0.00    -0.036 A 
ATOM      8  C   UNL     1      -4.517  -0.373  -2.174  0.00  0.00    +0.026 A 
ATOM      9  C   UNL     1      -5.706  -1.080  -2.130  0.00  0.00    +0.097 A 
ATOM     10  S   UNL     1      -5.341  -2.333  -0.915  0.00  0.00    -0.086 S 
ATOM     11  C   UNL     1      -2.135  -0.128  -1.284  0.00  0.00    +0.039 C 
BRANCH   3  13
ATOM     12  C   UNL     1      -0.019   1.526   0.010  0.00  0.00    +0.004 C 
ATOM     13  C   UNL     1       0.002  -0.004   0.002  0.00  0.00    +0.000 C 
ENDBRANCH   3  13
ENDBRANCH   1   9
BRANCH   1  14
ATOM     14  O   UNL     1      -8.002  -1.668  -2.695  0.00  0.00    -0.448 OA
BRANCH  14  15
ATOM     15  C   UNL     1      -9.174  -1.393  -3.465  0.00  0.00    +0.259 C 
ATOM     16  C   UNL     1      -9.112  -2.167  -4.783  0.00  0.00    +0.062 C 
BRANCH  15  17
ATOM     17  C   UNL     1     -10.395  -1.817  -2.690  0.00  0.00    +0.261 C 
ATOM     18  O   UNL     1     -10.274  -2.307  -1.587  0.00  0.00    -0.271 OA
ATOM     19  N   UNL     1     -11.622  -1.652  -3.222  0.00  0.00    -0.237 N 
ATOM     20  C   UNL     1     -12.714  -2.031  -2.529  0.00  0.00    +0.303 C 
ATOM     21  O   UNL     1     -12.592  -2.522  -1.424  0.00  0.00    -0.253 OA
ATOM     22  N   UNL     1     -13.941  -1.866  -3.062  0.00  0.00    -0.313 N 
ATOM     23  H   UNL     1     -11.719  -1.260  -4.104  0.00  0.00    +0.159 HD
ATOM     24  H   UNL     1     -14.038  -1.474  -3.943  0.00  0.00    +0.146 HD
ATOM     25  H   UNL     1     -14.727  -2.139  -2.563  0.00  0.00    +0.146 HD
ENDBRANCH  15  17
ENDBRANCH  14  15
ENDBRANCH   1  14
TORSDOF 5
