REMARK  Name = ZINC20916324
REMARK  7 active torsions:
REMARK  status: ('A' for Active; 'I' for Inactive)
REMARK    1  A    between atoms: C_9  and  O_24
REMARK    2  A    between atoms: C_10  and  C_11
REMARK    3  A    between atoms: N_12  and  N_13
REMARK    4  A    between atoms: C_17  and  S_20
REMARK    5  A    between atoms: N_18  and  N_19
REMARK    6  A    between atoms: S_20  and  C_21
REMARK    7  A    between atoms: C_21  and  C_22
REMARK                            x       y       z     vdW  Elec       q    Type
REMARK                         _______ _______ _______ _____ _____    ______ ____
ROOT
ATOM      1  C   UNL     1      -1.373   6.050   0.045  0.00  0.00    +0.142 C 
ATOM      2  N   UNL     1      -1.364   7.350   0.052  0.00  0.00    -0.187 NA
ENDROOT
BRANCH   1  12
ATOM      3  C   UNL     1      -0.013   1.076   0.008  0.00  0.00    +0.001 A 
ATOM      4  C   UNL     1      -1.234   1.745   0.017  0.00  0.00    +0.001 A 
ATOM      5  C   UNL     1      -1.286   3.107   0.030  0.00  0.00    +0.009 A 
ATOM      6  C   UNL     1      -0.096   3.845   0.023  0.00  0.00    -0.006 A 
ATOM      7  C   UNL     1       1.148   3.168   0.008  0.00  0.00    -0.017 A 
ATOM      8  C   UNL     1       1.163   1.762   0.000  0.00  0.00    +0.008 A 
ATOM      9  C   UNL     1       2.341   3.910  -0.000  0.00  0.00    +0.012 A 
ATOM     10  C   UNL     1       2.314   5.270   0.007  0.00  0.00    +0.046 A 
ATOM     11  C   UNL     1       1.116   5.981   0.022  0.00  0.00    +0.126 A 
ATOM     12  C   UNL     1      -0.105   5.306   0.030  0.00  0.00    +0.044 A 
BRANCH  11  13
ATOM     13  O   UNL     1       1.137   7.339   0.029  0.00  0.00    -0.506 OA
ATOM     14  H   UNL     1       0.193   7.903   0.041  0.00  0.00    +0.292 HD
ENDBRANCH  11  13
ENDBRANCH   1  12
BRANCH   2  15
ATOM     15  N   UNL     1      -2.573   8.058   0.066  0.00  0.00    -0.204 N 
ATOM     16  C   UNL     1      -2.564   9.445   0.073  0.00  0.00    +0.254 A 
ATOM     17  N   UNL     1      -1.498  10.209   0.073  0.00  0.00    -0.109 NA
ATOM     18  N   UNL     1      -1.923  11.544   0.078  0.00  0.00    -0.119 NA
ATOM     19  C   UNL     1      -3.234  11.552   0.089  0.00  0.00    +0.211 A 
ATOM     20  N   UNL     1      -3.665  10.256   0.087  0.00  0.00    -0.211 N 
ATOM     21  H   UNL     1      -3.529   7.514   0.072  0.00  0.00    +0.177 HD
BRANCH  20  22
ATOM     22  N   UNL     1      -4.967   9.842   0.096  0.00  0.00    -0.294 N 
ATOM     23  H   UNL     1      -5.779  10.584   0.107  0.00  0.00    +0.163 HD
ATOM     24  H   UNL     1      -5.202   8.768   0.093  0.00  0.00    +0.163 HD
ENDBRANCH  20  22
BRANCH  19  25
ATOM     25  S   UNL     1      -4.261  12.985   0.106  0.00  0.00    -0.069 S 
BRANCH  25  26
ATOM     26  C   UNL     1      -3.086  14.367   0.102  0.00  0.00    +0.195 C 
BRANCH  26  27
ATOM     27  C   UNL     1      -3.825  15.639   0.115  0.00  0.00    +0.074 C 
ATOM     28  N   UNL     1      -4.396  16.621   0.125  0.00  0.00    -0.196 NA
ENDBRANCH  26  27
ENDBRANCH  25  26
ENDBRANCH  19  25
ENDBRANCH   2  15
TORSDOF 7
