REMARK  Name = ZINC24583851
REMARK  8 active torsions:
REMARK  status: ('A' for Active; 'I' for Inactive)
REMARK    1  A    between atoms: C_1  and  C_2
REMARK    2  A    between atoms: C_2  and  C_3
REMARK    3  A    between atoms: C_2  and  C_4
REMARK    4  A    between atoms: C_2  and  C_5
REMARK    5  A    between atoms: C_8  and  O_31
REMARK    6  A    between atoms: C_9  and  N_11
REMARK    7  A    between atoms: C_12  and  C_14
REMARK    8  A    between atoms: C_14  and  N_15
REMARK                            x       y       z     vdW  Elec       q    Type
REMARK                         _______ _______ _______ _____ _____    ______ ____
ROOT
ATOM      1  C   UNL     1       1.513   3.303   0.006  0.00  0.00    +0.214 C 
ENDROOT
BRANCH   1   2
ATOM      2  N   UNL     1       1.240   1.864   0.002  0.00  0.00    -0.215 N 
ATOM      3  C   UNL     1       2.194   0.911  -0.004  0.00  0.00    +0.251 C 
ATOM      4  O   UNL     1       3.395   1.076  -0.006  0.00  0.00    -0.272 OA
ATOM      5  C   UNL     1       1.452  -0.406  -0.006  0.00  0.00    +0.138 C 
ATOM      6  C   UNL     1       1.781  -1.195  -1.267  0.00  0.00    +0.040 C 
ATOM      7  C   UNL     1       1.166  -2.595  -1.140  0.00  0.00    +0.008 C 
ATOM      8  C   UNL     1       1.923  -3.358  -0.055  0.00  0.00    +0.035 C 
ATOM      9  C   UNL     1       1.991  -2.550   1.214  0.00  0.00    -0.042 A 
ATOM     10  C   UNL     1       1.780  -1.188   1.235  0.00  0.00    -0.012 A 
ATOM     11  C   UNL     1       1.869  -0.498   2.436  0.00  0.00    +0.006 A 
ATOM     12  C   UNL     1       2.162  -1.164   3.608  0.00  0.00    +0.000 A 
ATOM     13  C   UNL     1       2.370  -2.531   3.588  0.00  0.00    +0.000 A 
ATOM     14  C   UNL     1       2.285  -3.219   2.395  0.00  0.00    +0.004 A 
ATOM     15  N   UNL     1       0.036  -0.015  -0.002  0.00  0.00    -0.281 N 
ATOM     16  C   UNL     1       0.012   1.331   0.003  0.00  0.00    +0.310 C 
ATOM     17  O   UNL     1      -1.010   1.989   0.003  0.00  0.00    -0.252 OA
ATOM     18  H   UNL     1      -0.748  -0.786  -0.003  0.00  0.00    +0.152 HD
ENDBRANCH   1   2
BRANCH   1  20
ATOM     19  N   UNL     1       1.858   5.093   1.678  0.00  0.00    -0.281 N 
ATOM     20  C   UNL     1       1.611   3.792   1.428  0.00  0.00    +0.235 C 
ATOM     21  O   UNL     1       1.466   3.015   2.348  0.00  0.00    -0.274 OA
ATOM     22  H   UNL     1       2.062   5.784   0.846  0.00  0.00    +0.155 HD
BRANCH  19  27
ATOM     23  C   UNL     1       2.309   5.224   5.327  0.00  0.00    -0.040 A 
ATOM     24  C   UNL     1       1.853   6.500   5.605  0.00  0.00    +0.008 A 
ATOM     25  C   UNL     1       1.398   7.313   4.584  0.00  0.00    +0.047 A 
ATOM     26  C   UNL     1       1.403   6.853   3.277  0.00  0.00    +0.138 A 
ATOM     27  C   UNL     1       1.857   5.566   2.997  0.00  0.00    +0.076 A 
ATOM     28  C   UNL     1       2.312   4.756   4.027  0.00  0.00    +0.031 A 
BRANCH  23  30
ATOM     29  C   UNL     1       4.265   3.967   6.189  0.00  0.00    +0.015 C 
ATOM     30  C   UNL     1       2.804   4.343   6.444  0.00  0.00    -0.013 C 
ATOM     31  C   UNL     1       2.696   5.094   7.773  0.00  0.00    +0.015 C 
ATOM     32  C   UNL     1       1.954   3.072   6.506  0.00  0.00    +0.015 C 
ENDBRANCH  23  30
BRANCH  26  33
ATOM     33  O   UNL     1       0.961   7.654   2.271  0.00  0.00    -0.505 OA
ATOM     34  H   UNL     1       0.966   7.287   1.234  0.00  0.00    +0.292 HD
ENDBRANCH  26  33
ENDBRANCH  19  27
ENDBRANCH   1  20
TORSDOF 5
