REMARK  Name = ZINC56206612
REMARK  11 active torsions:
REMARK  status: ('A' for Active; 'I' for Inactive)
REMARK    1  A    between atoms: C_1  and  C_2
REMARK    2  A    between atoms: C_5  and  N_11
REMARK    3  A    between atoms: C_7  and  N_8
REMARK    4  A    between atoms: C_12  and  C_14
REMARK    5  A    between atoms: C_14  and  C_16
REMARK    6  A    between atoms: C_14  and  N_17
REMARK    7  A    between atoms: N_17  and  C_18
REMARK    8  A    between atoms: C_21  and  O_25
REMARK    9  A    between atoms: C_23  and  C_24
REMARK   10  A    between atoms: O_25  and  C_26
REMARK   11  A    between atoms: C_26  and  C_27
REMARK                            x       y       z     vdW  Elec       q    Type
REMARK                         _______ _______ _______ _____ _____    ______ ____
ROOT
ATOM      1  C   UNL     1       0.274  -6.315   0.437  0.00  0.00    +0.154 C 
ATOM      2  C   UNL     1      -0.790  -6.643   1.487  0.00  0.00    +0.038 C 
ENDROOT
BRANCH   1   4
ATOM      3  N   UNL     1       0.165  -3.875   0.832  0.00  0.00    -0.284 N 
ATOM      4  C   UNL     1       0.086  -4.898  -0.042  0.00  0.00    +0.237 C 
ATOM      5  O   UNL     1      -0.135  -4.679  -1.214  0.00  0.00    -0.273 OA
ATOM      6  H   UNL     1       0.267  -4.054   1.780  0.00  0.00    +0.155 HD
BRANCH   3  11
ATOM      7  C   UNL     1      -0.100   1.476  -1.034  0.00  0.00    +0.046 C 
ATOM      8  C   UNL     1      -0.030   0.054  -0.539  0.00  0.00    -0.020 A 
ATOM      9  C   UNL     1       0.560  -0.921  -1.322  0.00  0.00    +0.007 A 
ATOM     10  C   UNL     1       0.626  -2.225  -0.870  0.00  0.00    +0.024 A 
ATOM     11  C   UNL     1       0.100  -2.555   0.372  0.00  0.00    +0.036 A 
ATOM     12  C   UNL     1      -0.491  -1.574   1.155  0.00  0.00    +0.056 A 
ATOM     13  C   UNL     1      -0.550  -0.271   0.701  0.00  0.00    +0.131 A 
BRANCH  13  14
ATOM     14  N   UNL     1      -1.175   0.777   1.538  0.00  0.00    +0.057 N 
ATOM     15  O   UNL     1      -0.710   1.893   1.556  0.00  0.00    -0.126 OA
ATOM     16  O   UNL     1      -2.151   0.518   2.203  0.00  0.00    -0.126 OA
ENDBRANCH  13  14
ENDBRANCH   3  11
ENDBRANCH   1   4
BRANCH   1  17
ATOM     17  N   UNL     1       0.142  -7.235  -0.695  0.00  0.00    -0.333 N 
ATOM     18  H   UNL     1      -0.374  -6.975  -1.474  0.00  0.00    +0.147 HD
BRANCH  17  19
ATOM     19  C   UNL     1       0.762  -8.489  -0.654  0.00  0.00    +0.031 A 
ATOM     20  C   UNL     1       1.498  -8.864   0.463  0.00  0.00    +0.027 A 
ATOM     21  C   UNL     1       2.109 -10.101   0.504  0.00  0.00    +0.047 A 
ATOM     22  C   UNL     1       1.989 -10.970  -0.571  0.00  0.00    +0.122 A 
ATOM     23  C   UNL     1       1.256 -10.596  -1.687  0.00  0.00    +0.050 A 
ATOM     24  C   UNL     1       0.638  -9.361  -1.727  0.00  0.00    -0.026 A 
ATOM     25  C   UNL     1      -0.164  -8.958  -2.937  0.00  0.00    +0.046 C 
BRANCH  22  26
ATOM     26  O   UNL     1       2.591 -12.188  -0.531  0.00  0.00    -0.483 OA
BRANCH  26  27
ATOM     27  C   UNL     1       3.331 -12.507   0.650  0.00  0.00    +0.324 C 
BRANCH  27  28
ATOM     28  C   UNL     1       3.923 -13.887   0.514  0.00  0.00    +0.248 C 
ATOM     29  O   UNL     1       3.730 -14.533  -0.494  0.00  0.00    -0.272 OA
ATOM     30  N   UNL     1       4.667 -14.402   1.513  0.00  0.00    -0.327 N 
ATOM     31  H   UNL     1       4.821 -13.885   2.319  0.00  0.00    +0.145 HD
ATOM     32  H   UNL     1       5.048 -15.290   1.426  0.00  0.00    +0.145 HD
ENDBRANCH  27  28
ENDBRANCH  26  27
ENDBRANCH  22  26
ENDBRANCH  17  19
ENDBRANCH   1  17
TORSDOF 8
