REMARK  Name = ZINC16857155
REMARK  1 active torsions:
REMARK  status: ('A' for Active; 'I' for Inactive)
REMARK    1  A    between atoms: C_6  and  C_7
REMARK                            x       y       z     vdW  Elec       q    Type
REMARK                         _______ _______ _______ _____ _____    ______ ____
ROOT
ATOM      1  C   UNL     1      -1.278  -0.807  -0.005  0.00  0.00    +0.133 C 
ATOM      2  C   UNL     1       0.002  -0.004   0.002  0.00  0.00    -0.028 C 
ATOM      3  C   UNL     1      -0.016   1.306   0.009  0.00  0.00    +0.013 C 
ATOM      4  C   UNL     1       1.232   2.155   0.002  0.00  0.00    +0.051 C 
ATOM      5  C   UNL     1       2.454   1.339   0.412  0.00  0.00    +0.006 C 
ATOM      6  C   UNL     1       2.467   0.059  -0.434  0.00  0.00    +0.005 C 
ATOM      7  C   UNL     1       1.286  -0.802  -0.000  0.00  0.00    +0.034 C 
ATOM      8  N   UNL     1      -1.230   2.001   0.018  0.00  0.00    -0.273 N 
ATOM      9  C   UNL     1      -2.407   1.364   0.024  0.00  0.00    +0.304 C 
ATOM     10  O   UNL     1      -3.438   2.009   0.038  0.00  0.00    -0.252 OA
ATOM     11  N   UNL     1      -2.466   0.026   0.008  0.00  0.00    -0.289 N 
ATOM     12  H   UNL     1      -1.219   2.971   0.030  0.00  0.00    +0.156 HD
ATOM     13  H   UNL     1      -3.336  -0.403   0.004  0.00  0.00    +0.151 HD
ENDROOT
BRANCH   1  19
ATOM     14  C   UNL     1      -1.674  -1.126  -2.456  0.00  0.00    +0.007 A 
ATOM     15  C   UNL     1      -1.693  -1.916  -3.590  0.00  0.00    +0.015 A 
ATOM     16  C   UNL     1      -1.351  -3.253  -3.506  0.00  0.00    +0.018 A 
ATOM     17  C   UNL     1      -0.984  -3.798  -2.289  0.00  0.00    +0.015 A 
ATOM     18  C   UNL     1      -0.961  -3.006  -1.157  0.00  0.00    +0.007 A 
ATOM     19  C   UNL     1      -1.303  -1.670  -1.240  0.00  0.00    -0.023 A 
ATOM     20 BR   UNL     1      -1.382  -4.336  -5.056  0.00  0.00    -0.050 Br
ENDBRANCH   1  19
TORSDOF 1
