REMARK  Name = ZINC59250024
REMARK  6 active torsions:
REMARK  status: ('A' for Active; 'I' for Inactive)
REMARK    1  A    between atoms: C_1  and  C_2
REMARK    2  A    between atoms: C_4  and  C_18
REMARK    3  A    between atoms: C_5  and  C_17
REMARK    4  A    between atoms: N_6  and  C_7
REMARK    5  A    between atoms: C_10  and  C_14
REMARK    6  A    between atoms: N_24  and  C_25
REMARK                            x       y       z     vdW  Elec       q    Type
REMARK                         _______ _______ _______ _____ _____    ______ ____
ROOT
ATOM      1  C   UNL     1      -0.510   1.491  -0.054  0.00  0.00    +0.064 C 
ATOM      2  C   UNL     1      -0.275   0.002  -0.048  0.00  0.00    +0.022 A 
ATOM      3  C   UNL     1      -0.313  -0.797  -1.127  0.00  0.00    +0.031 A 
ATOM      4  C   UNL     1      -0.026  -2.157  -0.653  0.00  0.00    -0.003 A 
ATOM      5  C   UNL     1       0.165  -2.054   0.710  0.00  0.00    +0.028 A 
ATOM      6  N   UNL     1       0.017  -0.749   1.057  0.00  0.00    -0.317 N 
ATOM      7  C   UNL     1       0.487  -3.189   1.647  0.00  0.00    +0.064 C 
ENDROOT
BRANCH   4   8
ATOM      8  C   UNL     1       0.043  -3.377  -1.464  0.00  0.00    +0.030 C 
ATOM      9  C   UNL     1       0.534  -3.325  -2.730  0.00  0.00    +0.078 C 
ATOM     10  C   UNL     1       1.192  -2.210  -3.431  0.00  0.00    +0.256 C 
ATOM     11  O   UNL     1       1.372  -1.135  -2.889  0.00  0.00    -0.269 OA
ATOM     12  N   UNL     1       1.579  -2.428  -4.677  0.00  0.00    -0.260 N 
ATOM     13  C   UNL     1       1.367  -3.652  -5.274  0.00  0.00    +0.166 C 
ATOM     14  N   UNL     1       1.686  -4.034  -6.490  0.00  0.00    -0.226 NA
ATOM     15  S   UNL     1       0.562  -4.594  -3.989  0.00  0.00    -0.049 S 
ATOM     16  H   UNL     1       2.016  -1.720  -5.175  0.00  0.00    +0.157 HD
BRANCH  14  17
ATOM     17  C   UNL     1       2.313  -3.163  -7.340  0.00  0.00    +0.067 A 
ATOM     18  C   UNL     1       1.866  -1.844  -7.447  0.00  0.00    +0.030 A 
ATOM     19  C   UNL     1       2.502  -0.971  -8.305  0.00  0.00    +0.040 A 
ATOM     20  C   UNL     1       3.583  -1.400  -9.059  0.00  0.00    +0.124 A 
ATOM     21  C   UNL     1       4.031  -2.707  -8.957  0.00  0.00    +0.040 A 
ATOM     22  C   UNL     1       3.407  -3.588  -8.098  0.00  0.00    +0.030 A 
ATOM     23  F   UNL     1       4.201  -0.540  -9.897  0.00  0.00    -0.205 F 
ENDBRANCH  14  17
ENDBRANCH   4   8
BRANCH   6  24
ATOM     24  C   UNL     1       0.142  -0.247   2.355  0.00  0.00    +0.048 A 
ATOM     25  C   UNL     1       1.374  -0.294   3.001  0.00  0.00    +0.027 A 
ATOM     26  C   UNL     1       1.502   0.199   4.279  0.00  0.00    +0.018 A 
ATOM     27  C   UNL     1       0.392   0.748   4.930  0.00  0.00    +0.082 A 
ATOM     28  C   UNL     1      -0.846   0.793   4.277  0.00  0.00    +0.057 A 
ATOM     29  C   UNL     1      -0.964   0.301   2.995  0.00  0.00    +0.047 A 
ATOM     30 CL   UNL     1      -2.228   1.472   5.079  0.00  0.00    -0.083 Cl
BRANCH  27  31
ATOM     31  C   UNL     1       0.524   1.276   6.298  0.00  0.00    +0.388 C 
ATOM     32  O   UNL     1       1.607   1.235   6.867  0.00  0.00    -0.241 OA
ATOM     33  O   UNL     1      -0.448   1.755   6.865  0.00  0.00    -0.241 OA
ENDBRANCH  27  31
ENDBRANCH   6  24
TORSDOF 4
