REMARK  Name = ZINC65529601
REMARK  6 active torsions:
REMARK  status: ('A' for Active; 'I' for Inactive)
REMARK    1  A    between atoms: C_4  and  C_7
REMARK    2  A    between atoms: C_7  and  N_8
REMARK    3  A    between atoms: C_11  and  N_14
REMARK    4  A    between atoms: N_17  and  C_18
REMARK    5  A    between atoms: C_18  and  C_19
REMARK    6  A    between atoms: N_23  and  C_25
REMARK                            x       y       z     vdW  Elec       q    Type
REMARK                         _______ _______ _______ _____ _____    ______ ____
ROOT
ATOM      1  N   UNL     1       6.554  -2.166   3.493  0.00  0.00    -0.298 N 
ATOM      2  C   UNL     1       7.073  -3.079   4.337  0.00  0.00    +0.300 C 
ATOM      3  O   UNL     1       6.698  -4.235   4.288  0.00  0.00    -0.253 OA
ATOM      4  N   UNL     1       8.008  -2.712   5.236  0.00  0.00    -0.299 N 
ATOM      5  H   UNL     1       6.853  -1.244   3.532  0.00  0.00    +0.150 HD
ATOM      6  H   UNL     1       8.307  -1.790   5.275  0.00  0.00    +0.150 HD
ENDROOT
BRANCH   1  10
ATOM      7  N   UNL     1       4.153  -0.953   1.342  0.00  0.00    +0.384 N 
ATOM      8  C   UNL     1       3.257  -1.939   1.998  0.00  0.00    -0.077 C 
ATOM      9  C   UNL     1       4.129  -2.498   3.150  0.00  0.00    +0.002 C 
ATOM     10  C   UNL     1       5.537  -2.565   2.517  0.00  0.00    +0.056 C 
ATOM     11  C   UNL     1       5.499  -1.567   1.344  0.00  0.00    -0.056 C 
ATOM     12  H   UNL     1       4.164  -0.089   1.863  0.00  0.00    -0.081 HD
BRANCH   7  13
ATOM     13  C   UNL     1       3.711  -0.707  -0.038  0.00  0.00    -0.043 C 
BRANCH  13  17
ATOM     14  C   UNL     1      -0.017   1.378   0.010  0.00  0.00    +0.000 A 
ATOM     15  C   UNL     1       1.171   2.086   0.002  0.00  0.00    +0.000 A 
ATOM     16  C   UNL     1       2.377   1.411  -0.013  0.00  0.00    +0.002 A 
ATOM     17  C   UNL     1       2.396   0.029  -0.020  0.00  0.00    -0.064 A 
ATOM     18  C   UNL     1       1.208  -0.679  -0.012  0.00  0.00    +0.002 A 
ATOM     19  C   UNL     1       0.002  -0.004   0.002  0.00  0.00    +0.000 A 
ENDBRANCH  13  17
ENDBRANCH   7  13
ENDBRANCH   1  10
BRANCH   4  20
ATOM     20  C   UNL     1       8.572  -3.705   6.153  0.00  0.00    +0.110 C 
BRANCH  20  21
ATOM     21  C   UNL     1       9.603  -3.032   7.062  0.00  0.00    +0.025 C 
ATOM     22  C   UNL     1      10.868  -2.624   6.261  0.00  0.00    +0.025 C 
ATOM     23  C   UNL     1      11.975  -2.631   7.335  0.00  0.00    +0.105 C 
ATOM     24  N   UNL     1      11.514  -3.496   8.432  0.00  0.00    -0.329 N 
ATOM     25  C   UNL     1      10.191  -4.042   8.079  0.00  0.00    +0.110 C 
BRANCH  24  26
ATOM     26  C   UNL     1      12.214  -3.757   9.613  0.00  0.00    +0.033 A 
ATOM     27  C   UNL     1      11.669  -4.601  10.572  0.00  0.00    +0.026 A 
ATOM     28  C   UNL     1      12.362  -4.858  11.740  0.00  0.00    +0.043 A 
ATOM     29  C   UNL     1      13.599  -4.276  11.955  0.00  0.00    +0.159 A 
ATOM     30  C   UNL     1      14.146  -3.433  10.999  0.00  0.00    +0.160 A 
ATOM     31  C   UNL     1      13.458  -3.178   9.827  0.00  0.00    +0.064 A 
ATOM     32  F   UNL     1      15.353  -2.865  11.211  0.00  0.00    -0.202 F 
ATOM     33  F   UNL     1      14.274  -4.529  13.097  0.00  0.00    -0.202 F 
ENDBRANCH  24  26
ENDBRANCH  20  21
ENDBRANCH   4  20
TORSDOF 6
