REMARK  Name = ZINC04251620
REMARK  4 active torsions:
REMARK  status: ('A' for Active; 'I' for Inactive)
REMARK    1  A    between atoms: C_4  and  C_7
REMARK    2  A    between atoms: C_7  and  N_49
REMARK    3  A    between atoms: N_10  and  C_13
REMARK    4  A    between atoms: N_17  and  C_22
REMARK                            x       y       z     vdW  Elec       q    Type
REMARK                         _______ _______ _______ _____ _____    ______ ____
ROOT
ATOM      1  C   UNL     1       1.028  -2.523   4.843  0.00  0.00    +0.108 A 
ATOM      2  C   UNL     1       0.921  -3.863   5.096  0.00  0.00    +0.112 A 
ATOM      3  C   UNL     1       0.949  -4.309   6.426  0.00  0.00    +0.263 A 
ATOM      4  O   UNL     1       0.860  -5.500   6.676  0.00  0.00    -0.267 OA
ATOM      5  N   UNL     1       1.068  -3.415   7.427  0.00  0.00    -0.228 N 
ATOM      6  C   UNL     1       1.167  -2.099   7.160  0.00  0.00    +0.335 A 
ATOM      7  O   UNL     1       1.274  -1.309   8.078  0.00  0.00    -0.246 OA
ATOM      8  N   UNL     1       1.148  -1.646   5.894  0.00  0.00    -0.295 N 
ATOM      9  H   UNL     1       1.223  -0.665   5.716  0.00  0.00    +0.172 HD
ENDROOT
BRANCH   1  12
ATOM     10  C   UNL     1       1.428  -0.182   2.039  0.00  0.00    -0.059 C 
ATOM     11  C   UNL     1       1.384  -0.639   3.498  0.00  0.00    +0.088 C 
ATOM     12  N   UNL     1       1.009  -2.059   3.553  0.00  0.00    -0.320 N 
ATOM     13  C   UNL     1      -0.305  -2.278   2.933  0.00  0.00    +0.088 C 
ATOM     14  C   UNL     1      -0.261  -1.821   1.473  0.00  0.00    -0.059 C 
ATOM     15  N   UNL     1       0.095  -0.387   1.434  0.00  0.00    +0.384 N 
ATOM     16  H   UNL     1      -0.600   0.145   1.971  0.00  0.00    -0.081 HD
BRANCH  15  17
ATOM     17  C   UNL     1       0.094   0.096   0.037  0.00  0.00    -0.043 C 
BRANCH  17  21
ATOM     18  C   UNL     1       0.506   4.348   0.046  0.00  0.00    +0.000 A 
ATOM     19  C   UNL     1       1.630   3.545  -0.014  0.00  0.00    +0.000 A 
ATOM     20  C   UNL     1       1.496   2.169  -0.017  0.00  0.00    +0.002 A 
ATOM     21  C   UNL     1       0.240   1.596   0.040  0.00  0.00    -0.064 A 
ATOM     22  C   UNL     1      -0.884   2.400   0.095  0.00  0.00    +0.002 A 
ATOM     23  C   UNL     1      -0.750   3.775   0.103  0.00  0.00    +0.000 A 
ENDBRANCH  17  21
ENDBRANCH  15  17
ENDBRANCH   1  12
BRANCH   5  24
ATOM     24  C   UNL     1       1.090  -3.858   8.757  0.00  0.00    +0.073 A 
ATOM     25  C   UNL     1      -0.095  -3.977   9.470  0.00  0.00    +0.028 A 
ATOM     26  C   UNL     1      -0.070  -4.415  10.780  0.00  0.00    +0.002 A 
ATOM     27  C   UNL     1       1.133  -4.734  11.381  0.00  0.00    +0.002 A 
ATOM     28  C   UNL     1       2.316  -4.616  10.675  0.00  0.00    +0.022 A 
ATOM     29  C   UNL     1       2.297  -4.184   9.362  0.00  0.00    +0.065 A 
ATOM     30 CL   UNL     1       3.782  -4.043   8.472  0.00  0.00    -0.081 Cl
ENDBRANCH   5  24
TORSDOF 4
