REMARK  Name = ZINC01921163
REMARK  8 active torsions:
REMARK  status: ('A' for Active; 'I' for Inactive)
REMARK    1  A    between atoms: C_1  and  O_2
REMARK    2  A    between atoms: O_2  and  C_3
REMARK    3  A    between atoms: C_3  and  C_4
REMARK    4  A    between atoms: C_4  and  N_5
REMARK    5  A    between atoms: C_6  and  N_14
REMARK    6  A    between atoms: C_15  and  C_17
REMARK    7  A    between atoms: C_17  and  S_18
REMARK    8  A    between atoms: S_18  and  C_19
REMARK                            x       y       z     vdW  Elec       q    Type
REMARK                         _______ _______ _______ _____ _____    ______ ____
ROOT
ATOM      1  N   UNL     1      -2.717   1.740  -0.102  0.00  0.00    -0.271 N 
ATOM      2  C   UNL     1      -1.943   1.382   0.942  0.00  0.00    +0.229 C 
ATOM      3  O   UNL     1      -1.187   0.440   0.841  0.00  0.00    -0.275 OA
ATOM      4  H   UNL     1      -3.268   2.537  -0.046  0.00  0.00    +0.156 HD
ENDROOT
BRANCH   1   6
ATOM      5  N   UNL     1      -1.915   1.305  -2.307  0.00  0.00    -0.279 N 
ATOM      6  C   UNL     1      -2.725   0.975  -1.248  0.00  0.00    +0.114 A 
ATOM      7  C   UNL     1      -3.543  -0.113  -1.343  0.00  0.00    +0.112 A 
ATOM      8  C   UNL     1      -3.527  -0.879  -2.522  0.00  0.00    +0.256 A 
ATOM      9  O   UNL     1      -4.245  -1.858  -2.627  0.00  0.00    -0.268 OA
ATOM     10  N   UNL     1      -2.712  -0.523  -3.535  0.00  0.00    -0.275 N 
ATOM     11  H   UNL     1      -2.699  -1.065  -4.375  0.00  0.00    +0.173 HD
ATOM     12  C   UNL     1      -1.916   0.556  -3.425  0.00  0.00    +0.331 A 
ATOM     13  O   UNL     1      -1.188   0.860  -4.350  0.00  0.00    -0.246 OA
BRANCH   5  14
ATOM     14  C   UNL     1      -1.038   2.475  -2.215  0.00  0.00    +0.156 C 
BRANCH  14  15
ATOM     15  C   UNL     1      -1.728   3.680  -2.857  0.00  0.00    +0.181 C 
BRANCH  15  17
ATOM     16  C   UNL     1      -3.614   5.140  -2.620  0.00  0.00    +0.194 C 
ATOM     17  O   UNL     1      -2.892   4.021  -2.102  0.00  0.00    -0.381 OA
ENDBRANCH  15  17
ENDBRANCH  14  15
ENDBRANCH   5  14
ENDBRANCH   1   6
BRANCH   2  18
ATOM     18  C   UNL     1      -2.018   2.153   2.235  0.00  0.00    +0.173 C 
BRANCH  18  19
ATOM     19  S   UNL     1      -0.868   1.433   3.433  0.00  0.00    -0.075 S 
BRANCH  19  20
ATOM     20  C   UNL     1      -1.155   2.497   4.809  0.00  0.00    +0.212 A 
ATOM     21  N   UNL     1      -0.486   2.297   5.937  0.00  0.00    -0.201 NA
ATOM     22  C   UNL     1      -0.700   3.104   6.972  0.00  0.00    +0.162 A 
ATOM     23  C   UNL     1      -1.645   4.140   6.828  0.00  0.00    +0.137 A 
ATOM     24  C   UNL     1      -1.675   4.855   8.116  0.00  0.00    +0.030 A 
ATOM     25  C   UNL     1      -2.393   5.949   8.591  0.00  0.00    +0.027 A 
ATOM     26  C   UNL     1      -2.192   6.394   9.881  0.00  0.00    +0.019 A 
ATOM     27  C   UNL     1      -1.278   5.754  10.705  0.00  0.00    +0.017 A 
ATOM     28  C   UNL     1      -0.561   4.669  10.247  0.00  0.00    +0.027 A 
ATOM     29  C   UNL     1      -0.750   4.207   8.949  0.00  0.00    +0.050 A 
ATOM     30  N   UNL     1      -0.179   3.161   8.241  0.00  0.00    -0.338 N 
ATOM     31  H   UNL     1       0.493   2.556   8.591  0.00  0.00    +0.167 HD
ATOM     32 BR   UNL     1      -3.166   7.880  10.529  0.00  0.00    -0.050 Br
ATOM     33  N   UNL     1      -2.285   4.284   5.677  0.00  0.00    -0.143 NA
ATOM     34  N   UNL     1      -2.042   3.481   4.698  0.00  0.00    -0.122 NA
ENDBRANCH  19  20
ENDBRANCH  18  19
ENDBRANCH   2  18
TORSDOF 7
