REMARK  Name = ZINC38051353
REMARK  4 active torsions:
REMARK  status: ('A' for Active; 'I' for Inactive)
REMARK    1  A    between atoms: C_3  and  C_10
REMARK    2  A    between atoms: C_5  and  C_7
REMARK    3  A    between atoms: C_10  and  N_11
REMARK    4  A    between atoms: C_18  and  N_21
REMARK                            x       y       z     vdW  Elec       q    Type
REMARK                         _______ _______ _______ _____ _____    ______ ____
ROOT
ATOM      1  N   UNL     1       4.161   2.345   1.352  0.00  0.00    -0.324 N 
ATOM      2  C   UNL     1       3.697   3.481   2.142  0.00  0.00    +0.116 C 
ATOM      3  C   UNL     1       4.919   4.242   2.677  0.00  0.00    +0.093 C 
ATOM      4  S   UNL     1       5.793   3.140   3.830  0.00  0.00    -0.122 S 
ATOM      5  C   UNL     1       5.857   1.609   2.954  0.00  0.00    +0.029 A 
ATOM      6  C   UNL     1       5.045   1.384   1.845  0.00  0.00    +0.045 A 
ATOM      7  C   UNL     1       5.113   0.159   1.187  0.00  0.00    +0.047 A 
ATOM      8  C   UNL     1       5.979  -0.828   1.629  0.00  0.00    +0.026 A 
ATOM      9  C   UNL     1       6.787  -0.600   2.735  0.00  0.00    +0.024 A 
ATOM     10  C   UNL     1       6.730   0.620   3.391  0.00  0.00    +0.018 A 
ENDROOT
BRANCH   8  11
ATOM     11  N   UNL     1       6.040  -2.057   0.961  0.00  0.00    -0.358 N 
ATOM     12  H   UNL     1       5.476  -2.217   0.189  0.00  0.00    +0.142 HD
ATOM     13  H   UNL     1       6.646  -2.748   1.270  0.00  0.00    +0.142 HD
ENDBRANCH   8  11
BRANCH   1  14
ATOM     14  C   UNL     1       3.671   2.203  -0.021  0.00  0.00    +0.140 C 
BRANCH  14  17
ATOM     15  C   UNL     1       6.659   2.588  -2.302  0.00  0.00    +0.001 A 
ATOM     16  C   UNL     1       5.736   2.044  -1.426  0.00  0.00    +0.005 A 
ATOM     17  C   UNL     1       4.670   2.803  -0.976  0.00  0.00    -0.029 A 
ATOM     18  C   UNL     1       4.521   4.107  -1.400  0.00  0.00    +0.018 A 
ATOM     19  C   UNL     1       5.447   4.662  -2.284  0.00  0.00    +0.037 A 
ATOM     20  C   UNL     1       6.521   3.891  -2.733  0.00  0.00    +0.013 A 
BRANCH  19  21
ATOM     21  C   UNL     1       5.293   6.059  -2.742  0.00  0.00    +0.242 C 
ATOM     22  O   UNL     1       4.357   6.727  -2.349  0.00  0.00    -0.270 OA
ATOM     23  N   UNL     1       6.190   6.591  -3.596  0.00  0.00    -0.325 N 
ATOM     24  H   UNL     1       6.937   6.057  -3.910  0.00  0.00    +0.145 HD
ATOM     25  H   UNL     1       6.088   7.507  -3.897  0.00  0.00    +0.145 HD
ENDBRANCH  19  21
ENDBRANCH  14  17
ENDBRANCH   1  14
TORSDOF 4
