REMARK  Name = ZINC13597847
REMARK  6 active torsions:
REMARK  status: ('A' for Active; 'I' for Inactive)
REMARK    1  A    between atoms: C_4  and  C_7
REMARK    2  A    between atoms: C_10  and  C_25
REMARK    3  A    between atoms: C_13  and  C_15
REMARK    4  A    between atoms: C_15  and  S_16
REMARK    5  A    between atoms: S_16  and  C_17
REMARK    6  A    between atoms: C_19  and  N_24
REMARK                            x       y       z     vdW  Elec       q    Type
REMARK                         _______ _______ _______ _____ _____    ______ ____
ROOT
ATOM      1  C   UNL     1       3.711  -0.707  -0.038  0.00  0.00    +0.137 C 
ATOM      2  C   UNL     1       4.051  -1.244   1.367  0.00  0.00    +0.087 C 
ATOM      3  C   UNL     1       4.109  -2.743   1.180  0.00  0.00    +0.069 C 
ATOM      4  N   UNL     1       3.860  -3.033  -0.051  0.00  0.00    -0.181 NA
ATOM      5  N   UNL     1       3.614  -1.923  -0.861  0.00  0.00    -0.184 N 
ATOM      6  C   UNL     1       3.331  -1.956  -2.179  0.00  0.00    +0.246 C 
ATOM      7  O   UNL     1       3.133  -0.924  -2.783  0.00  0.00    -0.273 OA
ENDROOT
BRANCH   3   8
ATOM      8  C   UNL     1       4.403  -3.722   2.242  0.00  0.00    -0.002 A 
ATOM      9  C   UNL     1       4.654  -3.276   3.553  0.00  0.00    +0.010 A 
ATOM     10  C   UNL     1       4.927  -4.159   4.547  0.00  0.00    +0.009 A 
ATOM     11  C   UNL     1       4.964  -5.538   4.274  0.00  0.00    -0.018 A 
ATOM     12  C   UNL     1       5.245  -6.470   5.288  0.00  0.00    +0.008 A 
ATOM     13  C   UNL     1       5.273  -7.799   4.994  0.00  0.00    +0.001 A 
ATOM     14  C   UNL     1       5.027  -8.254   3.700  0.00  0.00    +0.001 A 
ATOM     15  C   UNL     1       4.752  -7.382   2.692  0.00  0.00    +0.008 A 
ATOM     16  C   UNL     1       4.713  -6.001   2.957  0.00  0.00    -0.017 A 
ATOM     17  C   UNL     1       4.427  -5.075   1.943  0.00  0.00    +0.018 A 
ENDBRANCH   3   8
BRANCH   1  21
ATOM     18  C   UNL     1      -0.017   1.378   0.010  0.00  0.00    +0.000 A 
ATOM     19  C   UNL     1       1.171   2.086   0.002  0.00  0.00    +0.000 A 
ATOM     20  C   UNL     1       2.377   1.411  -0.013  0.00  0.00    +0.005 A 
ATOM     21  C   UNL     1       2.396   0.029  -0.020  0.00  0.00    -0.025 A 
ATOM     22  C   UNL     1       1.208  -0.679  -0.012  0.00  0.00    +0.005 A 
ATOM     23  C   UNL     1       0.002  -0.004   0.002  0.00  0.00    +0.000 A 
ENDBRANCH   1  21
BRANCH   6  24
ATOM     24  C   UNL     1       3.263  -3.277  -2.901  0.00  0.00    +0.175 C 
BRANCH  24  25
ATOM     25  S   UNL     1       2.867  -2.991  -4.648  0.00  0.00    -0.078 S 
BRANCH  25  26
ATOM     26  C   UNL     1       2.823  -4.609  -5.345  0.00  0.00    +0.171 A 
ATOM     27  N   UNL     1       3.053  -5.651  -4.573  0.00  0.00    -0.209 NA
ATOM     28  C   UNL     1       3.029  -6.895  -5.064  0.00  0.00    +0.124 A 
ATOM     29  C   UNL     1       2.757  -7.099  -6.410  0.00  0.00    +0.113 A 
ATOM     30  C   UNL     1       2.514  -5.988  -7.223  0.00  0.00    +0.254 A 
ATOM     31  N   UNL     1       2.546  -4.757  -6.671  0.00  0.00    -0.302 N 
ATOM     32  O   UNL     1       2.272  -6.129  -8.412  0.00  0.00    -0.268 OA
ATOM     33  H   UNL     1       2.376  -3.975  -7.220  0.00  0.00    +0.171 HD
BRANCH  28  34
ATOM     34  N   UNL     1       3.274  -7.972  -4.236  0.00  0.00    -0.343 N 
ATOM     35  H   UNL     1       3.463  -7.827  -3.296  0.00  0.00    +0.144 HD
ATOM     36  H   UNL     1       3.256  -8.873  -4.594  0.00  0.00    +0.144 HD
ENDBRANCH  28  34
ENDBRANCH  25  26
ENDBRANCH  24  25
ENDBRANCH   6  24
TORSDOF 6
