REMARK  Name = ZINC37443647
REMARK  7 active torsions:
REMARK  status: ('A' for Active; 'I' for Inactive)
REMARK    1  A    between atoms: C_1  and  C_2
REMARK    2  A    between atoms: C_7  and  N_12
REMARK    3  A    between atoms: C_9  and  C_11
REMARK    4  A    between atoms: C_13  and  C_15
REMARK    5  A    between atoms: C_15  and  C_36
REMARK    6  A    between atoms: N_27  and  C_28
REMARK    7  A    between atoms: C_28  and  C_29
REMARK                            x       y       z     vdW  Elec       q    Type
REMARK                         _______ _______ _______ _____ _____    ______ ____
ROOT
ATOM      1  C   UNL     1      -2.468  -3.797   2.105  0.00  0.00    +0.129 C 
ATOM      2  C   UNL     1      -2.624  -5.264   2.502  0.00  0.00    +0.157 C 
ATOM      3  N   UNL     1      -2.490  -6.103   1.307  0.00  0.00    -0.331 N 
ATOM      4  C   UNL     1      -2.036  -7.381   1.180  0.00  0.00    +0.088 A 
ATOM      5  C   UNL     1      -1.505  -8.510   1.849  0.00  0.00    +0.067 A 
ATOM      6  C   UNL     1      -1.306  -9.465   0.925  0.00  0.00    +0.198 A 
ATOM      7  O   UNL     1      -1.680  -9.006  -0.281  0.00  0.00    -0.461 OA
ATOM      8  C   UNL     1      -2.128  -7.737  -0.166  0.00  0.00    +0.153 A 
ATOM      9  C   UNL     1      -2.645  -6.635  -0.863  0.00  0.00    +0.079 A 
ATOM     10  C   UNL     1      -2.857  -5.640   0.045  0.00  0.00    +0.109 A 
ATOM     11  C   UNL     1      -3.361  -4.273  -0.136  0.00  0.00    +0.264 C 
ATOM     12  O   UNL     1      -3.846  -3.903  -1.190  0.00  0.00    -0.268 OA
ATOM     13  N   UNL     1      -3.258  -3.446   0.931  0.00  0.00    -0.276 N 
ATOM     14  C   UNL     1      -2.910  -2.920   3.278  0.00  0.00    +0.043 C 
ENDROOT
BRANCH   1  16
ATOM     15  N   UNL     1      -0.526  -3.726   0.574  0.00  0.00    -0.310 N 
ATOM     16  C   UNL     1      -1.015  -3.522   1.813  0.00  0.00    +0.238 C 
ATOM     17  O   UNL     1      -0.285  -3.119   2.694  0.00  0.00    -0.273 OA
ATOM     18  H   UNL     1      -1.089  -4.119  -0.111  0.00  0.00    +0.149 HD
BRANCH  15  24
ATOM     19  C   UNL     1       0.848  -4.424  -3.438  0.00  0.00    +0.008 C 
ATOM     20  C   UNL     1       0.686  -4.557  -1.922  0.00  0.00    -0.009 C 
ATOM     21  C   UNL     1       1.635  -5.637  -1.401  0.00  0.00    +0.003 C 
ATOM     22  C   UNL     1       1.474  -5.770   0.115  0.00  0.00    +0.002 C 
ATOM     23  C   UNL     1       1.805  -4.434   0.783  0.00  0.00    +0.022 C 
ATOM     24  C   UNL     1       0.856  -3.354   0.261  0.00  0.00    +0.076 C 
ATOM     25  C   UNL     1       1.018  -3.221  -1.254  0.00  0.00    +0.009 C 
ATOM     26  C   UNL     1       0.068  -2.140  -1.776  0.00  0.00    +0.009 C 
ENDBRANCH  15  24
ENDBRANCH   1  16
BRANCH  13  27
ATOM     27  C   UNL     1      -3.962  -2.162   0.905  0.00  0.00    +0.144 C 
BRANCH  27  28
ATOM     28  C   UNL     1      -3.113  -1.138   0.196  0.00  0.00    -0.030 A 
ATOM     29  C   UNL     1      -2.132  -0.454   0.889  0.00  0.00    +0.008 A 
ATOM     30  C   UNL     1      -1.353   0.485   0.240  0.00  0.00    +0.038 A 
ATOM     31  C   UNL     1      -1.554   0.739  -1.106  0.00  0.00    +0.123 A 
ATOM     32  C   UNL     1      -2.536   0.053  -1.800  0.00  0.00    +0.038 A 
ATOM     33  C   UNL     1      -3.311  -0.889  -1.150  0.00  0.00    +0.008 A 
ATOM     34  F   UNL     1      -0.793   1.657  -1.742  0.00  0.00    -0.205 F 
ENDBRANCH  27  28
ENDBRANCH  13  27
TORSDOF 4
