REMARK  Name = ZINC36006835
REMARK  7 active torsions:
REMARK  status: ('A' for Active; 'I' for Inactive)
REMARK    1  A    between atoms: C_1  and  C_2
REMARK    2  A    between atoms: C_2  and  N_3
REMARK    3  A    between atoms: C_5  and  C_9
REMARK    4  A    between atoms: C_6  and  C_8
REMARK    5  A    between atoms: N_10  and  N_11
REMARK    6  A    between atoms: C_17  and  C_33
REMARK    7  A    between atoms: C_30  and  O_32
REMARK                            x       y       z     vdW  Elec       q    Type
REMARK                         _______ _______ _______ _____ _____    ______ ____
ROOT
ATOM      1  N   UNL     1       2.037  -3.336   6.183  0.00  0.00    -0.158 NA
ATOM      2  C   UNL     1       3.036  -3.422   7.001  0.00  0.00    +0.047 C 
ATOM      3  C   UNL     1       4.372  -2.694   6.899  0.00  0.00    +0.053 C 
ATOM      4  C   UNL     1       5.177  -3.062   8.175  0.00  0.00    +0.010 C 
ATOM      5  C   UNL     1       4.072  -3.452   9.166  0.00  0.00    +0.005 C 
ATOM      6  C   UNL     1       3.115  -4.254   8.245  0.00  0.00    +0.011 C 
ATOM      7  C   UNL     1       1.825  -4.492   9.002  0.00  0.00    +0.013 C 
ATOM      8  C   UNL     1       2.157  -5.369  10.225  0.00  0.00    +0.009 C 
ATOM      9  C   UNL     1       3.219  -4.705  11.090  0.00  0.00    +0.023 C 
ATOM     10  C   UNL     1       4.489  -4.382  10.287  0.00  0.00    +0.001 C 
ATOM     11  C   UNL     1       5.487  -3.716  11.235  0.00  0.00    +0.009 C 
ATOM     12  C   UNL     1       5.997  -4.775  12.212  0.00  0.00    +0.036 C 
ATOM     13  C   UNL     1       4.861  -5.563  12.808  0.00  0.00    -0.040 A 
ATOM     14  C   UNL     1       3.584  -5.554  12.273  0.00  0.00    -0.041 A 
ATOM     15  C   UNL     1       2.589  -6.321  12.864  0.00  0.00    +0.008 A 
ATOM     16  C   UNL     1       2.868  -7.112  13.958  0.00  0.00    +0.046 A 
ATOM     17  C   UNL     1       4.155  -7.141  14.474  0.00  0.00    +0.117 A 
ATOM     18  C   UNL     1       5.133  -6.341  13.925  0.00  0.00    +0.049 A 
ATOM     19  C   UNL     1       3.752  -5.604   7.913  0.00  0.00    +0.018 C 
ENDROOT
BRANCH   1  21
ATOM     20  C   UNL     1       1.115  -2.419   4.231  0.00  0.00    +0.146 C 
ATOM     21  N   UNL     1       2.123  -2.507   5.056  0.00  0.00    -0.157 NA
BRANCH  20  24
ATOM     22  N   UNL     1       0.711  -0.489   1.189  0.00  0.00    -0.271 N 
ATOM     23  C   UNL     1       0.225  -1.357   2.094  0.00  0.00    +0.118 A 
ATOM     24  C   UNL     1       1.205  -1.549   3.049  0.00  0.00    +0.035 A 
ATOM     25  C   UNL     1       2.312  -0.752   2.676  0.00  0.00    +0.069 A 
ATOM     26  N   UNL     1       2.009  -0.133   1.569  0.00  0.00    -0.176 NA
ATOM     27  C   UNL     1       3.616  -0.643   3.424  0.00  0.00    +0.068 C 
BRANCH  22  29
ATOM     28  C   UNL     1      -0.019   1.526   0.010  0.00  0.00    +0.029 C 
ATOM     29  C   UNL     1       0.002  -0.004   0.002  0.00  0.00    +0.140 C 
ENDBRANCH  22  29
ENDBRANCH  20  24
ENDBRANCH   1  21
BRANCH  17  30
ATOM     30  O   UNL     1       4.441  -7.913  15.555  0.00  0.00    -0.507 OA
ATOM     31  H   UNL     1       4.722  -8.811  15.333  0.00  0.00    +0.292 HD
ENDBRANCH  17  30
TORSDOF 4
