REMARK  Name = ZINC33721093
REMARK  10 active torsions:
REMARK  status: ('A' for Active; 'I' for Inactive)
REMARK    1  A    between atoms: C_1  and  C_2
REMARK    2  A    between atoms: C_2  and  C_4
REMARK    3  A    between atoms: C_4  and  O_32
REMARK    4  A    between atoms: C_8  and  O_23
REMARK    5  A    between atoms: C_11  and  O_12
REMARK    6  A    between atoms: C_24  and  O_27
REMARK    7  A    between atoms: O_27  and  C_28
REMARK    8  A    between atoms: C_28  and  C_29
REMARK    9  A    between atoms: C_28  and  C_30
REMARK   10  A    between atoms: C_28  and  C_31
REMARK                            x       y       z     vdW  Elec       q    Type
REMARK                         _______ _______ _______ _____ _____    ______ ____
ROOT
ATOM      1  C   UNL     1      -2.608   1.752  -0.843  0.00  0.00    +0.130 C 
ATOM      2  C   UNL     1      -2.640   2.811  -1.942  0.00  0.00    +0.082 C 
ATOM      3  C   UNL     1      -1.400   2.731  -2.795  0.00  0.00    +0.007 A 
ATOM      4  C   UNL     1      -0.266   2.077  -2.388  0.00  0.00    +0.030 A 
ATOM      5  C   UNL     1       0.862   2.039  -3.221  0.00  0.00    +0.134 A 
ATOM      6  C   UNL     1       0.841   2.660  -4.468  0.00  0.00    +0.078 A 
ATOM      7  C   UNL     1      -0.327   3.329  -4.888  0.00  0.00    +0.078 A 
ATOM      8  C   UNL     1      -1.438   3.359  -4.047  0.00  0.00    +0.132 A 
ATOM      9  C   UNL     1      -0.366   3.990  -6.204  0.00  0.00    +0.198 C 
ATOM     10  O   UNL     1      -1.374   4.566  -6.566  0.00  0.00    -0.286 OA
ATOM     11  C   UNL     1       0.821   3.952  -7.083  0.00  0.00    +0.033 A 
ATOM     12  C   UNL     1       0.793   4.576  -8.328  0.00  0.00    +0.012 A 
ATOM     13  C   UNL     1       1.909   4.535  -9.144  0.00  0.00    +0.001 A 
ATOM     14  C   UNL     1       3.054   3.877  -8.733  0.00  0.00    +0.001 A 
ATOM     15  C   UNL     1       3.099   3.252  -7.500  0.00  0.00    +0.012 A 
ATOM     16  C   UNL     1       1.986   3.284  -6.665  0.00  0.00    +0.033 A 
ATOM     17  C   UNL     1       2.024   2.620  -5.345  0.00  0.00    +0.198 C 
ATOM     18  O   UNL     1       3.031   2.042  -4.983  0.00  0.00    -0.286 OA
ATOM     19  C   UNL     1      -0.165   1.378  -1.056  0.00  0.00    +0.156 C 
ATOM     20  C   UNL     1      -1.264   1.858  -0.111  0.00  0.00    +0.079 C 
ENDROOT
BRANCH   1  22
ATOM     21  C   UNL     1      -5.069   1.329  -0.086  0.00  0.00    +0.089 C 
ATOM     22  C   UNL     1      -3.735   1.994   0.129  0.00  0.00    +0.162 C 
ATOM     23  O   UNL     1      -3.568   2.721   1.078  0.00  0.00    -0.295 OA
ENDBRANCH   1  22
BRANCH   8  24
ATOM     24  O   UNL     1      -2.565   4.000  -4.444  0.00  0.00    -0.506 OA
ATOM     25  H   UNL     1      -2.599   4.494  -5.426  0.00  0.00    +0.292 HD
ENDBRANCH   8  24
BRANCH   5  26
ATOM     26  O   UNL     1       1.981   1.393  -2.810  0.00  0.00    -0.506 OA
ATOM     27  H   UNL     1       2.867   1.361  -3.461  0.00  0.00    +0.292 HD
ENDBRANCH   5  26
BRANCH   1  28
ATOM     28  O   UNL     1      -2.740   0.452  -1.421  0.00  0.00    -0.381 OA
ATOM     29  H   UNL     1      -2.003   0.100  -2.157  0.00  0.00    +0.211 HD
ENDBRANCH   1  28
BRANCH  19  30
ATOM     30  O   UNL     1       1.111   1.655  -0.474  0.00  0.00    -0.366 OA
BRANCH  30  31
ATOM     31  C   UNL     1       1.637   0.583   0.311  0.00  0.00    +0.062 C 
ATOM     32  C   UNL     1       1.876  -0.634  -0.584  0.00  0.00    +0.041 C 
ATOM     33  C   UNL     1       2.959   1.017   0.946  0.00  0.00    +0.041 C 
ATOM     34  C   UNL     1       0.638   0.219   1.411  0.00  0.00    +0.041 C 
ENDBRANCH  30  31
ENDBRANCH  19  30
TORSDOF 6
