REMARK  Name = ZINC35485699
REMARK  6 active torsions:
REMARK  status: ('A' for Active; 'I' for Inactive)
REMARK    1  A    between atoms: C_1  and  C_2
REMARK    2  A    between atoms: C_16  and  C_18
REMARK    3  A    between atoms: C_21  and  O_24
REMARK    4  A    between atoms: O_24  and  C_25
REMARK    5  A    between atoms: C_25  and  C_26
REMARK    6  A    between atoms: C_32  and  C_34
REMARK                            x       y       z     vdW  Elec       q    Type
REMARK                         _______ _______ _______ _____ _____    ______ ____
ROOT
ATOM      1  C   UNL     1      -0.018   1.503   0.010  0.00  0.00    +0.044 C 
ATOM      2  C   UNL     1       0.002  -0.004   0.002  0.00  0.00    -0.050 A 
ATOM      3  C   UNL     1       0.006  -0.689  -1.205  0.00  0.00    +0.007 A 
ATOM      4  C   UNL     1       0.022  -2.065  -1.235  0.00  0.00    +0.047 A 
ATOM      5  C   UNL     1       0.035  -2.790  -0.043  0.00  0.00    +0.139 A 
ATOM      6  C   UNL     1       0.037  -2.086   1.172  0.00  0.00    +0.065 A 
ATOM      7  C   UNL     1       0.023  -0.692   1.183  0.00  0.00    +0.018 A 
ATOM      8  C   UNL     1       0.067  -2.849   2.446  0.00  0.00    +0.199 A 
ATOM      9  O   UNL     1      -0.098  -2.332   3.537  0.00  0.00    -0.287 OA
ATOM     10  C   UNL     1       0.313  -4.283   2.266  0.00  0.00    +0.072 A 
ATOM     11  C   UNL     1       0.294  -4.850   1.023  0.00  0.00    +0.199 A 
ATOM     12  O   UNL     1       0.043  -4.142  -0.096  0.00  0.00    -0.450 OA
ATOM     13  C   UNL     1       0.582  -6.287   1.166  0.00  0.00    +0.289 C 
ATOM     14  O   UNL     1       0.643  -7.080   0.247  0.00  0.00    -0.266 OA
ATOM     15  N   UNL     1       0.769  -6.595   2.466  0.00  0.00    -0.230 N 
ATOM     16  C   UNL     1       0.613  -5.362   3.254  0.00  0.00    +0.151 C 
ATOM     17  C   UNL     1       1.059  -7.856   2.972  0.00  0.00    +0.191 A 
ATOM     18  N   UNL     1       1.251  -8.249   4.223  0.00  0.00    -0.125 NA
ATOM     19  N   UNL     1       1.508  -9.450   4.511  0.00  0.00    -0.145 NA
ATOM     20  C   UNL     1       1.603 -10.388   3.590  0.00  0.00    +0.101 A 
ATOM     21  S   UNL     1       1.272  -9.417   2.122  0.00  0.00    -0.035 S 
ATOM     22  C   UNL     1       1.898 -11.859   3.732  0.00  0.00    +0.075 C 
ENDROOT
BRANCH  16  23
ATOM     23  C   UNL     1      -0.529  -5.508   4.227  0.00  0.00    -0.022 A 
ATOM     24  C   UNL     1      -1.657  -6.219   3.865  0.00  0.00    +0.009 A 
ATOM     25  C   UNL     1      -2.706  -6.354   4.754  0.00  0.00    +0.046 A 
ATOM     26  C   UNL     1      -2.625  -5.775   6.012  0.00  0.00    +0.121 A 
ATOM     27  C   UNL     1      -1.491  -5.061   6.373  0.00  0.00    +0.046 A 
ATOM     28  C   UNL     1      -0.443  -4.934   5.482  0.00  0.00    +0.009 A 
BRANCH  26  29
ATOM     29  O   UNL     1      -3.655  -5.905   6.889  0.00  0.00    -0.483 OA
BRANCH  29  30
ATOM     30  C   UNL     1      -3.502  -5.283   8.166  0.00  0.00    +0.324 C 
BRANCH  30  31
ATOM     31  C   UNL     1      -4.734  -5.533   8.998  0.00  0.00    +0.248 C 
ATOM     32  O   UNL     1      -5.652  -6.180   8.541  0.00  0.00    -0.272 OA
ATOM     33  N   UNL     1      -4.816  -5.037  10.248  0.00  0.00    -0.327 N 
ATOM     34  H   UNL     1      -4.081  -4.519  10.613  0.00  0.00    +0.145 HD
ATOM     35  H   UNL     1      -5.609  -5.198  10.783  0.00  0.00    +0.145 HD
ENDBRANCH  30  31
ENDBRANCH  29  30
ENDBRANCH  26  29
ENDBRANCH  16  23
TORSDOF 4
