REMARK  Name = ZINC07227834
REMARK  7 active torsions:
REMARK  status: ('A' for Active; 'I' for Inactive)
REMARK    1  A    between atoms: C_1  and  C_2
REMARK    2  A    between atoms: C_2  and  C_4
REMARK    3  A    between atoms: C_2  and  S_19
REMARK    4  A    between atoms: C_16  and  C_17
REMARK    5  A    between atoms: C_16  and  C_18
REMARK    6  A    between atoms: S_19  and  C_20
REMARK    7  A    between atoms: C_23  and  C_25
REMARK                            x       y       z     vdW  Elec       q    Type
REMARK                         _______ _______ _______ _____ _____    ______ ____
ROOT
ATOM      1  C   UNL     1      -0.696  -0.898   0.396  0.00  0.00    +0.234 C 
ATOM      2  O   UNL     1      -0.841  -1.757  -0.448  0.00  0.00    -0.274 OA
ATOM      3  N   UNL     1      -1.642  -0.711   1.337  0.00  0.00    -0.255 N 
ATOM      4  C   UNL     1      -2.886  -1.357   1.252  0.00  0.00    +0.059 A 
ATOM      5  C   UNL     1      -3.434  -1.691   0.027  0.00  0.00    +0.025 A 
ATOM      6  C   UNL     1      -4.664  -2.323  -0.025  0.00  0.00    +0.002 A 
ATOM      7  C   UNL     1      -5.343  -2.620   1.143  0.00  0.00    +0.002 A 
ATOM      8  C   UNL     1      -4.800  -2.289   2.371  0.00  0.00    +0.025 A 
ATOM      9  C   UNL     1      -3.567  -1.658   2.432  0.00  0.00    +0.055 A 
ATOM     10  N   UNL     1      -2.994  -1.325   3.664  0.00  0.00    -0.282 N 
ATOM     11  C   UNL     1      -1.950  -0.479   3.731  0.00  0.00    +0.241 C 
ATOM     12  O   UNL     1      -1.440  -0.239   4.806  0.00  0.00    -0.273 OA
ATOM     13  C   UNL     1      -1.403   0.170   2.490  0.00  0.00    +0.113 C 
ATOM     14  C   UNL     1       0.101   0.402   2.654  0.00  0.00    +0.042 C 
ATOM     15  C   UNL     1      -2.107   1.510   2.265  0.00  0.00    +0.042 C 
ATOM     16  H   UNL     1      -3.354  -1.709   4.480  0.00  0.00    +0.155 HD
ENDROOT
BRANCH   1  18
ATOM     17  C   UNL     1       0.152   1.419   0.147  0.00  0.00    +0.029 C 
ATOM     18  C   UNL     1       0.543  -0.040   0.393  0.00  0.00    +0.139 C 
BRANCH  18  19
ATOM     19  S   UNL     1       1.661  -0.596  -0.923  0.00  0.00    -0.053 S 
BRANCH  19  20
ATOM     20  C   UNL     1       3.103   0.393  -0.704  0.00  0.00    +0.278 A 
ATOM     21  N   UNL     1       3.284   1.308   0.220  0.00  0.00    -0.101 NA
ATOM     22  N   UNL     1       4.452   1.830   0.081  0.00  0.00    -0.106 NA
ATOM     23  C   UNL     1       5.062   1.270  -0.935  0.00  0.00    +0.249 A 
ATOM     24  O   UNL     1       4.223   0.344  -1.450  0.00  0.00    -0.411 OA
BRANCH  23  25
ATOM     25  C   UNL     1       6.420   1.588  -1.424  0.00  0.00    +0.039 A 
ATOM     26  C   UNL     1       6.944   0.913  -2.528  0.00  0.00    +0.013 A 
ATOM     27  C   UNL     1       8.212   1.215  -2.979  0.00  0.00    +0.001 A 
ATOM     28  C   UNL     1       8.964   2.185  -2.340  0.00  0.00    +0.000 A 
ATOM     29  C   UNL     1       8.451   2.858  -1.245  0.00  0.00    +0.001 A 
ATOM     30  C   UNL     1       7.182   2.570  -0.787  0.00  0.00    +0.013 A 
ENDBRANCH  23  25
ENDBRANCH  19  20
ENDBRANCH  18  19
ENDBRANCH   1  18
TORSDOF 4
