REMARK  Name = ZINC03311062
REMARK  12 active torsions:
REMARK  status: ('A' for Active; 'I' for Inactive)
REMARK    1  A    between atoms: C_1  and  C_2
REMARK    2  A    between atoms: C_5  and  S_9
REMARK    3  A    between atoms: C_7  and  C_8
REMARK    4  A    between atoms: S_9  and  N_12
REMARK    5  A    between atoms: N_12  and  C_13
REMARK    6  A    between atoms: C_13  and  C_14
REMARK    7  A    between atoms: N_16  and  C_17
REMARK    8  A    between atoms: C_17  and  C_18
REMARK    9  A    between atoms: N_20  and  N_21
REMARK   10  A    between atoms: C_22  and  C_24
REMARK   11  A    between atoms: C_26  and  C_30
REMARK   12  A    between atoms: C_28  and  C_29
REMARK                            x       y       z     vdW  Elec       q    Type
REMARK                         _______ _______ _______ _____ _____    ______ ____
ROOT
ATOM      1  C   UNL     1       2.385   0.791   0.351  0.00  0.00    +0.229 C 
ATOM      2  O   UNL     1       2.166  -0.378   0.586  0.00  0.00    -0.274 OA
ATOM      3  N   UNL     1       3.646   1.265   0.406  0.00  0.00    -0.306 N 
ATOM      4  H   UNL     1       3.821   2.200   0.218  0.00  0.00    +0.149 HD
ENDROOT
BRANCH   1   5
ATOM      5  C   UNL     1       1.248   1.716  -0.001  0.00  0.00    +0.201 C 
BRANCH   5   6
ATOM      6  N   UNL     1      -0.011   0.966   0.007  0.00  0.00    -0.181 NA
ATOM      7  H   UNL     1       0.002  -0.004   0.002  0.00  0.00    +0.149 HD
BRANCH   6   8
ATOM      8  S   UNL     1      -1.456   1.774   0.019  0.00  0.00    +0.059 S 
ATOM      9  O   UNL     1      -2.475   0.784  -0.009  0.00  0.00    -0.153 OA
ATOM     10  O   UNL     1      -1.369   2.749   1.049  0.00  0.00    -0.153 OA
BRANCH   8  15
ATOM     11  C   UNL     1      -1.849   4.799  -5.187  0.00  0.00    +0.044 C 
ATOM     12  C   UNL     1      -1.751   4.044  -3.887  0.00  0.00    -0.047 A 
ATOM     13  C   UNL     1      -1.174   4.642  -2.782  0.00  0.00    +0.005 A 
ATOM     14  C   UNL     1      -1.089   3.951  -1.588  0.00  0.00    +0.029 A 
ATOM     15  C   UNL     1      -1.571   2.658  -1.502  0.00  0.00    +0.106 A 
ATOM     16  C   UNL     1      -2.148   2.060  -2.606  0.00  0.00    +0.032 A 
ATOM     17  C   UNL     1      -2.238   2.753  -3.799  0.00  0.00    -0.046 A 
ATOM     18  C   UNL     1      -2.867   2.102  -5.004  0.00  0.00    +0.044 C 
ENDBRANCH   8  15
ENDBRANCH   6   8
ENDBRANCH   5   6
ENDBRANCH   1   5
BRANCH   3  19
ATOM     19  C   UNL     1       4.751   0.367   0.748  0.00  0.00    +0.201 C 
BRANCH  19  20
ATOM     20  C   UNL     1       6.046   1.138   0.739  0.00  0.00    +0.246 C 
ATOM     21  O   UNL     1       6.045   2.321   0.474  0.00  0.00    -0.273 OA
ATOM     22  N   UNL     1       7.205   0.512   1.027  0.00  0.00    -0.233 N 
ATOM     23  H   UNL     1       7.205  -0.434   1.240  0.00  0.00    +0.173 HD
BRANCH  22  24
ATOM     24  N   UNL     1       8.408   1.229   1.020  0.00  0.00    -0.230 N 
ATOM     25  C   UNL     1       9.567   0.604   1.307  0.00  0.00    +0.263 C 
ATOM     26  O   UNL     1       9.568  -0.583   1.573  0.00  0.00    -0.269 OA
ATOM     27  H   UNL     1       8.408   2.176   0.807  0.00  0.00    +0.173 HD
BRANCH  25  28
ATOM     28  C   UNL     1      10.833   1.358   1.299  0.00  0.00    +0.079 A 
ATOM     29  C   UNL     1      11.016   2.785   0.996  0.00  0.00    +0.057 A 
ATOM     30  C   UNL     1      12.331   3.023   1.117  0.00  0.00    +0.103 A 
ATOM     31  O   UNL     1      12.954   1.882   1.452  0.00  0.00    -0.464 OA
ATOM     32  C   UNL     1      12.081   0.877   1.566  0.00  0.00    +0.114 A 
ATOM     33  C   UNL     1      12.418  -0.546   1.929  0.00  0.00    +0.087 C 
ATOM     34  C   UNL     1      13.001   4.355   0.903  0.00  0.00    +0.086 C 
ENDBRANCH  25  28
ENDBRANCH  22  24
ENDBRANCH  19  20
ENDBRANCH   3  19
TORSDOF 8
