REMARK  Name = ZINC44496935
REMARK  5 active torsions:
REMARK  status: ('A' for Active; 'I' for Inactive)
REMARK    1  A    between atoms: C_1  and  C_2
REMARK    2  A    between atoms: C_2  and  C_4
REMARK    3  A    between atoms: C_2  and  N_10
REMARK    4  A    between atoms: N_7  and  C_9
REMARK    5  A    between atoms: N_10  and  C_11
REMARK                            x       y       z     vdW  Elec       q    Type
REMARK                         _______ _______ _______ _____ _____    ______ ____
ROOT
ATOM      1  C   UNL     1       0.026  -0.639   2.400  0.00  0.00    +0.050 A 
ATOM      2  C   UNL     1      -1.327  -0.332   2.475  0.00  0.00    +0.072 A 
ATOM      3  C   UNL     1      -2.001  -0.481   3.673  0.00  0.00    +0.144 A 
ATOM      4  C   UNL     1      -1.322  -0.937   4.802  0.00  0.00    +0.077 A 
ATOM      5  C   UNL     1       0.026  -1.243   4.726  0.00  0.00    +0.048 A 
ATOM      6  C   UNL     1       0.699  -1.099   3.525  0.00  0.00    +0.064 A 
ATOM      7 CL   UNL     1       2.388  -1.489   3.426  0.00  0.00    -0.082 Cl
ATOM      8  N   UNL     1      -2.022  -1.081   6.012  0.00  0.00    -0.280 N 
ATOM      9  C   UNL     1      -3.372  -1.084   5.990  0.00  0.00    +0.255 C 
ATOM     10  O   UNL     1      -3.998  -1.175   7.026  0.00  0.00    -0.272 OA
ATOM     11  C   UNL     1      -4.099  -0.972   4.674  0.00  0.00    +0.325 C 
ATOM     12  O   UNL     1      -3.326  -0.186   3.763  0.00  0.00    -0.481 OA
ATOM     13  H   UNL     1      -1.542  -1.177   6.849  0.00  0.00    +0.155 HD
ENDROOT
BRANCH   1  14
ATOM     14  N   UNL     1       0.711  -0.489   1.189  0.00  0.00    -0.336 N 
ATOM     15  H   UNL     1       1.654  -0.707   1.135  0.00  0.00    +0.147 HD
BRANCH  14  17
ATOM     16  C   UNL     1      -0.019   1.526   0.010  0.00  0.00    +0.033 C 
ATOM     17  C   UNL     1       0.002  -0.004   0.002  0.00  0.00    +0.101 C 
BRANCH  17  18
ATOM     18  C   UNL     1       0.707  -0.490  -1.238  0.00  0.00    +0.010 A 
ATOM     19  C   UNL     1       2.092  -0.565  -1.421  0.00  0.00    +0.139 A 
ATOM     20  N   UNL     1       2.321  -1.035  -2.620  0.00  0.00    -0.180 NA
ATOM     21  N   UNL     1       1.087  -1.274  -3.240  0.00  0.00    -0.274 N 
ATOM     22  C   UNL     1       0.113  -0.936  -2.369  0.00  0.00    +0.113 A 
ATOM     23  C   UNL     1       0.889  -1.802  -4.592  0.00  0.00    +0.172 C 
ENDBRANCH  17  18
ENDBRANCH  14  17
ENDBRANCH   1  14
TORSDOF 3
