REMARK  Name = ZINC42013907
REMARK  3 active torsions:
REMARK  status: ('A' for Active; 'I' for Inactive)
REMARK    1  A    between atoms: C_3  and  N_20
REMARK    2  A    between atoms: C_6  and  C_7
REMARK    3  A    between atoms: N_11  and  C_12
REMARK                            x       y       z     vdW  Elec       q    Type
REMARK                         _______ _______ _______ _____ _____    ______ ____
ROOT
ATOM      1  C   UNL     1      -1.242  -0.906   0.329  0.00  0.00    +0.187 A 
ATOM      2  N   UNL     1      -2.433  -0.392   0.564  0.00  0.00    -0.108 NA
ATOM      3  N   UNL     1      -3.352  -1.140   0.071  0.00  0.00    -0.022 NA
ATOM      4  N   UNL     1      -2.836  -2.170  -0.507  0.00  0.00    -0.039 NA
ATOM      5  N   UNL     1      -1.441  -2.061  -0.369  0.00  0.00    -0.190 N 
ENDROOT
BRANCH   5   6
ATOM      6  C   UNL     1      -0.465  -2.948  -0.846  0.00  0.00    +0.105 A 
ATOM      7  C   UNL     1       0.518  -2.498  -1.717  0.00  0.00    +0.032 A 
ATOM      8  C   UNL     1       1.479  -3.373  -2.184  0.00  0.00    +0.017 A 
ATOM      9  C   UNL     1       1.463  -4.699  -1.786  0.00  0.00    +0.021 A 
ATOM     10  C   UNL     1       0.485  -5.151  -0.918  0.00  0.00    +0.055 A 
ATOM     11  C   UNL     1      -0.476  -4.278  -0.442  0.00  0.00    +0.150 A 
ATOM     12  F   UNL     1      -1.428  -4.719   0.410  0.00  0.00    -0.203 F 
ATOM     13 BR   UNL     1       2.780  -5.893  -2.429  0.00  0.00    -0.050 Br
ENDBRANCH   5   6
BRANCH   1  19
ATOM     14  C   UNL     1       0.157   1.014   1.076  0.00  0.00    +0.013 A 
ATOM     15  C   UNL     1       1.371   1.542   1.458  0.00  0.00    +0.023 A 
ATOM     16  C   UNL     1       2.499   0.729   1.508  0.00  0.00    +0.025 A 
ATOM     17  C   UNL     1       2.404  -0.617   1.172  0.00  0.00    +0.023 A 
ATOM     18  C   UNL     1       1.193  -1.150   0.790  0.00  0.00    +0.013 A 
ATOM     19  C   UNL     1       0.059  -0.337   0.739  0.00  0.00    +0.021 A 
BRANCH  16  20
ATOM     20  N   UNL     1       3.726   1.266   1.894  0.00  0.00    -0.358 N 
ATOM     21  H   UNL     1       3.793   2.205   2.128  0.00  0.00    +0.142 HD
ATOM     22  H   UNL     1       4.513   0.700   1.929  0.00  0.00    +0.142 HD
ENDBRANCH  16  20
ENDBRANCH   1  19
TORSDOF 3
