REMARK  Name = ZINC64517572
REMARK  8 active torsions:
REMARK  status: ('A' for Active; 'I' for Inactive)
REMARK    1  A    between atoms: C_1  and  C_2
REMARK    2  A    between atoms: C_2  and  C_3
REMARK    3  A    between atoms: C_5  and  C_10
REMARK    4  A    between atoms: C_6  and  C_9
REMARK    5  A    between atoms: N_15  and  C_16
REMARK    6  A    between atoms: C_16  and  C_17
REMARK    7  A    between atoms: C_22  and  C_23
REMARK    8  A    between atoms: C_26  and  C_29
REMARK                            x       y       z     vdW  Elec       q    Type
REMARK                         _______ _______ _______ _____ _____    ______ ____
ROOT
ATOM      1  C   UNL     1      -0.571  -2.855  -1.407  0.00  0.00    +0.087 C 
ATOM      2  C   UNL     1      -1.333  -2.551  -2.715  0.00  0.00    +0.025 C 
ATOM      3  C   UNL     1      -2.819  -2.606  -2.274  0.00  0.00    +0.017 C 
ATOM      4  C   UNL     1      -2.744  -2.012  -0.845  0.00  0.00    +0.085 C 
ATOM      5  N   UNL     1      -1.472  -2.529  -0.287  0.00  0.00    -0.295 NA
ENDROOT
BRANCH   1   7
ATOM      6  C   UNL     1       0.718  -0.497  -1.257  0.00  0.00    +0.177 C 
ATOM      7  C   UNL     1       0.672  -2.006  -1.329  0.00  0.00    -0.001 C 
ATOM      8  C   UNL     1       1.913  -2.446  -1.311  0.00  0.00    +0.039 C 
ATOM      9  N   UNL     1       2.812  -1.399  -1.234  0.00  0.00    -0.269 N 
ATOM     10  O   UNL     1       2.113  -0.165  -1.199  0.00  0.00    -0.267 OA
ATOM     11  C   UNL     1       2.301  -3.901  -1.367  0.00  0.00    +0.065 C 
ATOM     12  H   UNL     1       3.777  -1.494  -1.208  0.00  0.00    +0.194 HD
BRANCH   6  14
ATOM     13  C   UNL     1      -0.019   1.526   0.010  0.00  0.00    +0.007 C 
ATOM     14  C   UNL     1       0.002  -0.004   0.002  0.00  0.00    +0.035 C 
ENDBRANCH   6  14
ENDBRANCH   1   7
BRANCH   5  15
ATOM     15  C   UNL     1      -1.705  -3.705   0.561  0.00  0.00    +0.100 C 
BRANCH  15  16
ATOM     16  C   UNL     1      -2.432  -3.278   1.838  0.00  0.00    +0.097 C 
ATOM     17  C   UNL     1      -1.523  -2.440   2.715  0.00  0.00    +0.118 C 
ATOM     18  N   UNL     1      -1.393  -3.093   3.824  0.00  0.00    -0.161 NA
ATOM     19  N   UNL     1      -2.103  -4.288   3.825  0.00  0.00    -0.153 NA
ATOM     20  C   UNL     1      -2.746  -4.483   2.703  0.00  0.00    +0.080 C 
BRANCH  20  21
ATOM     21  C   UNL     1      -3.598  -5.631   2.350  0.00  0.00    -0.001 A 
ATOM     22  C   UNL     1      -4.214  -5.690   1.096  0.00  0.00    +0.010 A 
ATOM     23  C   UNL     1      -5.010  -6.768   0.773  0.00  0.00    +0.004 A 
ATOM     24  C   UNL     1      -5.200  -7.791   1.687  0.00  0.00    -0.050 A 
ATOM     25  C   UNL     1      -4.594  -7.739   2.930  0.00  0.00    +0.004 A 
ATOM     26  C   UNL     1      -3.790  -6.670   3.265  0.00  0.00    +0.010 A 
ATOM     27  C   UNL     1      -6.072  -8.966   1.326  0.00  0.00    +0.044 C 
ENDBRANCH  20  21
ENDBRANCH  15  16
ENDBRANCH   5  15
TORSDOF 5
