REMARK  Name = ZINC39698126
REMARK  3 active torsions:
REMARK  status: ('A' for Active; 'I' for Inactive)
REMARK    1  A    between atoms: C_6  and  C_7
REMARK    2  A    between atoms: N_8  and  N_9
REMARK    3  A    between atoms: C_10  and  C_12
REMARK                            x       y       z     vdW  Elec       q    Type
REMARK                         _______ _______ _______ _____ _____    ______ ____
ROOT
ATOM      1  N   UNL     1      -2.443  -2.780   0.011  0.00  0.00    -0.203 N 
ATOM      2  C   UNL     1      -2.422  -4.128   0.004  0.00  0.00    +0.262 C 
ATOM      3  O   UNL     1      -1.357  -4.719  -0.010  0.00  0.00    -0.269 OA
ATOM      4  H   UNL     1      -3.291  -2.309   0.022  0.00  0.00    +0.178 HD
ENDROOT
BRANCH   2   5
ATOM      5  C   UNL     1      -3.675  -4.879   0.012  0.00  0.00    +0.045 C 
ATOM      6  C   UNL     1      -3.701  -6.246   0.011  0.00  0.00    +0.011 C 
ATOM      7  C   UNL     1      -4.911  -6.962   0.018  0.00  0.00    +0.001 C 
ATOM      8  C   UNL     1      -6.123  -6.397  -0.229  0.00  0.00    +0.006 C 
ATOM      9  C   UNL     1      -6.190  -5.020  -0.487  0.00  0.00    -0.017 C 
ATOM     10  C   UNL     1      -6.986  -4.111  -1.076  0.00  0.00    +0.025 C 
ATOM     11  C   UNL     1      -6.202  -2.904  -1.332  0.00  0.00    +0.106 C 
ATOM     12  N   UNL     1      -5.036  -2.968  -0.752  0.00  0.00    -0.279 NA
ATOM     13  C   UNL     1      -5.013  -4.195   0.029  0.00  0.00    +0.170 C 
ENDBRANCH   2   5
BRANCH   1  15
ATOM     14  C   UNL     1      -1.263  -0.762   0.011  0.00  0.00    +0.138 C 
ATOM     15  N   UNL     1      -1.242  -2.060   0.003  0.00  0.00    -0.187 NA
BRANCH  14  21
ATOM     16  C   UNL     1      -0.017   1.393   0.010  0.00  0.00    +0.010 A 
ATOM     17  C   UNL     1       1.170   2.095   0.002  0.00  0.00    +0.016 A 
ATOM     18  C   UNL     1       2.378   1.419  -0.013  0.00  0.00    +0.018 A 
ATOM     19  C   UNL     1       2.404   0.035  -0.021  0.00  0.00    +0.016 A 
ATOM     20  C   UNL     1       1.225  -0.680  -0.014  0.00  0.00    +0.010 A 
ATOM     21  C   UNL     1       0.002  -0.004   0.002  0.00  0.00    -0.005 A 
ATOM     22 BR   UNL     1       4.000   2.391  -0.023  0.00  0.00    -0.050 Br
ENDBRANCH  14  21
ENDBRANCH   1  15
TORSDOF 3
