REMARK  Name = ZINC09518177
REMARK  10 active torsions:
REMARK  status: ('A' for Active; 'I' for Inactive)
REMARK    1  A    between atoms: C_1  and  C_2
REMARK    2  A    between atoms: C_2  and  O_3
REMARK    3  A    between atoms: O_3  and  C_4
REMARK    4  A    between atoms: C_7  and  C_10
REMARK    5  A    between atoms: N_12  and  C_13
REMARK    6  A    between atoms: C_14  and  N_32
REMARK    7  A    between atoms: C_16  and  S_21
REMARK    8  A    between atoms: S_21  and  C_22
REMARK    9  A    between atoms: C_22  and  C_23
REMARK   10  A    between atoms: C_26  and  N_29
REMARK                            x       y       z     vdW  Elec       q    Type
REMARK                         _______ _______ _______ _____ _____    ______ ____
ROOT
ATOM      1  C   UNL     1      -4.392  -0.837   0.043  0.00  0.00    +0.139 A 
ATOM      2  C   UNL     1      -3.892   0.461   0.055  0.00  0.00    +0.146 A 
ATOM      3  N   UNL     1      -2.569   0.662   0.046  0.00  0.00    -0.207 NA
ATOM      4  C   UNL     1      -1.726  -0.349   0.026  0.00  0.00    +0.171 A 
ATOM      5  N   UNL     1      -2.163  -1.639   0.008  0.00  0.00    -0.300 N 
ATOM      6  H   UNL     1      -1.522  -2.367  -0.011  0.00  0.00    +0.171 HD
ATOM      7  C   UNL     1      -3.486  -1.907   0.021  0.00  0.00    +0.275 A 
ATOM      8  O   UNL     1      -3.886  -3.061   0.011  0.00  0.00    -0.266 OA
ENDROOT
BRANCH   1  11
ATOM      9  C   UNL     1      -6.355  -1.756  -0.957  0.00  0.00    +0.248 C 
ATOM     10  O   UNL     1      -5.665  -2.245  -1.831  0.00  0.00    -0.270 OA
ATOM     11  N   UNL     1      -5.781  -1.072   0.052  0.00  0.00    -0.274 N 
ATOM     12  H   UNL     1      -6.324  -0.741   0.785  0.00  0.00    +0.155 HD
BRANCH   9  16
ATOM     13  C   UNL     1     -10.576  -2.207  -1.084  0.00  0.00    +0.121 A 
ATOM     14  C   UNL     1      -9.789  -2.766  -2.084  0.00  0.00    +0.046 A 
ATOM     15  C   UNL     1      -8.420  -2.622  -2.046  0.00  0.00    +0.016 A 
ATOM     16  C   UNL     1      -7.822  -1.913  -1.001  0.00  0.00    +0.037 A 
ATOM     17  C   UNL     1      -8.617  -1.357   0.005  0.00  0.00    +0.016 A 
ATOM     18  C   UNL     1      -9.986  -1.500  -0.043  0.00  0.00    +0.046 A 
BRANCH  13  19
ATOM     19  O   UNL     1     -11.925  -2.351  -1.125  0.00  0.00    -0.492 OA
BRANCH  19  21
ATOM     20  C   UNL     1     -14.165  -2.018  -0.281  0.00  0.00    +0.048 C 
ATOM     21  C   UNL     1     -12.674  -1.751  -0.066  0.00  0.00    +0.225 C 
ENDBRANCH  19  21
ENDBRANCH  13  19
ENDBRANCH   9  16
ENDBRANCH   1  11
BRANCH   2  22
ATOM     22  N   UNL     1      -4.758   1.539   0.075  0.00  0.00    -0.341 N 
ATOM     23  H   UNL     1      -4.407   2.443   0.083  0.00  0.00    +0.144 HD
ATOM     24  H   UNL     1      -5.717   1.391   0.081  0.00  0.00    +0.144 HD
ENDBRANCH   2  22
BRANCH   4  25
ATOM     25  S   UNL     1       0.006  -0.026   0.015  0.00  0.00    -0.083 S 
BRANCH  25  26
ATOM     26  C   UNL     1      -0.011   1.784   0.038  0.00  0.00    +0.112 C 
BRANCH  26  27
ATOM     27  C   UNL     1       1.405   2.300   0.032  0.00  0.00    -0.037 A 
ATOM     28  C   UNL     1       2.062   2.527   1.227  0.00  0.00    +0.007 A 
ATOM     29  C   UNL     1       3.362   2.996   1.222  0.00  0.00    +0.033 A 
ATOM     30  C   UNL     1       4.002   3.248   0.022  0.00  0.00    +0.126 A 
ATOM     31  C   UNL     1       3.342   3.025  -1.172  0.00  0.00    +0.033 A 
ATOM     32  C   UNL     1       2.044   2.551  -1.167  0.00  0.00    +0.007 A 
BRANCH  30  33
ATOM     33  N   UNL     1       5.392   3.755   0.017  0.00  0.00    +0.056 N 
ATOM     34  O   UNL     1       5.956   3.976  -1.040  0.00  0.00    -0.126 OA
ATOM     35  O   UNL     1       5.973   3.951   1.069  0.00  0.00    -0.126 OA
ENDBRANCH  30  33
ENDBRANCH  26  27
ENDBRANCH  25  26
ENDBRANCH   4  25
TORSDOF 9
