REMARK  Name = ZINC31663612
REMARK  7 active torsions:
REMARK  status: ('A' for Active; 'I' for Inactive)
REMARK    1  A    between atoms: N_9  and  C_11
REMARK    2  A    between atoms: C_11  and  C_12
REMARK    3  A    between atoms: C_12  and  C_14
REMARK    4  A    between atoms: C_12  and  O_28
REMARK    5  A    between atoms: C_14  and  N_15
REMARK    6  A    between atoms: N_18  and  C_19
REMARK    7  A    between atoms: C_24  and  N_25
REMARK                            x       y       z     vdW  Elec       q    Type
REMARK                         _______ _______ _______ _____ _____    ______ ____
ROOT
ATOM      1  C   UNL     1      -5.986  -1.055   0.636  0.00  0.00    +0.135 C 
ENDROOT
BRANCH   1   2
ATOM      2  N   UNL     1      -4.775  -0.260   0.416  0.00  0.00    -0.297 N 
ATOM      3  C   UNL     1      -3.567  -0.859   0.412  0.00  0.00    +0.304 C 
ATOM      4  O   UNL     1      -3.483  -2.059   0.590  0.00  0.00    -0.253 OA
ATOM      5  N   UNL     1      -2.453  -0.128   0.210  0.00  0.00    -0.267 N 
ATOM      6  H   UNL     1      -4.851   0.825   0.255  0.00  0.00    +0.150 HD
ATOM      7  H   UNL     1      -2.520   0.968   0.136  0.00  0.00    +0.156 HD
BRANCH   5   8
ATOM      8  C   UNL     1      -1.211  -0.762   0.095  0.00  0.00    +0.065 A 
ATOM      9  C   UNL     1      -1.119  -2.004  -0.520  0.00  0.00    +0.025 A 
ATOM     10  C   UNL     1       0.108  -2.628  -0.632  0.00  0.00    +0.002 A 
ATOM     11  C   UNL     1       1.244  -2.017  -0.132  0.00  0.00    +0.002 A 
ATOM     12  C   UNL     1       1.156  -0.778   0.476  0.00  0.00    +0.034 A 
ATOM     13  C   UNL     1      -0.069  -0.152   0.595  0.00  0.00    +0.147 A 
BRANCH  13  14
ATOM     14  N   UNL     1      -0.163   1.172   1.251  0.00  0.00    +0.058 N 
ATOM     15  O   UNL     1       0.822   1.666   1.769  0.00  0.00    -0.126 OA
ATOM     16  O   UNL     1      -1.225   1.769   1.268  0.00  0.00    -0.126 OA
ENDBRANCH  13  14
ENDBRANCH   5   8
ENDBRANCH   1   2
BRANCH   1  17
ATOM     17  C   UNL     1      -7.211  -0.140   0.593  0.00  0.00    +0.115 C 
BRANCH  17  18
ATOM     18  O   UNL     1      -7.101   0.852   1.615  0.00  0.00    -0.392 OA
ATOM     19  H   UNL     1      -6.249   1.548   1.617  0.00  0.00    +0.210 HD
ENDBRANCH  17  18
BRANCH  17  20
ATOM     20  C   UNL     1      -8.476  -0.970   0.822  0.00  0.00    -0.045 C 
BRANCH  20  29
ATOM     21  C   UNL     1     -13.362   2.627  -1.300  0.00  0.00    +0.000 A 
ATOM     22  C   UNL     1     -12.328   2.696  -2.215  0.00  0.00    +0.000 A 
ATOM     23  C   UNL     1     -11.181   1.955  -2.014  0.00  0.00    +0.002 A 
ATOM     24  C   UNL     1     -11.060   1.140  -0.897  0.00  0.00    -0.061 A 
ATOM     25  C   UNL     1     -12.089   1.074   0.016  0.00  0.00    -0.048 A 
ATOM     26  C   UNL     1     -13.242   1.818  -0.188  0.00  0.00    +0.004 A 
ATOM     27  C   UNL     1     -12.001   0.209   1.247  0.00  0.00    +0.017 C 
ATOM     28  C   UNL     1     -10.880  -0.818   1.083  0.00  0.00    -0.074 C 
ATOM     29  N   UNL     1      -9.659  -0.114   0.662  0.00  0.00    +0.384 N 
ATOM     30  C   UNL     1      -9.791   0.347  -0.723  0.00  0.00    -0.043 C 
ATOM     31  H   UNL     1      -9.523   0.767   1.307  0.00  0.00    -0.081 HD
ENDBRANCH  20  29
ENDBRANCH  17  20
ENDBRANCH   1  17
TORSDOF 7
