REMARK  Name = ZINC62391151
REMARK  2 active torsions:
REMARK  status: ('A' for Active; 'I' for Inactive)
REMARK    1  A    between atoms: C_4  and  N_21
REMARK    2  A    between atoms: C_5  and  N_7
REMARK                            x       y       z     vdW  Elec       q    Type
REMARK                         _______ _______ _______ _____ _____    ______ ____
ROOT
ATOM      1  N   UNL     1       1.209  -2.063  -0.013  0.00  0.00    -0.267 N 
ATOM      2  C   UNL     1       0.045  -2.739  -0.091  0.00  0.00    +0.307 C 
ATOM      3  O   UNL     1      -0.998  -2.135  -0.252  0.00  0.00    -0.252 OA
ATOM      4  N   UNL     1       0.037  -4.082   0.009  0.00  0.00    -0.282 N 
ATOM      5  C   UNL     1       1.295  -4.768   0.101  0.00  0.00    +0.113 C 
ATOM      6  C   UNL     1       1.234  -5.992   0.962  0.00  0.00    +0.007 C 
ATOM      7  C   UNL     1       0.506  -5.755   2.275  0.00  0.00    +0.008 C 
ATOM      8  C   UNL     1      -0.994  -5.964   2.203  0.00  0.00    -0.009 C 
ATOM      9  C   UNL     1      -1.331  -7.305   1.544  0.00  0.00    +0.007 C 
ATOM     10  C   UNL     1      -0.731  -7.281   0.137  0.00  0.00    -0.009 C 
ATOM     11  C   UNL     1       0.793  -7.248   0.265  0.00  0.00    +0.008 C 
ATOM     12  C   UNL     1      -1.240  -6.107  -0.666  0.00  0.00    +0.026 C 
ATOM     13  C   UNL     1      -1.244  -4.767   0.024  0.00  0.00    +0.078 C 
ATOM     14  C   UNL     1      -1.730  -4.856   1.466  0.00  0.00    +0.026 C 
ATOM     15  H   UNL     1       2.048  -2.548   0.036  0.00  0.00    +0.156 HD
ENDROOT
BRANCH   1  20
ATOM     16  C   UNL     1       0.180   1.407   0.637  0.00  0.00    +0.002 A 
ATOM     17  C   UNL     1       1.202   2.107   0.022  0.00  0.00    +0.002 A 
ATOM     18  C   UNL     1       2.228   1.429  -0.607  0.00  0.00    +0.029 A 
ATOM     19  C   UNL     1       2.236   0.042  -0.622  0.00  0.00    +0.087 A 
ATOM     20  C   UNL     1       1.207  -0.663  -0.001  0.00  0.00    +0.060 A 
ATOM     21  C   UNL     1       0.180   0.026   0.627  0.00  0.00    +0.025 A 
BRANCH  19  22
ATOM     22  N   UNL     1       3.277  -0.648  -1.260  0.00  0.00    -0.238 N 
ATOM     23  C   UNL     1       4.282  -0.091  -1.972  0.00  0.00    +0.114 A 
ATOM     24  C   UNL     1       5.074  -1.093  -2.421  0.00  0.00    +0.041 A 
ATOM     25  C   UNL     1       4.536  -2.303  -1.968  0.00  0.00    +0.135 A 
ATOM     26  N   UNL     1       3.462  -2.037  -1.268  0.00  0.00    -0.175 NA
ENDBRANCH  19  22
ENDBRANCH   1  20
TORSDOF 2
