REMARK  Name = ZINC67493049
REMARK  11 active torsions:
REMARK  status: ('A' for Active; 'I' for Inactive)
REMARK    1  A    between atoms: C_1  and  C_2
REMARK    2  A    between atoms: C_2  and  O_3
REMARK    3  A    between atoms: O_3  and  C_4
REMARK    4  A    between atoms: C_6  and  N_11
REMARK    5  A    between atoms: C_9  and  C_10
REMARK    6  A    between atoms: C_12  and  C_14
REMARK    7  A    between atoms: N_16  and  C_17
REMARK    8  A    between atoms: C_17  and  C_18
REMARK    9  A    between atoms: C_18  and  N_19
REMARK   10  A    between atoms: N_19  and  C_20
REMARK   11  A    between atoms: C_25  and  N_26
REMARK                            x       y       z     vdW  Elec       q    Type
REMARK                         _______ _______ _______ _____ _____    ______ ____
ROOT
ATOM      1  C   UNL     1      -0.998  -7.149   1.037  0.00  0.00    +0.299 C 
ATOM      2  O   UNL     1      -1.562  -6.696   2.011  0.00  0.00    -0.265 OA
ATOM      3  N   UNL     1      -0.954  -8.483   0.843  0.00  0.00    -0.306 N 
ATOM      4  H   UNL     1      -0.503  -8.845   0.065  0.00  0.00    +0.149 HD
ENDROOT
BRANCH   1   6
ATOM      5  N   UNL     1      -0.395  -4.897   0.247  0.00  0.00    -0.278 N 
ATOM      6  C   UNL     1      -0.351  -6.230   0.053  0.00  0.00    +0.303 C 
ATOM      7  O   UNL     1       0.214  -6.684  -0.921  0.00  0.00    -0.265 OA
ATOM      8  H   UNL     1      -0.794  -4.537   1.054  0.00  0.00    +0.155 HD
BRANCH   5  11
ATOM      9  C   UNL     1       0.061  -1.954  -1.912  0.00  0.00    +0.125 A 
ATOM     10  C   UNL     1      -0.469  -2.808  -0.957  0.00  0.00    +0.069 A 
ATOM     11  C   UNL     1       0.136  -4.034  -0.715  0.00  0.00    +0.037 A 
ATOM     12  C   UNL     1       1.269  -4.401  -1.430  0.00  0.00    +0.024 A 
ATOM     13  C   UNL     1       1.794  -3.547  -2.380  0.00  0.00    +0.009 A 
ATOM     14  C   UNL     1       1.190  -2.328  -2.627  0.00  0.00    -0.009 A 
ATOM     15  C   UNL     1       1.761  -1.402  -3.669  0.00  0.00    +0.047 C 
BRANCH   9  16
ATOM     16  O   UNL     1      -0.529  -0.753  -2.152  0.00  0.00    -0.492 OA
BRANCH  16  18
ATOM     17  C   UNL     1      -2.208   0.947  -1.786  0.00  0.00    +0.048 C 
ATOM     18  C   UNL     1      -1.688  -0.433  -1.379  0.00  0.00    +0.225 C 
ENDBRANCH  16  18
ENDBRANCH   9  16
ENDBRANCH   5  11
ENDBRANCH   1   6
BRANCH   3  19
ATOM     19  C   UNL     1      -1.588  -9.384   1.808  0.00  0.00    +0.123 C 
BRANCH  19  20
ATOM     20  C   UNL     1      -1.394 -10.833   1.356  0.00  0.00    +0.120 C 
BRANCH  20  21
ATOM     21  N   UNL     1      -2.029 -11.735   2.321  0.00  0.00    -0.341 N 
ATOM     22  H   UNL     1      -2.480 -11.372   3.099  0.00  0.00    +0.146 HD
BRANCH  21  23
ATOM     23  C   UNL     1      -1.983 -13.116   2.120  0.00  0.00    +0.058 A 
ATOM     24  C   UNL     1      -1.250 -13.643   1.064  0.00  0.00    +0.025 A 
ATOM     25  C   UNL     1      -1.207 -15.009   0.869  0.00  0.00    +0.002 A 
ATOM     26  C   UNL     1      -1.893 -15.853   1.723  0.00  0.00    +0.002 A 
ATOM     27  C   UNL     1      -2.624 -15.332   2.774  0.00  0.00    +0.034 A 
ATOM     28  C   UNL     1      -2.667 -13.967   2.979  0.00  0.00    +0.147 A 
BRANCH  28  29
ATOM     29  N   UNL     1      -3.445 -13.411   4.109  0.00  0.00    +0.058 N 
ATOM     30  O   UNL     1      -3.033 -12.446   4.710  0.00  0.00    -0.126 OA
ATOM     31  O   UNL     1      -4.492 -13.922   4.431  0.00  0.00    -0.126 OA
ENDBRANCH  28  29
ENDBRANCH  21  23
ENDBRANCH  20  21
ENDBRANCH  19  20
ENDBRANCH   3  19
TORSDOF 9
