REMARK  Name = ZINC16010340
REMARK  5 active torsions:
REMARK  status: ('A' for Active; 'I' for Inactive)
REMARK    1  A    between atoms: C_16  and  C_19
REMARK    2  A    between atoms: C_19  and  C_20
REMARK    3  A    between atoms: C_20  and  C_21
REMARK    4  A    between atoms: N_26  and  C_29
REMARK    5  A    between atoms: C_29  and  C_30
REMARK                            x       y       z     vdW  Elec       q    Type
REMARK                         _______ _______ _______ _____ _____    ______ ____
ROOT
ATOM      1  C   UNL     1      -0.017   1.379   0.010  0.00  0.00    +0.002 A 
ATOM      2  C   UNL     1       1.174   2.083   0.002  0.00  0.00    +0.008 A 
ATOM      3  C   UNL     1       2.374   1.409  -0.013  0.00  0.00    +0.005 A 
ATOM      4  C   UNL     1       2.406   0.018  -0.022  0.00  0.00    +0.057 A 
ATOM      5  C   UNL     1       1.203  -0.685  -0.014  0.00  0.00    +0.062 A 
ATOM      6  C   UNL     1       0.002  -0.004   0.002  0.00  0.00    +0.022 A 
ATOM      7 CL   UNL     1       1.214  -2.421  -0.023  0.00  0.00    -0.082 Cl
ATOM      8  N   UNL     1       3.728  -0.435  -0.041  0.00  0.00    -0.282 N 
ATOM      9  C   UNL     1       4.613   0.581  -0.046  0.00  0.00    +0.243 C 
ATOM     10  O   UNL     1       5.822   0.488  -0.065  0.00  0.00    -0.273 OA
ATOM     11  C   UNL     1       3.810   1.853  -0.024  0.00  0.00    +0.136 C 
ATOM     12  C   UNL     1       4.119   2.733  -1.241  0.00  0.00    +0.122 C 
ATOM     13  C   UNL     1       5.140   3.781  -0.718  0.00  0.00    +0.107 C 
ATOM     14  C   UNL     1       5.348   3.422   0.769  0.00  0.00    +0.068 C 
ATOM     15  N   UNL     1       4.133   2.671   1.159  0.00  0.00    -0.295 NA
ATOM     16  C   UNL     1       6.395   3.464  -1.500  0.00  0.00    +0.227 C 
ATOM     17  O   UNL     1       7.450   4.052  -1.399  0.00  0.00    -0.275 OA
ATOM     18  N   UNL     1       6.160   2.432  -2.319  0.00  0.00    -0.237 N 
ATOM     19  C   UNL     1       4.902   1.939  -2.262  0.00  0.00    +0.229 C 
ATOM     20  O   UNL     1       4.467   1.015  -2.914  0.00  0.00    -0.275 OA
ATOM     21  H   UNL     1       3.979  -1.372  -0.049  0.00  0.00    +0.155 HD
ATOM     22  H   UNL     1       3.381   3.308   1.375  0.00  0.00    +0.123 HD
ENDROOT
BRANCH  14  23
ATOM     23  C   UNL     1       5.503   4.693   1.607  0.00  0.00    +0.031 C 
BRANCH  23  24
ATOM     24  C   UNL     1       5.831   4.314   3.053  0.00  0.00    +0.126 C 
BRANCH  24  25
ATOM     25  C   UNL     1       5.984   5.565   3.878  0.00  0.00    +0.356 C 
ATOM     26  O   UNL     1       5.843   6.659   3.358  0.00  0.00    -0.246 OA
ATOM     27  O   UNL     1       6.248   5.484   5.066  0.00  0.00    -0.246 OA
ENDBRANCH  24  25
ENDBRANCH  23  24
ENDBRANCH  14  23
BRANCH  18  28
ATOM     28  C   UNL     1       7.182   1.883  -3.215  0.00  0.00    +0.151 C 
BRANCH  28  29
ATOM     29  C   UNL     1       7.939   0.791  -2.503  0.00  0.00    -0.029 A 
ATOM     30  C   UNL     1       9.069   1.100  -1.770  0.00  0.00    +0.008 A 
ATOM     31  C   UNL     1       9.764   0.100  -1.116  0.00  0.00    +0.038 A 
ATOM     32  C   UNL     1       9.328  -1.211  -1.196  0.00  0.00    +0.123 A 
ATOM     33  C   UNL     1       8.195  -1.519  -1.930  0.00  0.00    +0.038 A 
ATOM     34  C   UNL     1       7.499  -0.517  -2.579  0.00  0.00    +0.008 A 
ATOM     35  F   UNL     1      10.006  -2.190  -0.558  0.00  0.00    -0.205 F 
ENDBRANCH  28  29
ENDBRANCH  18  28
TORSDOF 5
