REMARK  Name = ZINC39313679
REMARK  4 active torsions:
REMARK  status: ('A' for Active; 'I' for Inactive)
REMARK    1  A    between atoms: C_7  and  C_10
REMARK    2  A    between atoms: N_11  and  N_12
REMARK    3  A    between atoms: C_13  and  C_15
REMARK    4  A    between atoms: C_17  and  O_31
REMARK                            x       y       z     vdW  Elec       q    Type
REMARK                         _______ _______ _______ _____ _____    ______ ____
ROOT
ATOM      1  N   UNL     1       0.255  -5.437  -0.030  0.00  0.00    -0.206 N 
ATOM      2  C   UNL     1       0.733  -6.697  -0.041  0.00  0.00    +0.247 C 
ATOM      3  O   UNL     1       1.930  -6.892  -0.054  0.00  0.00    -0.273 OA
ATOM      4  H   UNL     1      -0.702  -5.281  -0.020  0.00  0.00    +0.177 HD
ENDROOT
BRANCH   2   5
ATOM      5  C   UNL     1      -0.220  -7.864  -0.038  0.00  0.00    +0.195 C 
ATOM      6  C   UNL     1       0.574  -9.169  -0.049  0.00  0.00    +0.167 C 
ATOM      7  C   UNL     1       1.191  -9.384  -1.407  0.00  0.00    +0.004 A 
ATOM      8  C   UNL     1       2.415 -10.018  -1.506  0.00  0.00    +0.008 A 
ATOM      9  C   UNL     1       2.984 -10.232  -2.747  0.00  0.00    +0.001 A 
ATOM     10  C   UNL     1       2.327  -9.816  -3.890  0.00  0.00    +0.005 A 
ATOM     11  C   UNL     1       1.103  -9.177  -3.799  0.00  0.00    -0.026 A 
ATOM     12  C   UNL     1       0.535  -8.952  -2.552  0.00  0.00    +0.045 A 
ATOM     13  N   UNL     1      -0.682  -8.272  -2.439  0.00  0.00    -0.270 N 
ATOM     14  C   UNL     1      -1.101  -7.794  -1.256  0.00  0.00    +0.235 C 
ATOM     15  O   UNL     1      -2.204  -7.299  -1.170  0.00  0.00    -0.274 OA
ATOM     16  C   UNL     1      -1.511  -8.081  -3.637  0.00  0.00    +0.114 C 
ATOM     17  C   UNL     1      -0.589  -7.628  -4.777  0.00  0.00    +0.024 C 
ATOM     18  C   UNL     1       0.418  -8.740  -5.067  0.00  0.00    +0.038 C 
BRANCH   6  19
ATOM     19  O   UNL     1       1.609  -9.103   0.934  0.00  0.00    -0.386 OA
ATOM     20  H   UNL     1       2.156  -9.899   0.984  0.00  0.00    +0.210 HD
ENDBRANCH   6  19
ENDBRANCH   2   5
BRANCH   1  22
ATOM     21  C   UNL     1       0.677  -3.128  -0.022  0.00  0.00    +0.136 C 
ATOM     22  N   UNL     1       1.141  -4.352  -0.033  0.00  0.00    -0.188 NA
BRANCH  21  29
ATOM     23  C   UNL     1      -0.016   1.353   0.009  0.00  0.00    +0.001 A 
ATOM     24  C   UNL     1       1.164   2.102   0.002  0.00  0.00    +0.002 A 
ATOM     25  C   UNL     1       2.384   1.514  -0.013  0.00  0.00    +0.026 A 
ATOM     26  C   UNL     1       2.485   0.097  -0.022  0.00  0.00    +0.043 A 
ATOM     27  N   UNL     1       3.531  -0.702  -0.037  0.00  0.00    -0.380 N 
ATOM     28  C   UNL     1       3.076  -2.096  -0.040  0.00  0.00    +0.150 C 
ATOM     29  C   UNL     1       1.565  -2.042  -0.024  0.00  0.00    +0.000 C 
ATOM     30  C   UNL     1       1.238  -0.688  -0.013  0.00  0.00    +0.004 A 
ATOM     31  C   UNL     1       0.002  -0.004   0.002  0.00  0.00    +0.010 A 
ATOM     32  H   UNL     1       4.458  -0.414  -0.045  0.00  0.00    +0.160 HD
ENDBRANCH  21  29
ENDBRANCH   1  22
TORSDOF 4
