REMARK  Name = ZINC67481997
REMARK  9 active torsions:
REMARK  status: ('A' for Active; 'I' for Inactive)
REMARK    1  A    between atoms: C_1  and  C_2
REMARK    2  A    between atoms: C_2  and  C_4
REMARK    3  A    between atoms: C_2  and  N_12
REMARK    4  A    between atoms: C_4  and  N_5
REMARK    5  A    between atoms: N_8  and  C_11
REMARK    6  A    between atoms: N_15  and  C_16
REMARK    7  A    between atoms: C_16  and  C_17
REMARK    8  A    between atoms: N_22  and  C_23
REMARK    9  A    between atoms: C_23  and  C_24
REMARK                            x       y       z     vdW  Elec       q    Type
REMARK                         _______ _______ _______ _____ _____    ______ ____
ROOT
ATOM      1  N   UNL     1      -0.121  -0.385  -1.178  0.00  0.00    -0.296 N 
ATOM      2  C   UNL     1       1.202  -0.639  -1.212  0.00  0.00    +0.300 C 
ATOM      3  O   UNL     1       1.852  -0.614  -0.185  0.00  0.00    -0.253 OA
ATOM      4  N   UNL     1       1.804  -0.922  -2.384  0.00  0.00    -0.301 N 
ATOM      5  H   UNL     1      -0.640  -0.405  -1.997  0.00  0.00    +0.151 HD
ATOM      6  H   UNL     1       1.285  -0.943  -3.203  0.00  0.00    +0.150 HD
ENDROOT
BRANCH   1   8
ATOM      7  C   UNL     1      -0.665   1.422   0.377  0.00  0.00    +0.029 C 
ATOM      8  C   UNL     1      -0.776  -0.078   0.096  0.00  0.00    +0.085 C 
BRANCH   8   9
ATOM      9  C   UNL     1      -2.251  -0.475   0.021  0.00  0.00    +0.106 C 
BRANCH   9  10
ATOM     10  N   UNL     1      -2.357  -1.901  -0.316  0.00  0.00    -0.304 NA
ATOM     11  C   UNL     1      -3.692  -2.220  -0.842  0.00  0.00    +0.066 C 
ATOM     12  C   UNL     1      -3.743  -3.698  -1.236  0.00  0.00    -0.064 C 
ATOM     13  N   UNL     1      -3.450  -4.528  -0.060  0.00  0.00    +0.379 N 
ATOM     14  C   UNL     1      -2.104  -4.215   0.440  0.00  0.00    -0.064 C 
ATOM     15  C   UNL     1      -2.040  -2.742   0.847  0.00  0.00    +0.066 C 
ATOM     16  C   UNL     1      -3.516  -5.947  -0.433  0.00  0.00    -0.096 C 
ATOM     17  H   UNL     1      -4.129  -4.339   0.662  0.00  0.00    -0.082 HD
ENDBRANCH   9  10
ENDBRANCH   8   9
ENDBRANCH   1   8
BRANCH   4  18
ATOM     18  C   UNL     1       3.242  -1.199  -2.421  0.00  0.00    +0.090 C 
BRANCH  18  19
ATOM     19  C   UNL     1       3.669  -1.488  -3.861  0.00  0.00    -0.051 C 
ATOM     20  C   UNL     1       5.143  -1.945  -3.890  0.00  0.00    -0.016 C 
ATOM     21  C   UNL     1       5.029  -3.491  -3.928  0.00  0.00    -0.020 C 
ATOM     22  C   UNL     1       3.766  -3.691  -4.802  0.00  0.00    -0.078 C 
ATOM     23  N   UNL     1       2.857  -2.586  -4.415  0.00  0.00    +0.383 N 
ATOM     24  H   UNL     1       2.205  -2.911  -3.717  0.00  0.00    -0.081 HD
BRANCH  23  25
ATOM     25  C   UNL     1       2.120  -2.111  -5.594  0.00  0.00    -0.075 C 
BRANCH  25  26
ATOM     26  C   UNL     1       1.172  -3.209  -6.080  0.00  0.00    -0.028 C 
ATOM     27  C   UNL     1       0.502  -2.765  -7.381  0.00  0.00    +0.002 C 
ATOM     28  C   UNL     1      -0.447  -3.863  -7.867  0.00  0.00    +0.000 C 
ATOM     29  C   UNL     1      -1.516  -4.120  -6.804  0.00  0.00    +0.000 C 
ATOM     30  C   UNL     1      -0.846  -4.564  -5.503  0.00  0.00    +0.000 C 
ATOM     31  C   UNL     1       0.102  -3.466  -5.017  0.00  0.00    +0.002 C 
ENDBRANCH  25  26
ENDBRANCH  23  25
ENDBRANCH  18  19
ENDBRANCH   4  18
TORSDOF 7
