REMARK  Name = ZINC22595973
REMARK  8 active torsions:
REMARK  status: ('A' for Active; 'I' for Inactive)
REMARK    1  A    between atoms: C_1  and  C_2
REMARK    2  A    between atoms: C_2  and  N_3
REMARK    3  A    between atoms: N_6  and  C_9
REMARK    4  A    between atoms: C_9  and  N_10
REMARK    5  A    between atoms: N_17  and  C_20
REMARK    6  A    between atoms: C_20  and  N_21
REMARK    7  A    between atoms: N_24  and  C_27
REMARK    8  A    between atoms: C_27  and  C_28
REMARK                            x       y       z     vdW  Elec       q    Type
REMARK                         _______ _______ _______ _____ _____    ______ ____
ROOT
ATOM      1  N   UNL     1      -0.535   3.261   3.626  0.00  0.00    -0.306 N 
ATOM      2  C   UNL     1      -0.594   2.112   4.409  0.00  0.00    +0.069 A 
ATOM      3  C   UNL     1      -1.391   0.977   4.375  0.00  0.00    +0.028 A 
ATOM      4  C   UNL     1      -1.201  -0.024   5.308  0.00  0.00    +0.002 A 
ATOM      5  C   UNL     1      -0.214   0.097   6.271  0.00  0.00    +0.002 A 
ATOM      6  C   UNL     1       0.588   1.221   6.309  0.00  0.00    +0.028 A 
ATOM      7  C   UNL     1       0.405   2.232   5.378  0.00  0.00    +0.069 A 
ATOM      8  N   UNL     1       1.033   3.454   5.158  0.00  0.00    -0.306 N 
ATOM      9  C   UNL     1       0.448   4.049   4.101  0.00  0.00    +0.164 A 
ATOM     10  S   UNL     1       0.888   5.573   3.459  0.00  0.00    -0.013 S 
ENDROOT
BRANCH   1  11
ATOM     11  C   UNL     1      -1.399   3.565   2.482  0.00  0.00    +0.211 C 
BRANCH  11  15
ATOM     12  N   UNL     1      -0.724   1.573  -1.182  0.00  0.00    +0.381 N 
ATOM     13  C   UNL     1      -0.013   1.086   0.008  0.00  0.00    -0.063 C 
ATOM     14  C   UNL     1      -0.730   1.580   1.267  0.00  0.00    +0.067 C 
ATOM     15  N   UNL     1      -0.783   3.048   1.252  0.00  0.00    -0.288 NA
ATOM     16  C   UNL     1      -1.495   3.536   0.062  0.00  0.00    +0.067 C 
ATOM     17  C   UNL     1      -0.777   3.042  -1.196  0.00  0.00    -0.063 C 
ATOM     18  H   UNL     1      -1.757   1.196  -1.138  0.00  0.00    -0.082 HD
BRANCH  12  20
ATOM     19  C   UNL     1      -1.011   1.374  -3.606  0.00  0.00    -0.017 C 
ATOM     20  C   UNL     1      -0.109   1.057  -2.412  0.00  0.00    -0.082 C 
ENDBRANCH  12  20
ENDBRANCH  11  15
ENDBRANCH   1  11
BRANCH   8  21
ATOM     21  C   UNL     1       2.142   4.002   5.944  0.00  0.00    +0.211 C 
BRANCH  21  22
ATOM     22  N   UNL     1       1.608   4.802   7.054  0.00  0.00    -0.288 NA
ATOM     23  C   UNL     1       0.914   5.997   6.555  0.00  0.00    +0.067 C 
ATOM     24  C   UNL     1       0.305   6.760   7.734  0.00  0.00    -0.063 C 
ATOM     25  N   UNL     1       1.369   7.128   8.678  0.00  0.00    +0.381 N 
ATOM     26  C   UNL     1       2.063   5.933   9.177  0.00  0.00    -0.063 C 
ATOM     27  C   UNL     1       2.672   5.170   7.998  0.00  0.00    +0.067 C 
ATOM     28  H   UNL     1       2.103   7.746   8.139  0.00  0.00    -0.082 HD
BRANCH  25  29
ATOM     29  C   UNL     1       0.835   7.928   9.788  0.00  0.00    -0.082 C 
ATOM     30  C   UNL     1       0.344   9.276   9.255  0.00  0.00    -0.017 C 
ENDBRANCH  25  29
ENDBRANCH  21  22
ENDBRANCH   8  21
TORSDOF 6
