REMARK  Name = ZINC54346841
REMARK  3 active torsions:
REMARK  status: ('A' for Active; 'I' for Inactive)
REMARK    1  A    between atoms: C_8  and  C_12
REMARK    2  A    between atoms: C_12  and  N_13
REMARK    3  A    between atoms: N_13  and  C_14
REMARK                            x       y       z     vdW  Elec       q    Type
REMARK                         _______ _______ _______ _____ _____    ______ ____
ROOT
ATOM      1  C   UNL     1      -0.016   1.359   0.009  0.00  0.00    +0.005 A 
ATOM      2  C   UNL     1       1.194   2.067   0.002  0.00  0.00    +0.018 A 
ATOM      3  C   UNL     1       2.370   1.401  -0.013  0.00  0.00    +0.096 A 
ATOM      4  N   UNL     1       2.400   0.039  -0.021  0.00  0.00    -0.268 N 
ATOM      5  C   UNL     1       1.236  -0.679  -0.013  0.00  0.00    +0.141 A 
ATOM      6  C   UNL     1       0.002  -0.004   0.002  0.00  0.00    +0.047 A 
ATOM      7  N   UNL     1       1.256  -2.011  -0.020  0.00  0.00    -0.232 NA
ATOM      8  C   UNL     1       2.397  -2.682  -0.034  0.00  0.00    +0.066 A 
ATOM      9  C   UNL     1       3.600  -2.003  -0.042  0.00  0.00    +0.095 A 
ATOM     10  C   UNL     1       3.587  -0.603  -0.035  0.00  0.00    +0.259 A 
ATOM     11  O   UNL     1       4.633   0.026  -0.043  0.00  0.00    -0.267 OA
ENDROOT
BRANCH   8  12
ATOM     12  C   UNL     1       2.384  -4.189  -0.042  0.00  0.00    +0.157 C 
BRANCH  12  13
ATOM     13  N   UNL     1       1.808  -4.678   1.213  0.00  0.00    -0.337 N 
ATOM     14  H   UNL     1       1.508  -4.049   1.888  0.00  0.00    +0.146 HD
BRANCH  13  15
ATOM     15  C   UNL     1       1.690  -6.054   1.439  0.00  0.00    +0.042 A 
ATOM     16  C   UNL     1       2.123  -6.956   0.477  0.00  0.00    +0.027 A 
ATOM     17  C   UNL     1       2.006  -8.314   0.702  0.00  0.00    +0.040 A 
ATOM     18  C   UNL     1       1.457  -8.776   1.887  0.00  0.00    +0.125 A 
ATOM     19  C   UNL     1       1.024  -7.879   2.848  0.00  0.00    +0.055 A 
ATOM     20  C   UNL     1       1.143  -6.519   2.629  0.00  0.00    +0.041 A 
ATOM     21 BR   UNL     1       0.558  -5.294   3.945  0.00  0.00    -0.048 Br
ATOM     22  F   UNL     1       1.343 -10.104   2.104  0.00  0.00    -0.205 F 
ENDBRANCH  13  15
ENDBRANCH  12  13
ENDBRANCH   8  12
TORSDOF 3
