REMARK  Name = ZINC67142807
REMARK  8 active torsions:
REMARK  status: ('A' for Active; 'I' for Inactive)
REMARK    1  A    between atoms: C_1  and  C_2
REMARK    2  A    between atoms: C_2  and  C_3
REMARK    3  A    between atoms: C_2  and  C_4
REMARK    4  A    between atoms: C_2  and  O_5
REMARK    5  A    between atoms: O_5  and  C_6
REMARK    6  A    between atoms: C_13  and  C_15
REMARK    7  A    between atoms: N_17  and  C_18
REMARK    8  A    between atoms: C_21  and  N_24
REMARK                            x       y       z     vdW  Elec       q    Type
REMARK                         _______ _______ _______ _____ _____    ______ ____
ROOT
ATOM      1  C   UNL     1       4.345   1.077  -1.665  0.00  0.00    +0.238 C 
ATOM      2  O   UNL     1       3.470   1.573  -0.986  0.00  0.00    -0.273 OA
ATOM      3  N   UNL     1       5.625   1.468  -1.505  0.00  0.00    -0.284 N 
ATOM      4  H   UNL     1       6.314   1.121  -2.092  0.00  0.00    +0.155 HD
ENDROOT
BRANCH   1  12
ATOM      5  C   UNL     1       2.911  -0.988  -0.741  0.00  0.00    +0.404 C 
ATOM      6  O   UNL     1       3.465  -0.170  -0.033  0.00  0.00    -0.226 OA
ATOM      7  N   UNL     1       3.154  -1.005  -2.067  0.00  0.00    -0.256 N 
ATOM      8  C   UNL     1       2.573  -2.050  -2.921  0.00  0.00    +0.112 C 
ATOM      9  C   UNL     1       1.821  -1.381  -4.076  0.00  0.00    +0.019 C 
ATOM     10  C   UNL     1       2.765  -0.424  -4.808  0.00  0.00    +0.004 C 
ATOM     11  C   UNL     1       3.237   0.667  -3.843  0.00  0.00    +0.032 C 
ATOM     12  C   UNL     1       4.000   0.025  -2.686  0.00  0.00    +0.165 C 
BRANCH   5  13
ATOM     13  O   UNL     1       2.055  -1.876  -0.202  0.00  0.00    -0.445 OA
BRANCH  13  15
ATOM     14  C   UNL     1       1.288  -0.421   1.569  0.00  0.00    +0.055 C 
ATOM     15  C   UNL     1       1.845  -1.800   1.209  0.00  0.00    +0.107 C 
ATOM     16  C   UNL     1       3.174  -2.018   1.935  0.00  0.00    +0.055 C 
ATOM     17  C   UNL     1       0.848  -2.880   1.635  0.00  0.00    +0.055 C 
ENDBRANCH  13  15
ENDBRANCH   5  13
ENDBRANCH   1  12
BRANCH   3  18
ATOM     18  C   UNL     1       5.959   2.375  -0.491  0.00  0.00    +0.034 A 
ATOM     19  C   UNL     1       7.176   2.263   0.168  0.00  0.00    +0.025 A 
ATOM     20  C   UNL     1       7.505   3.156   1.168  0.00  0.00    +0.025 A 
ATOM     21  C   UNL     1       6.619   4.168   1.514  0.00  0.00    +0.035 A 
ATOM     22  C   UNL     1       5.402   4.280   0.855  0.00  0.00    +0.025 A 
ATOM     23  C   UNL     1       5.075   3.391  -0.149  0.00  0.00    +0.025 A 
BRANCH  21  24
ATOM     24  N   UNL     1       6.953   5.075   2.528  0.00  0.00    -0.270 N 
ATOM     25  C   UNL     1       5.993   5.563   3.338  0.00  0.00    +0.301 C 
ATOM     26  O   UNL     1       4.854   5.146   3.252  0.00  0.00    -0.253 OA
ATOM     27  N   UNL     1       6.295   6.514   4.245  0.00  0.00    -0.313 N 
ATOM     28  H   UNL     1       7.875   5.351   2.647  0.00  0.00    +0.156 HD
ATOM     29  H   UNL     1       7.204   6.846   4.314  0.00  0.00    +0.146 HD
ATOM     30  H   UNL     1       5.604   6.865   4.828  0.00  0.00    +0.146 HD
ENDBRANCH  21  24
ENDBRANCH   3  18
TORSDOF 5
