REMARK  Name = ZINC19918814
REMARK  7 active torsions:
REMARK  status: ('A' for Active; 'I' for Inactive)
REMARK    1  A    between atoms: C_1  and  C_2
REMARK    2  A    between atoms: C_2  and  C_3
REMARK    3  A    between atoms: C_3  and  C_5
REMARK    4  A    between atoms: C_3  and  N_13
REMARK    5  A    between atoms: C_10  and  O_11
REMARK    6  A    between atoms: N_13  and  C_14
REMARK    7  A    between atoms: C_17  and  O_20
REMARK                            x       y       z     vdW  Elec       q    Type
REMARK                         _______ _______ _______ _____ _____    ______ ____
ROOT
ATOM      1  C   UNL     1      -0.648   3.079   1.418  0.00  0.00    -0.037 C 
ENDROOT
BRANCH   1   2
ATOM      2  C   UNL     1      -1.309   3.466   2.716  0.00  0.00    -0.019 A 
ATOM      3  C   UNL     1      -0.546   3.646   3.853  0.00  0.00    +0.020 A 
ATOM      4  C   UNL     1      -1.151   4.006   5.044  0.00  0.00    +0.018 A 
ATOM      5  C   UNL     1      -2.523   4.176   5.101  0.00  0.00    +0.019 A 
ATOM      6  C   UNL     1      -3.290   3.992   3.967  0.00  0.00    +0.047 A 
ATOM      7  C   UNL     1      -2.684   3.636   2.771  0.00  0.00    +0.119 A 
ATOM      8 BR   UNL     1      -0.103   4.258   6.598  0.00  0.00    -0.050 Br
BRANCH   7   9
ATOM      9  O   UNL     1      -3.438   3.455   1.655  0.00  0.00    -0.507 OA
ATOM     10  H   UNL     1      -4.529   3.590   1.699  0.00  0.00    +0.292 HD
ENDBRANCH   7   9
ENDBRANCH   1   2
BRANCH   1  11
ATOM     11  N   UNL     1       0.742   3.554   1.415  0.00  0.00    +0.386 N 
ATOM     12  H   UNL     1       1.189   3.385   2.406  0.00  0.00    -0.085 HD
ATOM     13  H   UNL     1       1.316   3.004   0.655  0.00  0.00    -0.085 HD
BRANCH  11  14
ATOM     14  C   UNL     1       0.807   4.989   1.107  0.00  0.00    -0.071 C 
ATOM     15  C   UNL     1       0.753   5.189  -0.409  0.00  0.00    -0.013 C 
ATOM     16  C   UNL     1       0.821   6.683  -0.729  0.00  0.00    +0.030 C 
ATOM     17  C   UNL     1       2.128   7.263  -0.185  0.00  0.00    +0.114 C 
ATOM     18  C   UNL     1       2.182   7.063   1.331  0.00  0.00    +0.030 C 
ATOM     19  C   UNL     1       2.114   5.569   1.652  0.00  0.00    -0.013 C 
BRANCH  17  20
ATOM     20  O   UNL     1       3.236   6.594  -0.792  0.00  0.00    -0.392 OA
ATOM     21  H   UNL     1       4.264   6.877  -0.523  0.00  0.00    +0.210 HD
ENDBRANCH  17  20
ENDBRANCH  11  14
ENDBRANCH   1  11
BRANCH   1  23
ATOM     22  C   UNL     1      -0.125   1.171  -0.108  0.00  0.00    +0.002 C 
ATOM     23  C   UNL     1      -0.667   1.556   1.270  0.00  0.00    -0.014 C 
ENDBRANCH   1  23
TORSDOF 6
