REMARK  Name = ZINC02213516
REMARK  8 active torsions:
REMARK  status: ('A' for Active; 'I' for Inactive)
REMARK    1  A    between atoms: C_1  and  C_2
REMARK    2  A    between atoms: N_8  and  C_9
REMARK    3  A    between atoms: C_9  and  C_10
REMARK    4  A    between atoms: C_15  and  C_23
REMARK    5  A    between atoms: C_17  and  C_21
REMARK    6  A    between atoms: C_18  and  N_20
REMARK    7  A    between atoms: C_27  and  O_29
REMARK    8  A    between atoms: O_29  and  C_30
REMARK                            x       y       z     vdW  Elec       q    Type
REMARK                         _______ _______ _______ _____ _____    ______ ____
ROOT
ATOM      1  C   UNL     1      -0.018   1.503   0.010  0.00  0.00    +0.064 C 
ATOM      2  C   UNL     1       0.002  -0.004   0.002  0.00  0.00    +0.023 A 
ATOM      3  C   UNL     1       0.005  -0.663  -1.176  0.00  0.00    +0.068 A 
ATOM      4  C   UNL     1       0.025  -2.074  -1.190  0.00  0.00    +0.141 A 
ATOM      5  C   UNL     1       0.040  -2.753   0.010  0.00  0.00    +0.072 A 
ATOM      6  C   UNL     1       0.036  -2.026   1.208  0.00  0.00    +0.260 A 
ATOM      7  O   UNL     1       0.049  -2.614   2.278  0.00  0.00    -0.267 OA
ATOM      8  N   UNL     1       0.022  -0.680   1.180  0.00  0.00    -0.305 N 
ATOM      9  C   UNL     1       0.063  -4.256   0.043  0.00  0.00    +0.103 C 
ATOM     10  C   UNL     1      -0.333  -4.809  -1.299  0.00  0.00    +0.098 C 
ATOM     11  C   UNL     1      -0.328  -4.032  -2.407  0.00  0.00    +0.199 C 
ATOM     12  O   UNL     1       0.029  -2.736  -2.366  0.00  0.00    -0.441 OA
ENDROOT
BRANCH   9  13
ATOM     13  C   UNL     1       1.453  -4.728   0.384  0.00  0.00    -0.031 A 
ATOM     14  C   UNL     1       2.517  -4.388  -0.431  0.00  0.00    +0.005 A 
ATOM     15  C   UNL     1       3.793  -4.819  -0.120  0.00  0.00    +0.004 A 
ATOM     16  C   UNL     1       4.009  -5.591   1.005  0.00  0.00    +0.045 A 
ATOM     17  C   UNL     1       2.943  -5.933   1.824  0.00  0.00    +0.120 A 
ATOM     18  C   UNL     1       1.663  -5.494   1.514  0.00  0.00    +0.050 A 
BRANCH  17  19
ATOM     19  O   UNL     1       3.152  -6.692   2.932  0.00  0.00    -0.495 OA
ATOM     20  C   UNL     1       4.495  -7.103   3.193  0.00  0.00    +0.277 C 
ENDBRANCH  17  19
ENDBRANCH   9  13
BRANCH  11  21
ATOM     21  N   UNL     1      -0.696  -4.583  -3.609  0.00  0.00    -0.328 N 
ATOM     22  H   UNL     1      -0.955  -5.517  -3.655  0.00  0.00    +0.145 HD
ATOM     23  H   UNL     1      -0.698  -4.039  -4.412  0.00  0.00    +0.145 HD
ENDBRANCH  11  21
BRANCH  10  24
ATOM     24  C   UNL     1      -0.721  -6.183  -1.406  0.00  0.00    +0.101 C 
ATOM     25  N   UNL     1      -1.029  -7.273  -1.491  0.00  0.00    -0.191 NA
ENDBRANCH  10  24
BRANCH   8  26
ATOM     26  C   UNL     1       0.024   0.067   2.441  0.00  0.00    +0.199 C 
BRANCH  26  27
ATOM     27  C   UNL     1      -1.396   0.303   2.886  0.00  0.00    +0.125 A 
ATOM     28  C   UNL     1      -2.118  -0.509   3.679  0.00  0.00    +0.046 A 
ATOM     29  C   UNL     1      -3.386   0.094   3.838  0.00  0.00    +0.041 A 
ATOM     30  C   UNL     1      -3.364   1.239   3.133  0.00  0.00    +0.195 A 
ATOM     31  O   UNL     1      -2.155   1.363   2.563  0.00  0.00    -0.466 OA
ENDBRANCH  26  27
ENDBRANCH   8  26
TORSDOF 6
