REMARK  Name = ZINC42981659
REMARK  11 active torsions:
REMARK  status: ('A' for Active; 'I' for Inactive)
REMARK    1  A    between atoms: C_1  and  C_2
REMARK    2  A    between atoms: C_3  and  C_7
REMARK    3  A    between atoms: C_10  and  S_13
REMARK    4  A    between atoms: N_11  and  N_12
REMARK    5  A    between atoms: S_13  and  C_14
REMARK    6  A    between atoms: C_14  and  C_16
REMARK    7  A    between atoms: C_14  and  C_19
REMARK    8  A    between atoms: C_16  and  C_17
REMARK    9  A    between atoms: C_16  and  C_18
REMARK   10  A    between atoms: N_21  and  C_22
REMARK   11  A    between atoms: N_21  and  C_23
REMARK                            x       y       z     vdW  Elec       q    Type
REMARK                         _______ _______ _______ _____ _____    ______ ____
ROOT
ATOM      1  S   UNL     1      -6.288  -0.867  -0.144  0.00  0.00    -0.071 S 
ENDROOT
BRANCH   1   5
ATOM      2  C   UNL     1      -6.774  -2.701  -3.560  0.00  0.00    +0.185 A 
ATOM      3  N   UNL     1      -7.578  -1.670  -3.669  0.00  0.00    -0.127 NA
ATOM      4  N   UNL     1      -7.526  -0.958  -2.600  0.00  0.00    -0.121 NA
ATOM      5  C   UNL     1      -6.686  -1.490  -1.743  0.00  0.00    +0.209 A 
ATOM      6  N   UNL     1      -6.182  -2.623  -2.321  0.00  0.00    -0.224 N 
BRANCH   2   9
ATOM      7  C   UNL     1      -8.128  -2.876  -6.382  0.00  0.00    +0.087 C 
ATOM      8  C   UNL     1      -7.130  -3.845  -5.803  0.00  0.00    +0.112 A 
ATOM      9  C   UNL     1      -6.552  -3.754  -4.575  0.00  0.00    +0.061 A 
ATOM     10  C   UNL     1      -5.662  -4.916  -4.467  0.00  0.00    +0.053 A 
ATOM     11  C   UNL     1      -5.786  -5.588  -5.623  0.00  0.00    +0.196 A 
ATOM     12  O   UNL     1      -6.664  -4.947  -6.410  0.00  0.00    -0.467 OA
ENDBRANCH   2   9
BRANCH   6  13
ATOM     13  N   UNL     1      -5.277  -3.492  -1.782  0.00  0.00    -0.295 N 
ATOM     14  H   UNL     1      -4.333  -3.218  -2.008  0.00  0.00    +0.163 HD
ATOM     15  H   UNL     1      -5.402  -3.571  -0.783  0.00  0.00    +0.163 HD
ENDBRANCH   6  13
ENDBRANCH   1   5
BRANCH   1  16
ATOM     16  C   UNL     1      -7.180   0.710  -0.054  0.00  0.00    +0.143 C 
BRANCH  16  17
ATOM     17  C   UNL     1      -8.664   0.447  -0.030  0.00  0.00    +0.233 C 
ATOM     18  O   UNL     1      -9.085  -0.615   0.377  0.00  0.00    -0.274 OA
ATOM     19  N   UNL     1      -9.523   1.392  -0.462  0.00  0.00    -0.274 N 
ATOM     20  C   UNL     1      -9.012   2.628  -1.059  0.00  0.00    +0.138 C 
BRANCH  19  21
ATOM     21  C   UNL     1     -10.902   1.192  -0.341  0.00  0.00    +0.036 A 
ATOM     22  C   UNL     1     -11.491   1.152   0.916  0.00  0.00    +0.023 A 
ATOM     23  C   UNL     1     -12.853   0.954   1.033  0.00  0.00    +0.002 A 
ATOM     24  C   UNL     1     -13.630   0.796  -0.100  0.00  0.00    +0.000 A 
ATOM     25  C   UNL     1     -13.046   0.834  -1.353  0.00  0.00    +0.002 A 
ATOM     26  C   UNL     1     -11.686   1.038  -1.477  0.00  0.00    +0.023 A 
ENDBRANCH  19  21
ENDBRANCH  16  17
BRANCH  16  27
ATOM     27  C   UNL     1      -6.774   1.454   1.220  0.00  0.00    +0.005 C 
ATOM     28  C   UNL     1      -6.999   0.548   2.433  0.00  0.00    +0.009 C 
ATOM     29  C   UNL     1      -5.295   1.836   1.138  0.00  0.00    +0.009 C 
ENDBRANCH  16  27
ENDBRANCH   1  16
TORSDOF 7
