REMARK  Name = ZINC10715802
REMARK  6 active torsions:
REMARK  status: ('A' for Active; 'I' for Inactive)
REMARK    1  A    between atoms: C_1  and  C_2
REMARK    2  A    between atoms: C_4  and  N_20
REMARK    3  A    between atoms: C_7  and  N_8
REMARK    4  A    between atoms: C_9  and  C_11
REMARK    5  A    between atoms: C_11  and  S_12
REMARK    6  A    between atoms: S_12  and  C_13
REMARK                            x       y       z     vdW  Elec       q    Type
REMARK                         _______ _______ _______ _____ _____    ______ ____
ROOT
ATOM      1  N   UNL     1      -1.236   2.070  -0.001  0.00  0.00    -0.285 N 
ATOM      2  C   UNL     1      -2.393   1.386  -0.097  0.00  0.00    +0.227 C 
ATOM      3  O   UNL     1      -2.382   0.173  -0.103  0.00  0.00    -0.275 OA
ATOM      4  H   UNL     1      -1.250   3.167   0.079  0.00  0.00    +0.155 HD
ENDROOT
BRANCH   1  11
ATOM      5  C   UNL     1       0.997   3.305  -1.260  0.00  0.00    +0.046 C 
ATOM      6  C   UNL     1       1.099   1.950  -0.610  0.00  0.00    -0.027 A 
ATOM      7  C   UNL     1       2.300   1.268  -0.617  0.00  0.00    +0.038 A 
ATOM      8  C   UNL     1       2.394   0.024  -0.021  0.00  0.00    +0.127 A 
ATOM      9  C   UNL     1       1.286  -0.542   0.584  0.00  0.00    +0.034 A 
ATOM     10  C   UNL     1       0.082   0.134   0.594  0.00  0.00    +0.026 A 
ATOM     11  C   UNL     1      -0.016   1.384  -0.004  0.00  0.00    +0.036 A 
BRANCH   8  12
ATOM     12  N   UNL     1       3.682  -0.705  -0.031  0.00  0.00    +0.056 N 
ATOM     13  O   UNL     1       3.766  -1.801   0.494  0.00  0.00    -0.126 OA
ATOM     14  O   UNL     1       4.659  -0.207  -0.563  0.00  0.00    -0.126 OA
ENDBRANCH   8  12
ENDBRANCH   1  11
BRANCH   2  15
ATOM     15  C   UNL     1      -3.701   2.128  -0.195  0.00  0.00    +0.173 C 
BRANCH  15  16
ATOM     16  S   UNL     1      -5.064   0.937  -0.310  0.00  0.00    -0.075 S 
BRANCH  16  17
ATOM     17  C   UNL     1      -6.504   1.947  -0.417  0.00  0.00    +0.210 A 
ATOM     18  N   UNL     1      -7.792   1.502  -0.526  0.00  0.00    -0.188 NA
ATOM     19  H   UNL     1      -8.112   4.738  -0.534  0.00  0.00    +0.192 HD
ATOM     20  C   UNL     1      -8.612   2.593  -0.586  0.00  0.00    +0.209 A 
ATOM     21  N   UNL     1      -7.864   3.667  -0.518  0.00  0.00    -0.246 N 
ATOM     22  N   UNL     1      -6.529   3.258  -0.406  0.00  0.00    -0.144 NA
ATOM     23  N   UNL     1      -9.996   2.568  -0.700  0.00  0.00    -0.328 N 
ATOM     24  H   UNL     1     -10.562   3.511  -0.740  0.00  0.00    +0.145 HD
ATOM     25  H   UNL     1     -10.527   1.606  -0.750  0.00  0.00    +0.145 HD
ENDBRANCH  16  17
ENDBRANCH  15  16
ENDBRANCH   2  15
TORSDOF 5
