REMARK  Name = ZINC13408439
REMARK  7 active torsions:
REMARK  status: ('A' for Active; 'I' for Inactive)
REMARK    1  A    between atoms: C_1  and  C_2
REMARK    2  A    between atoms: C_2  and  C_3
REMARK    3  A    between atoms: C_14  and  C_16
REMARK    4  A    between atoms: N_18  and  C_19
REMARK    5  A    between atoms: C_19  and  C_25
REMARK    6  A    between atoms: C_21  and  C_23
REMARK    7  A    between atoms: C_23  and  C_24
REMARK                            x       y       z     vdW  Elec       q    Type
REMARK                         _______ _______ _______ _____ _____    ______ ____
ROOT
ATOM      1  C   UNL     1       4.204  -2.421  -5.105  0.00  0.00    +0.013 C 
ATOM      2  C   UNL     1       4.904  -2.701  -3.765  0.00  0.00    +0.019 C 
ATOM      3  C   UNL     1       4.812  -1.428  -2.950  0.00  0.00    +0.063 C 
ATOM      4  C   UNL     1       3.322  -1.258  -2.557  0.00  0.00    +0.034 C 
ATOM      5  C   UNL     1       3.402  -0.106  -1.560  0.00  0.00    +0.016 C 
ATOM      6  C   UNL     1       4.667  -0.480  -0.737  0.00  0.00    +0.075 C 
ATOM      7  C   UNL     1       5.514  -1.386  -1.628  0.00  0.00    +0.137 C 
ATOM      8  O   UNL     1       6.538  -1.952  -1.328  0.00  0.00    -0.297 OA
ATOM      9  C   UNL     1       2.561  -1.017  -3.813  0.00  0.00    +0.014 C 
ATOM     10  C   UNL     1       2.982  -1.569  -4.945  0.00  0.00    -0.015 C 
ENDROOT
BRANCH   9  11
ATOM     11  C   UNL     1       1.359  -0.170  -3.803  0.00  0.00    +0.241 C 
ATOM     12  O   UNL     1       0.917   0.245  -2.748  0.00  0.00    -0.271 OA
ATOM     13  N   UNL     1       0.747   0.147  -4.961  0.00  0.00    -0.296 N 
ATOM     14  H   UNL     1       1.060  -0.237  -5.795  0.00  0.00    +0.150 HD
BRANCH  13  15
ATOM     15  C   UNL     1      -0.390   1.070  -4.960  0.00  0.00    +0.139 C 
ATOM     16  C   UNL     1      -1.789   0.469  -5.122  0.00  0.00    +0.044 C 
ATOM     17  C   UNL     1      -1.154   1.251  -6.274  0.00  0.00    +0.026 C 
BRANCH  15  18
ATOM     18  C   UNL     1      -0.250   2.274  -4.066  0.00  0.00    +0.379 C 
ATOM     19  O   UNL     1      -1.114   3.118  -4.048  0.00  0.00    -0.244 OA
ATOM     20  O   UNL     1       0.836   2.410  -3.288  0.00  0.00    -0.244 OA
ENDBRANCH  15  18
BRANCH  17  21
ATOM     21  C   UNL     1      -0.671   0.454  -7.487  0.00  0.00    +0.003 C 
ATOM     22  C   UNL     1      -1.479   0.863  -8.720  0.00  0.00    +0.004 C 
ENDBRANCH  17  21
ENDBRANCH  13  15
ENDBRANCH   9  11
BRANCH   1  24
ATOM     23  C   UNL     1       3.279  -3.509  -7.155  0.00  0.00    +0.004 C 
ATOM     24  C   UNL     1       3.798  -3.754  -5.737  0.00  0.00    +0.004 C 
ENDBRANCH   1  24
TORSDOF 5
