REMARK  Name = ZINC13304693
REMARK  3 active torsions:
REMARK  status: ('A' for Active; 'I' for Inactive)
REMARK    1  A    between atoms: C_1  and  C_2
REMARK    2  A    between atoms: C_7  and  C_8
REMARK    3  A    between atoms: N_16  and  C_19
REMARK                            x       y       z     vdW  Elec       q    Type
REMARK                         _______ _______ _______ _____ _____    ______ ____
ROOT
ATOM      1  C   UNL     1       0.292   0.061   2.412  0.00  0.00    +0.163 C 
ATOM      2  C   UNL     1       1.735   0.530   2.700  0.00  0.00    +0.125 C 
ATOM      3  C   UNL     1       1.876   0.375   4.242  0.00  0.00    +0.138 C 
ATOM      4  C   UNL     1       2.019   1.801   4.723  0.00  0.00    +0.234 C 
ATOM      5  O   UNL     1       2.152   2.140   5.879  0.00  0.00    -0.274 OA
ATOM      6  N   UNL     1       1.976   2.631   3.675  0.00  0.00    -0.210 N 
ATOM      7  C   UNL     1       1.825   2.022   2.473  0.00  0.00    +0.233 C 
ATOM      8  O   UNL     1       1.768   2.571   1.394  0.00  0.00    -0.274 OA
ATOM      9  C   UNL     1       0.518  -0.199   4.675  0.00  0.00    +0.206 C 
ATOM     10  O   UNL     1      -0.050  -0.809   3.514  0.00  0.00    -0.348 OA
ATOM     11  C   UNL     1      -0.389   0.887   5.184  0.00  0.00    +0.204 C 
ATOM     12  O   UNL     1      -0.763   1.862   4.568  0.00  0.00    -0.288 OA
ATOM     13  C   UNL     1      -0.737   0.540   6.575  0.00  0.00    +0.031 A 
ATOM     14  C   UNL     1      -1.542   1.201   7.505  0.00  0.00    +0.012 A 
ATOM     15  C   UNL     1      -1.720   0.672   8.769  0.00  0.00    +0.001 A 
ATOM     16  C   UNL     1      -1.103  -0.515   9.124  0.00  0.00    +0.001 A 
ATOM     17  C   UNL     1      -0.303  -1.186   8.220  0.00  0.00    +0.012 A 
ATOM     18  C   UNL     1      -0.110  -0.668   6.937  0.00  0.00    +0.031 A 
ATOM     19  C   UNL     1       0.682  -1.180   5.802  0.00  0.00    +0.204 C 
ATOM     20  O   UNL     1       1.341  -2.198   5.782  0.00  0.00    -0.288 OA
ENDROOT
BRANCH   1  27
ATOM     21  C   UNL     1      -0.275   1.460  -0.052  0.00  0.00    +0.044 C 
ATOM     22  C   UNL     1      -0.033  -0.028  -0.069  0.00  0.00    -0.045 A 
ATOM     23  C   UNL     1      -0.077  -0.722  -1.263  0.00  0.00    +0.004 A 
ATOM     24  C   UNL     1       0.144  -2.086  -1.278  0.00  0.00    +0.000 A 
ATOM     25  C   UNL     1       0.410  -2.756  -0.099  0.00  0.00    +0.000 A 
ATOM     26  C   UNL     1       0.455  -2.062   1.096  0.00  0.00    +0.006 A 
ATOM     27  C   UNL     1       0.238  -0.697   1.110  0.00  0.00    -0.015 A 
ENDBRANCH   1  27
BRANCH   6  28
ATOM     28  C   UNL     1       2.084   4.023   3.805  0.00  0.00    +0.047 A 
ATOM     29  C   UNL     1       0.991   4.834   3.533  0.00  0.00    +0.024 A 
ATOM     30  C   UNL     1       1.099   6.205   3.661  0.00  0.00    +0.005 A 
ATOM     31  C   UNL     1       2.295   6.771   4.061  0.00  0.00    +0.038 A 
ATOM     32  C   UNL     1       3.389   5.966   4.333  0.00  0.00    +0.125 A 
ATOM     33  C   UNL     1       3.283   4.591   4.212  0.00  0.00    +0.062 A 
ATOM     34  F   UNL     1       4.556   6.521   4.723  0.00  0.00    -0.205 F 
ENDBRANCH   6  28
TORSDOF 2
