REMARK  Name = ZINC36050848
REMARK  10 active torsions:
REMARK  status: ('A' for Active; 'I' for Inactive)
REMARK    1  A    between atoms: C_1  and  C_2
REMARK    2  A    between atoms: C_3  and  C_31
REMARK    3  A    between atoms: C_4  and  C_24
REMARK    4  A    between atoms: C_7  and  C_12
REMARK    5  A    between atoms: C_13  and  N_15
REMARK    6  A    between atoms: N_15  and  C_16
REMARK    7  A    between atoms: N_15  and  C_17
REMARK    8  A    between atoms: C_17  and  C_18
REMARK    9  A    between atoms: C_31  and  O_33
REMARK   10  A    between atoms: O_33  and  C_34
REMARK                            x       y       z     vdW  Elec       q    Type
REMARK                         _______ _______ _______ _____ _____    ______ ____
ROOT
ATOM      1  C   UNL     1       0.433   1.226   0.566  0.00  0.00    +0.066 C 
ATOM      2  C   UNL     1       0.328  -0.248   0.271  0.00  0.00    +0.053 C 
ATOM      3  C   UNL     1      -0.915  -0.846   0.196  0.00  0.00    +0.082 C 
ATOM      4  C   UNL     1      -0.969  -2.327  -0.104  0.00  0.00    +0.150 C 
ATOM      5  N   UNL     1       0.330  -3.026  -0.295  0.00  0.00    -0.267 N 
ATOM      6  C   UNL     1       0.521  -4.364  -0.575  0.00  0.00    +0.048 C 
ATOM      7  C   UNL     1       1.792  -4.802  -0.712  0.00  0.00    +0.072 C 
ATOM      8  S   UNL     1       2.726  -3.309  -0.443  0.00  0.00    -0.060 S 
ATOM      9  C   UNL     1       1.450  -2.251  -0.179  0.00  0.00    +0.166 C 
ATOM     10  N   UNL     1       1.427  -0.959   0.079  0.00  0.00    -0.230 NA
ENDROOT
BRANCH   4  11
ATOM     11  C   UNL     1      -1.696  -3.003   1.029  0.00  0.00    -0.019 A 
ATOM     12  C   UNL     1      -1.067  -3.178   2.248  0.00  0.00    +0.006 A 
ATOM     13  C   UNL     1      -1.733  -3.799   3.288  0.00  0.00    +0.003 A 
ATOM     14  C   UNL     1      -3.029  -4.245   3.111  0.00  0.00    +0.038 A 
ATOM     15  C   UNL     1      -3.660  -4.071   1.891  0.00  0.00    +0.124 A 
ATOM     16  C   UNL     1      -2.994  -3.444   0.852  0.00  0.00    +0.044 A 
ATOM     17  F   UNL     1      -4.926  -4.508   1.717  0.00  0.00    -0.205 F 
ENDBRANCH   4  11
BRANCH   6  18
ATOM     18  C   UNL     1      -0.619  -5.281  -0.718  0.00  0.00    +0.091 C 
ATOM     19  C   UNL     1      -0.406  -6.603  -0.862  0.00  0.00    +0.241 C 
ATOM     20  O   UNL     1       0.848  -7.104  -0.749  0.00  0.00    -0.271 OA
BRANCH  19  21
ATOM     21  N   UNL     1      -1.468  -7.451  -1.126  0.00  0.00    -0.297 N 
ATOM     22  C   UNL     1      -2.841  -6.941  -1.085  0.00  0.00    +0.132 C 
BRANCH  21  23
ATOM     23  C   UNL     1      -1.220  -8.859  -1.446  0.00  0.00    +0.142 C 
BRANCH  23  24
ATOM     24  C   UNL     1      -1.339  -9.688  -0.193  0.00  0.00    -0.030 A 
ATOM     25  C   UNL     1      -0.227  -9.906   0.599  0.00  0.00    +0.005 A 
ATOM     26  C   UNL     1      -0.336 -10.666   1.748  0.00  0.00    +0.000 A 
ATOM     27  C   UNL     1      -1.556 -11.208   2.106  0.00  0.00    +0.000 A 
ATOM     28  C   UNL     1      -2.668 -10.989   1.314  0.00  0.00    +0.000 A 
ATOM     29  C   UNL     1      -2.560 -10.225   0.167  0.00  0.00    +0.005 A 
ENDBRANCH  23  24
ENDBRANCH  21  23
ENDBRANCH  19  21
ENDBRANCH   6  18
BRANCH   3  30
ATOM     30  C   UNL     1      -2.087  -0.105   0.391  0.00  0.00    +0.339 C 
ATOM     31  O   UNL     1      -2.021   1.088   0.632  0.00  0.00    -0.245 OA
BRANCH  30  32
ATOM     32  O   UNL     1      -3.292  -0.712   0.313  0.00  0.00    -0.465 OA
ATOM     33  C   UNL     1      -4.445   0.105   0.523  0.00  0.00    +0.280 C 
ENDBRANCH  30  32
ENDBRANCH   3  30
TORSDOF 7
