REMARK  Name = ZINC15587970
REMARK  3 active torsions:
REMARK  status: ('A' for Active; 'I' for Inactive)
REMARK    1  A    between atoms: C_3  and  N_9
REMARK    2  A    between atoms: C_10  and  C_12
REMARK    3  A    between atoms: C_13  and  C_14
REMARK                            x       y       z     vdW  Elec       q    Type
REMARK                         _______ _______ _______ _____ _____    ______ ____
ROOT
ATOM      1  N   UNL     1       3.621  -0.654  -0.035  0.00  0.00    -0.281 N 
ATOM      2  C   UNL     1       3.642  -1.999   0.059  0.00  0.00    +0.241 C 
ATOM      3  O   UNL     1       2.598  -2.625   0.066  0.00  0.00    -0.270 OA
ATOM      4  H   UNL     1       4.452  -0.161  -0.122  0.00  0.00    +0.155 HD
ENDROOT
BRANCH   1   7
ATOM      5  C   UNL     1       0.092   0.134   0.631  0.00  0.00    +0.003 A 
ATOM      6  C   UNL     1       1.296  -0.543   0.606  0.00  0.00    +0.025 A 
ATOM      7  C   UNL     1       2.401   0.029  -0.010  0.00  0.00    +0.054 A 
ATOM      8  C   UNL     1       2.292   1.283  -0.600  0.00  0.00    +0.080 A 
ATOM      9  C   UNL     1       1.085   1.956  -0.572  0.00  0.00    +0.061 A 
ATOM     10  C   UNL     1      -0.014   1.381   0.043  0.00  0.00    +0.021 A 
ATOM     11 CL   UNL     1       0.946   3.522  -1.309  0.00  0.00    -0.082 Cl
ATOM     12 CL   UNL     1       3.671   2.003  -1.371  0.00  0.00    -0.080 Cl
ENDBRANCH   1   7
BRANCH   2  13
ATOM     13  C   UNL     1       4.877  -2.682   0.151  0.00  0.00    +0.071 C 
ATOM     14  C   UNL     1       4.899  -4.035   0.246  0.00  0.00    +0.051 C 
BRANCH  14  15
ATOM     15  C   UNL     1       6.135  -4.718   0.338  0.00  0.00    +0.129 A 
ATOM     16  C   UNL     1       6.303  -6.084   0.445  0.00  0.00    +0.050 A 
ATOM     17  C   UNL     1       7.685  -6.313   0.504  0.00  0.00    +0.057 A 
ATOM     18  C   UNL     1       8.294  -5.106   0.442  0.00  0.00    +0.171 A 
ATOM     19  O   UNL     1       7.359  -4.150   0.342  0.00  0.00    -0.449 OA
ATOM     20 BR   UNL     1      10.162  -4.814   0.487  0.00  0.00    -0.008 Br
ENDBRANCH  14  15
ENDBRANCH   2  13
TORSDOF 3
