REMARK  Name = ZINC40116947
REMARK  7 active torsions:
REMARK  status: ('A' for Active; 'I' for Inactive)
REMARK    1  A    between atoms: C_1  and  C_2
REMARK    2  A    between atoms: C_5  and  C_8
REMARK    3  A    between atoms: C_8  and  C_10
REMARK    4  A    between atoms: C_15  and  C_17
REMARK    5  A    between atoms: C_19  and  O_25
REMARK    6  A    between atoms: C_20  and  O_24
REMARK    7  A    between atoms: O_25  and  C_26
REMARK                            x       y       z     vdW  Elec       q    Type
REMARK                         _______ _______ _______ _____ _____    ______ ____
ROOT
ATOM      1  C   UNL     1       0.123  -4.924   1.336  0.00  0.00    +0.076 C 
ATOM      2  C   UNL     1       0.224  -6.250   1.589  0.00  0.00    +0.249 C 
ATOM      3  C   UNL     1       0.266  -6.463   3.051  0.00  0.00    +0.285 C 
ATOM      4  O   UNL     1       0.355  -7.546   3.596  0.00  0.00    -0.267 OA
ATOM      5  N   UNL     1       0.191  -5.282   3.690  0.00  0.00    -0.298 N 
ATOM      6  C   UNL     1       0.102  -4.225   2.675  0.00  0.00    +0.142 C 
ATOM      7  O   UNL     1       0.278  -7.225   0.653  0.00  0.00    -0.282 OA
ATOM      8  H   UNL     1       0.198  -5.151   4.651  0.00  0.00    +0.150 HD
ENDROOT
BRANCH   6   9
ATOM      9  C   UNL     1       1.280  -3.292   2.791  0.00  0.00    -0.018 A 
ATOM     10  C   UNL     1       1.089  -1.925   2.692  0.00  0.00    +0.055 A 
ATOM     11  C   UNL     1       2.170  -1.065   2.797  0.00  0.00    +0.163 A 
ATOM     12  C   UNL     1       3.447  -1.579   3.004  0.00  0.00    +0.173 A 
ATOM     13  C   UNL     1       3.631  -2.950   3.103  0.00  0.00    +0.063 A 
ATOM     14  C   UNL     1       2.546  -3.802   3.001  0.00  0.00    +0.025 A 
ATOM     15 BR   UNL     1       5.364  -3.653   3.384  0.00  0.00    -0.046 Br
BRANCH  12  16
ATOM     16  O   UNL     1       4.511  -0.739   3.108  0.00  0.00    -0.503 OA
ATOM     17  H   UNL     1       4.697  -0.449   4.012  0.00  0.00    +0.292 HD
ENDBRANCH  12  16
BRANCH  11  18
ATOM     18  O   UNL     1       1.984   0.278   2.699  0.00  0.00    -0.491 OA
ATOM     19  C   UNL     1       0.669   0.729   2.371  0.00  0.00    +0.277 C 
ENDBRANCH  11  18
ENDBRANCH   6   9
BRANCH   1  20
ATOM     20  C   UNL     1       0.053  -4.289   0.017  0.00  0.00    +0.195 C 
ATOM     21  O   UNL     1       1.009  -4.340  -0.734  0.00  0.00    -0.287 OA
BRANCH  20  26
ATOM     22  C   UNL     1      -4.742  -1.554  -1.610  0.00  0.00    +0.044 C 
ATOM     23  C   UNL     1      -3.486  -2.270  -1.184  0.00  0.00    -0.050 A 
ATOM     24  C   UNL     1      -2.375  -2.263  -2.010  0.00  0.00    +0.004 A 
ATOM     25  C   UNL     1      -1.223  -2.916  -1.626  0.00  0.00    +0.012 A 
ATOM     26  C   UNL     1      -1.179  -3.586  -0.401  0.00  0.00    +0.022 A 
ATOM     27  C   UNL     1      -2.303  -3.588   0.427  0.00  0.00    +0.012 A 
ATOM     28  C   UNL     1      -3.447  -2.926   0.034  0.00  0.00    +0.004 A 
ENDBRANCH  20  26
ENDBRANCH   1  20
TORSDOF 5
