REMARK  Name = ZINC64739933
REMARK  7 active torsions:
REMARK  status: ('A' for Active; 'I' for Inactive)
REMARK    1  A    between atoms: C_1  and  C_2
REMARK    2  A    between atoms: C_2  and  C_3
REMARK    3  A    between atoms: C_3  and  S_4
REMARK    4  A    between atoms: S_4  and  C_5
REMARK    5  A    between atoms: C_11  and  C_19
REMARK    6  A    between atoms: N_21  and  C_22
REMARK    7  A    between atoms: C_25  and  C_28
REMARK                            x       y       z     vdW  Elec       q    Type
REMARK                         _______ _______ _______ _____ _____    ______ ____
ROOT
ATOM      1  C   UNL     1       1.582  -2.745  -2.764  0.00  0.00    +0.182 C 
ATOM      2  N   UNL     1       2.003  -1.740  -3.512  0.00  0.00    -0.154 NA
ATOM      3  C   UNL     1       2.713  -1.932  -4.626  0.00  0.00    +0.249 C 
ATOM      4  O   UNL     1       3.073  -1.003  -5.322  0.00  0.00    -0.273 OA
ATOM      5  C   UNL     1       3.048  -3.366  -4.980  0.00  0.00    +0.153 C 
ATOM      6  C   UNL     1       2.550  -3.638  -6.401  0.00  0.00    +0.103 C 
ATOM      7  C   UNL     1       3.034  -5.025  -6.831  0.00  0.00    +0.110 C 
ATOM      8  C   UNL     1       2.735  -6.051  -5.777  0.00  0.00    +0.219 C 
ATOM      9  O   UNL     1       2.731  -7.222  -6.093  0.00  0.00    -0.275 OA
ATOM     10  N   UNL     1       2.472  -5.730  -4.499  0.00  0.00    -0.273 N 
ATOM     11  C   UNL     1       2.417  -4.430  -4.099  0.00  0.00    +0.117 C 
ATOM     12  N   UNL     1       1.755  -4.042  -3.047  0.00  0.00    -0.212 NA
ATOM     13  H   UNL     1       2.332  -6.434  -3.846  0.00  0.00    +0.156 HD
ENDROOT
BRANCH   6  14
ATOM     14  C   UNL     1       3.099  -2.594  -7.338  0.00  0.00    +0.222 C 
ATOM     15  O   UNL     1       4.295  -2.405  -7.402  0.00  0.00    -0.275 OA
ATOM     16  N   UNL     1       2.260  -1.868  -8.104  0.00  0.00    -0.285 N 
ATOM     17  H   UNL     1       1.301  -1.963  -7.997  0.00  0.00    +0.155 HD
BRANCH  16  18
ATOM     18  C   UNL     1       2.773  -0.978  -9.053  0.00  0.00    +0.033 A 
ATOM     19  C   UNL     1       2.116   0.217  -9.313  0.00  0.00    +0.023 A 
ATOM     20  C   UNL     1       2.626   1.094 -10.251  0.00  0.00    +0.005 A 
ATOM     21  C   UNL     1       3.789   0.782 -10.932  0.00  0.00    -0.050 A 
ATOM     22  C   UNL     1       4.445  -0.408 -10.675  0.00  0.00    +0.005 A 
ATOM     23  C   UNL     1       3.944  -1.286  -9.734  0.00  0.00    +0.023 A 
ATOM     24  C   UNL     1       4.342   1.741 -11.954  0.00  0.00    +0.044 C 
ENDBRANCH  16  18
ENDBRANCH   6  14
BRANCH   1  25
ATOM     25  S   UNL     1       0.732  -2.347  -1.272  0.00  0.00    -0.089 S 
BRANCH  25  26
ATOM     26  C   UNL     1       0.705  -0.533  -1.254  0.00  0.00    +0.077 C 
BRANCH  26  28
ATOM     27  C   UNL     1      -0.037   1.483   0.021  0.00  0.00    +0.004 C 
ATOM     28  C   UNL     1      -0.014  -0.047   0.006  0.00  0.00    +0.008 C 
ENDBRANCH  26  28
ENDBRANCH  25  26
ENDBRANCH   1  25
TORSDOF 5
