REMARK  Name = ZINC07884590
REMARK  6 active torsions:
REMARK  status: ('A' for Active; 'I' for Inactive)
REMARK    1  A    between atoms: C_4  and  C_7
REMARK    2  A    between atoms: C_7  and  C_8
REMARK    3  A    between atoms: C_8  and  N_9
REMARK    4  A    between atoms: C_10  and  C_21
REMARK    5  A    between atoms: C_25  and  O_28
REMARK    6  A    between atoms: C_26  and  O_27
REMARK                            x       y       z     vdW  Elec       q    Type
REMARK                         _______ _______ _______ _____ _____    ______ ____
ROOT
ATOM      1  N   UNL     1       2.361   4.131  -0.269  0.00  0.00    -0.275 N 
ATOM      2  C   UNL     1       3.517   3.461  -0.867  0.00  0.00    +0.196 C 
ATOM      3  N   UNL     1       3.720   2.147  -0.246  0.00  0.00    -0.321 N 
ATOM      4  C   UNL     1       2.611   1.334  -0.034  0.00  0.00    +0.041 A 
ATOM      5  C   UNL     1       2.703  -0.047  -0.043  0.00  0.00    +0.024 A 
ATOM      6  C   UNL     1       1.569  -0.809   0.167  0.00  0.00    +0.002 A 
ATOM      7  C   UNL     1       0.343  -0.201   0.386  0.00  0.00    +0.001 A 
ATOM      8  C   UNL     1       0.235   1.174   0.400  0.00  0.00    +0.015 A 
ATOM      9  C   UNL     1       1.369   1.954   0.191  0.00  0.00    +0.058 A 
ATOM     10  C   UNL     1       1.312   3.427   0.204  0.00  0.00    +0.250 C 
ATOM     11  O   UNL     1       0.331   4.000   0.635  0.00  0.00    -0.270 OA
ATOM     12  H   UNL     1       4.607   1.852   0.012  0.00  0.00    +0.148 HD
ENDROOT
BRANCH   2  13
ATOM     13  C   UNL     1       3.282   3.284  -2.345  0.00  0.00    +0.036 A 
ATOM     14  C   UNL     1       2.372   4.092  -3.002  0.00  0.00    +0.011 A 
ATOM     15  C   UNL     1       2.154   3.933  -4.357  0.00  0.00    +0.004 A 
ATOM     16  C   UNL     1       2.845   2.963  -5.062  0.00  0.00    +0.049 A 
ATOM     17  C   UNL     1       3.757   2.151  -4.410  0.00  0.00    +0.159 A 
ATOM     18  C   UNL     1       3.981   2.316  -3.046  0.00  0.00    +0.165 A 
BRANCH  18  19
ATOM     19  O   UNL     1       4.880   1.524  -2.402  0.00  0.00    -0.503 OA
ATOM     20  H   UNL     1       4.501   0.709  -2.044  0.00  0.00    +0.292 HD
ENDBRANCH  18  19
BRANCH  17  21
ATOM     21  O   UNL     1       4.436   1.197  -5.101  0.00  0.00    -0.503 OA
ATOM     22  H   UNL     1       5.275   1.503  -5.473  0.00  0.00    +0.292 HD
ENDBRANCH  17  21
ENDBRANCH   2  13
BRANCH   1  23
ATOM     23  C   UNL     1       2.343   5.593  -0.183  0.00  0.00    +0.115 C 
BRANCH  23  24
ATOM     24  C   UNL     1       2.872   6.030   1.185  0.00  0.00    +0.054 C 
BRANCH  24  28
ATOM     25  C   UNL     1       2.537  10.273   1.554  0.00  0.00    +0.000 A 
ATOM     26  C   UNL     1       1.495   9.460   1.958  0.00  0.00    +0.000 A 
ATOM     27  C   UNL     1       1.603   8.087   1.838  0.00  0.00    +0.004 A 
ATOM     28  C   UNL     1       2.753   7.527   1.315  0.00  0.00    -0.046 A 
ATOM     29  C   UNL     1       3.798   8.340   0.916  0.00  0.00    +0.004 A 
ATOM     30  C   UNL     1       3.687   9.713   1.030  0.00  0.00    +0.000 A 
ENDBRANCH  24  28
ENDBRANCH  23  24
ENDBRANCH   1  23
TORSDOF 6
