REMARK  Name = ZINC08951962
REMARK  8 active torsions:
REMARK  status: ('A' for Active; 'I' for Inactive)
REMARK    1  A    between atoms: C_1  and  C_2
REMARK    2  A    between atoms: C_2  and  C_3
REMARK    3  A    between atoms: C_9  and  C_10
REMARK    4  A    between atoms: C_9  and  N_61
REMARK    5  A    between atoms: C_11  and  O_34
REMARK    6  A    between atoms: C_20  and  C_21
REMARK    7  A    between atoms: C_27  and  O_32
REMARK    8  A    between atoms: O_32  and  C_33
REMARK                            x       y       z     vdW  Elec       q    Type
REMARK                         _______ _______ _______ _____ _____    ______ ____
ROOT
ATOM      1  C   UNL     1      -4.245  -1.209  -1.695  0.00  0.00    +0.020 A 
ATOM      2  C   UNL     1      -3.855  -0.343  -2.704  0.00  0.00    +0.122 A 
ATOM      3  C   UNL     1      -2.714   0.442  -2.559  0.00  0.00    +0.046 A 
ATOM      4  C   UNL     1      -1.964   0.368  -1.419  0.00  0.00    +0.016 A 
ATOM      5  C   UNL     1      -2.344  -0.500  -0.394  0.00  0.00    +0.026 A 
ATOM      6  C   UNL     1      -3.495  -1.296  -0.532  0.00  0.00    +0.144 A 
ATOM      7  O   UNL     1      -3.860  -2.134   0.462  0.00  0.00    -0.422 OA
ATOM      8  C   UNL     1      -3.153  -2.238   1.599  0.00  0.00    +0.338 A 
ATOM      9  O   UNL     1      -3.531  -3.012   2.462  0.00  0.00    -0.245 OA
ATOM     10  C   UNL     1      -1.988  -1.488   1.818  0.00  0.00    +0.101 A 
ATOM     11  C   UNL     1      -1.555  -0.601   0.846  0.00  0.00    +0.006 A 
ENDROOT
BRANCH  11  12
ATOM     12  C   UNL     1      -0.339   0.210   1.043  0.00  0.00    +0.068 A 
ATOM     13  C   UNL     1       0.900  -0.393   1.148  0.00  0.00    +0.027 A 
ATOM     14  C   UNL     1       2.044   0.425   1.336  0.00  0.00    +0.022 A 
ATOM     15  C   UNL     1       3.317  -0.155   1.447  0.00  0.00    +0.012 A 
ATOM     16  C   UNL     1       4.414   0.636   1.629  0.00  0.00    +0.004 A 
ATOM     17  C   UNL     1       4.283   2.015   1.706  0.00  0.00    +0.049 A 
ATOM     18  C   UNL     1       3.040   2.611   1.599  0.00  0.00    +0.163 A 
ATOM     19  C   UNL     1       1.904   1.821   1.413  0.00  0.00    +0.180 A 
ATOM     20  O   UNL     1       0.690   2.403   1.310  0.00  0.00    -0.418 OA
ATOM     21  C   UNL     1      -0.423   1.673   1.131  0.00  0.00    +0.345 A 
ATOM     22  O   UNL     1      -1.503   2.226   1.036  0.00  0.00    -0.245 OA
BRANCH  18  23
ATOM     23  O   UNL     1       2.924   3.963   1.676  0.00  0.00    -0.491 OA
ATOM     24  C   UNL     1       4.128   4.708   1.868  0.00  0.00    +0.277 C 
ENDBRANCH  18  23
ENDBRANCH  11  12
BRANCH   2  25
ATOM     25  O   UNL     1      -4.591  -0.259  -3.842  0.00  0.00    -0.506 OA
ATOM     26  H   UNL     1      -5.291   0.407  -3.809  0.00  0.00    +0.292 HD
ENDBRANCH   2  25
BRANCH   1  27
ATOM     27  C   UNL     1      -5.482  -2.054  -1.861  0.00  0.00    -0.035 C 
BRANCH  27  33
ATOM     28  C   UNL     1      -7.836  -2.185  -1.312  0.00  0.00    -0.068 C 
ATOM     29  C   UNL     1      -8.990  -1.439  -0.638  0.00  0.00    -0.015 C 
ATOM     30  C   UNL     1      -9.289  -0.158  -1.421  0.00  0.00    -0.003 C 
ATOM     31  C   UNL     1      -8.022   0.700  -1.484  0.00  0.00    -0.019 C 
ATOM     32  C   UNL     1      -6.896  -0.108  -2.134  0.00  0.00    -0.078 C 
ATOM     33  N   UNL     1      -6.641  -1.315  -1.319  0.00  0.00    +0.384 N 
ATOM     34  H   UNL     1      -6.432  -1.028  -0.355  0.00  0.00    -0.081 HD
BRANCH  28  36
ATOM     35  C   UNL     1      -8.731  -4.392  -0.555  0.00  0.00    +0.002 C 
ATOM     36  C   UNL     1      -7.520  -3.457  -0.521  0.00  0.00    -0.019 C 
ENDBRANCH  28  36
ENDBRANCH  27  33
ENDBRANCH   1  27
TORSDOF 6
