REMARK  Name = ZINC07799644
REMARK  9 active torsions:
REMARK  status: ('A' for Active; 'I' for Inactive)
REMARK    1  A    between atoms: C_1  and  C_2
REMARK    2  A    between atoms: C_2  and  C_3
REMARK    3  A    between atoms: C_3  and  C_4
REMARK    4  A    between atoms: C_4  and  N_5
REMARK    5  A    between atoms: C_6  and  N_27
REMARK    6  A    between atoms: C_7  and  N_14
REMARK    7  A    between atoms: N_14  and  C_15
REMARK    8  A    between atoms: C_16  and  C_18
REMARK    9  A    between atoms: C_19  and  C_20
REMARK                            x       y       z     vdW  Elec       q    Type
REMARK                         _______ _______ _______ _____ _____    ______ ____
ROOT
ATOM      1  N   UNL     1       9.690   1.219  -0.536  0.00  0.00    -0.280 N 
ATOM      2  C   UNL     1       8.482   1.841  -0.317  0.00  0.00    +0.127 A 
ATOM      3  C   UNL     1       7.328   1.084  -0.297  0.00  0.00    +0.140 A 
ATOM      4  C   UNL     1       7.422  -0.304  -0.514  0.00  0.00    +0.277 A 
ATOM      5  O   UNL     1       6.418  -0.996  -0.507  0.00  0.00    -0.266 OA
ATOM      6  N   UNL     1       8.629  -0.863  -0.730  0.00  0.00    -0.273 N 
ATOM      7  H   UNL     1       8.697  -1.849  -0.884  0.00  0.00    +0.173 HD
ATOM      8  C   UNL     1       9.744  -0.110  -0.741  0.00  0.00    +0.331 A 
ATOM      9  O   UNL     1      10.820  -0.640  -0.938  0.00  0.00    -0.246 OA
ENDROOT
BRANCH   3  10
ATOM     10  N   UNL     1       6.076   1.691  -0.070  0.00  0.00    -0.264 N 
ATOM     11  C   UNL     1       5.323   1.383   1.149  0.00  0.00    +0.139 C 
ATOM     12  C   UNL     1       5.572   2.554  -0.974  0.00  0.00    +0.244 C 
ATOM     13  O   UNL     1       6.240   2.888  -1.936  0.00  0.00    -0.270 OA
BRANCH  12  14
ATOM     14  C   UNL     1       4.221   3.092  -0.798  0.00  0.00    +0.068 C 
ATOM     15  C   UNL     1       3.717   3.955  -1.702  0.00  0.00    +0.013 C 
BRANCH  15  16
ATOM     16  C   UNL     1       2.359   4.496  -1.526  0.00  0.00    -0.023 A 
ATOM     17  C   UNL     1       1.589   4.115  -0.422  0.00  0.00    +0.008 A 
ATOM     18  C   UNL     1       0.318   4.625  -0.264  0.00  0.00    +0.002 A 
ATOM     19  C   UNL     1      -0.198   5.511  -1.193  0.00  0.00    +0.020 A 
ATOM     20  C   UNL     1       0.560   5.897  -2.286  0.00  0.00    +0.042 A 
ATOM     21  C   UNL     1       1.833   5.392  -2.461  0.00  0.00    +0.028 A 
ATOM     22 CL   UNL     1      -0.094   7.016  -3.442  0.00  0.00    -0.084 Cl
ENDBRANCH  15  16
ENDBRANCH  12  14
ENDBRANCH   3  10
BRANCH   2  23
ATOM     23  N   UNL     1       8.427   3.199  -0.114  0.00  0.00    -0.343 N 
ATOM     24  H   UNL     1       7.568   3.641  -0.024  0.00  0.00    +0.144 HD
ATOM     25  H   UNL     1       9.246   3.715  -0.061  0.00  0.00    +0.144 HD
ENDBRANCH   2  23
BRANCH   1  26
ATOM     26  C   UNL     1      10.923   2.009  -0.555  0.00  0.00    +0.128 C 
BRANCH  26  27
ATOM     27  C   UNL     1      11.196   2.496  -1.979  0.00  0.00    +0.021 C 
BRANCH  27  29
ATOM     28  C   UNL     1      12.757   3.808  -3.423  0.00  0.00    +0.004 C 
ATOM     29  C   UNL     1      12.484   3.321  -1.998  0.00  0.00    -0.002 C 
ENDBRANCH  27  29
ENDBRANCH  26  27
ENDBRANCH   1  26
TORSDOF 7
