REMARK  Name = ZINC06999826
REMARK  11 active torsions:
REMARK  status: ('A' for Active; 'I' for Inactive)
REMARK    1  A    between atoms: C_1  and  C_2
REMARK    2  A    between atoms: C_5  and  C_30
REMARK    3  A    between atoms: C_6  and  N_8
REMARK    4  A    between atoms: C_9  and  C_11
REMARK    5  A    between atoms: C_11  and  N_12
REMARK    6  A    between atoms: C_13  and  N_29
REMARK    7  A    between atoms: C_14  and  C_17
REMARK    8  A    between atoms: N_19  and  C_20
REMARK    9  A    between atoms: C_22  and  C_28
REMARK   10  A    between atoms: C_25  and  O_26
REMARK   11  A    between atoms: O_26  and  C_27
REMARK                            x       y       z     vdW  Elec       q    Type
REMARK                         _______ _______ _______ _____ _____    ______ ____
ROOT
ATOM      1  N   UNL     1      -0.827   0.996   1.420  0.00  0.00    -0.222 N 
ATOM      2  C   UNL     1      -1.841   0.479   2.154  0.00  0.00    +0.148 A 
ATOM      3  C   UNL     1      -2.078   1.381   3.184  0.00  0.00    +0.188 A 
ATOM      4  N   UNL     1      -1.215   2.405   3.049  0.00  0.00    -0.123 NA
ATOM      5  N   UNL     1      -0.462   2.206   2.025  0.00  0.00    -0.063 NA
ENDROOT
BRANCH   3   6
ATOM      6  C   UNL     1      -3.093   1.241   4.236  0.00  0.00    +0.272 C 
ATOM      7  O   UNL     1      -3.819   0.265   4.254  0.00  0.00    -0.268 OA
ATOM      8  N   UNL     1      -3.220   2.194   5.181  0.00  0.00    -0.277 N 
ATOM      9  H   UNL     1      -2.697   3.009   5.121  0.00  0.00    +0.155 HD
BRANCH   8  10
ATOM     10  C   UNL     1      -4.106   2.007   6.249  0.00  0.00    +0.076 A 
ATOM     11  C   UNL     1      -4.458   0.725   6.644  0.00  0.00    +0.030 A 
ATOM     12  C   UNL     1      -5.333   0.543   7.699  0.00  0.00    -0.048 A 
ATOM     13  C   UNL     1      -5.859   1.636   8.362  0.00  0.00    +0.007 A 
ATOM     14  C   UNL     1      -5.513   2.917   7.973  0.00  0.00    +0.048 A 
ATOM     15  C   UNL     1      -4.633   3.108   6.920  0.00  0.00    +0.141 A 
ATOM     16  C   UNL     1      -5.713  -0.851   8.128  0.00  0.00    +0.044 C 
BRANCH  15  17
ATOM     17  O   UNL     1      -4.287   4.367   6.540  0.00  0.00    -0.493 OA
ATOM     18  C   UNL     1      -4.866   5.448   7.274  0.00  0.00    +0.277 C 
ENDBRANCH  15  17
ENDBRANCH   8  10
ENDBRANCH   3   6
BRANCH   2  19
ATOM     19  N   UNL     1      -2.506  -0.708   1.925  0.00  0.00    -0.341 N 
ATOM     20  H   UNL     1      -2.257  -1.265   1.171  0.00  0.00    +0.144 HD
ATOM     21  H   UNL     1      -3.222  -0.985   2.517  0.00  0.00    +0.144 HD
ENDBRANCH   2  19
BRANCH   1  22
ATOM     22  C   UNL     1      -0.223   0.401   0.226  0.00  0.00    +0.243 C 
BRANCH  22  24
ATOM     23  N   UNL     1      -0.573   0.461  -2.222  0.00  0.00    -0.284 N 
ATOM     24  C   UNL     1      -0.956   0.881  -1.000  0.00  0.00    +0.239 C 
ATOM     25  O   UNL     1      -1.891   1.646  -0.887  0.00  0.00    -0.273 OA
ATOM     26  H   UNL     1       0.223  -0.085  -2.320  0.00  0.00    +0.155 HD
BRANCH  23  32
ATOM     27  C   UNL     1      -4.869   1.807  -4.197  0.00  0.00    +0.044 C 
ATOM     28  C   UNL     1      -3.407   1.470  -4.336  0.00  0.00    -0.049 A 
ATOM     29  C   UNL     1      -2.804   1.510  -5.580  0.00  0.00    +0.004 A 
ATOM     30  C   UNL     1      -1.463   1.203  -5.712  0.00  0.00    +0.005 A 
ATOM     31  C   UNL     1      -0.719   0.860  -4.600  0.00  0.00    -0.029 A 
ATOM     32  C   UNL     1      -1.322   0.814  -3.350  0.00  0.00    +0.037 A 
ATOM     33  C   UNL     1      -2.670   1.123  -3.221  0.00  0.00    +0.027 A 
ATOM     34  C   UNL     1       0.745   0.531  -4.743  0.00  0.00    +0.045 C 
ENDBRANCH  23  32
ENDBRANCH  22  24
ENDBRANCH   1  22
TORSDOF 7
