REMARK  Name = ZINC39686546
REMARK  9 active torsions:
REMARK  status: ('A' for Active; 'I' for Inactive)
REMARK    1  A    between atoms: C_1  and  C_2
REMARK    2  A    between atoms: C_2  and  C_4
REMARK    3  A    between atoms: C_2  and  N_13
REMARK    4  A    between atoms: C_4  and  C_5
REMARK    5  A    between atoms: C_10  and  O_11
REMARK    6  A    between atoms: O_11  and  C_12
REMARK    7  A    between atoms: C_14  and  C_16
REMARK    8  A    between atoms: C_27  and  C_29
REMARK    9  A    between atoms: C_29  and  C_35
REMARK                            x       y       z     vdW  Elec       q    Type
REMARK                         _______ _______ _______ _____ _____    ______ ____
ROOT
ATOM      1  C   UNL     1      -3.487  -1.150  -1.136  0.00  0.00    +0.100 C 
ATOM      2  C   UNL     1      -3.500  -2.635  -0.712  0.00  0.00    +0.121 C 
ATOM      3  N   UNL     1      -4.550  -3.256  -1.555  0.00  0.00    -0.300 N 
ATOM      4  C   UNL     1      -4.384  -2.614  -2.881  0.00  0.00    +0.115 C 
ATOM      5  C   UNL     1      -4.067  -1.140  -2.560  0.00  0.00    -0.004 C 
ATOM      6  C   UNL     1      -3.038  -0.596  -3.546  0.00  0.00    -0.010 C 
ATOM      7  C   UNL     1      -3.657  -0.541  -4.946  0.00  0.00    -0.082 C 
ATOM      8  N   UNL     1      -4.846   0.319  -4.923  0.00  0.00    +0.379 N 
ATOM      9  C   UNL     1      -5.867  -0.261  -4.044  0.00  0.00    -0.082 C 
ATOM     10  C   UNL     1      -5.342  -0.303  -2.606  0.00  0.00    -0.010 C 
ATOM     11  C   UNL     1      -5.451  -4.192  -1.196  0.00  0.00    +0.222 C 
ATOM     12  O   UNL     1      -6.197  -4.664  -2.027  0.00  0.00    -0.275 OA
ATOM     13  H   UNL     1      -4.590   1.234  -4.583  0.00  0.00    -0.086 HD
ATOM     14  H   UNL     1      -5.216   0.403  -5.858  0.00  0.00    -0.086 HD
ENDROOT
BRANCH  11  15
ATOM     15  C   UNL     1      -5.531  -4.651   0.237  0.00  0.00    +0.044 C 
ATOM     16  C   UNL     1      -4.156  -5.145   0.692  0.00  0.00    +0.016 C 
ATOM     17  C   UNL     1      -3.715  -6.311  -0.194  0.00  0.00    +0.001 C 
ATOM     18  C   UNL     1      -4.729  -7.451  -0.080  0.00  0.00    +0.000 C 
ATOM     19  C   UNL     1      -6.104  -6.957  -0.535  0.00  0.00    +0.001 C 
ATOM     20  C   UNL     1      -6.546  -5.790   0.351  0.00  0.00    +0.016 C 
ATOM     21  C   UNL     1      -5.973  -3.484   1.122  0.00  0.00    +0.021 C 
ENDBRANCH  11  15
BRANCH   1  23
ATOM     22  N   UNL     1      -1.857   0.710  -1.067  0.00  0.00    -0.312 N 
ATOM     23  C   UNL     1      -2.077  -0.618  -1.140  0.00  0.00    +0.218 C 
ATOM     24  O   UNL     1      -1.140  -1.385  -1.208  0.00  0.00    -0.275 OA
ATOM     25  H   UNL     1      -2.607   1.323  -1.013  0.00  0.00    +0.149 HD
BRANCH  22  27
ATOM     26  C   UNL     1      -0.001   1.373  -2.515  0.00  0.00    +0.028 C 
ATOM     27  C   UNL     1      -0.486   1.227  -1.071  0.00  0.00    +0.074 C 
BRANCH  27  28
ATOM     28  C   UNL     1      -0.454   2.592  -0.381  0.00  0.00    +0.060 C 
BRANCH  28  29
ATOM     29  C   UNL     1      -0.815   2.428   1.073  0.00  0.00    -0.004 A 
ATOM     30  C   UNL     1      -2.120   2.612   1.487  0.00  0.00    +0.007 A 
ATOM     31  C   UNL     1      -2.451   2.463   2.821  0.00  0.00    +0.000 A 
ATOM     32  C   UNL     1      -1.477   2.129   3.744  0.00  0.00    +0.004 A 
ATOM     33  C   UNL     1      -0.171   1.943   3.335  0.00  0.00    +0.046 A 
ATOM     34  C   UNL     1       0.163   2.087   1.996  0.00  0.00    +0.123 A 
BRANCH  34  35
ATOM     35  O   UNL     1       1.446   1.900   1.591  0.00  0.00    -0.495 OA
ATOM     36  C   UNL     1       2.400   1.550   2.596  0.00  0.00    +0.277 C 
ENDBRANCH  34  35
ENDBRANCH  28  29
ENDBRANCH  27  28
ENDBRANCH  22  27
ENDBRANCH   1  23
TORSDOF 6
