REMARK  Name = ZINC14744051
REMARK  9 active torsions:
REMARK  status: ('A' for Active; 'I' for Inactive)
REMARK    1  A    between atoms: C_1  and  C_2
REMARK    2  A    between atoms: C_4  and  C_8
REMARK    3  A    between atoms: C_8  and  N_9
REMARK    4  A    between atoms: N_17  and  C_28
REMARK    5  A    between atoms: N_20  and  C_21
REMARK    6  A    between atoms: C_21  and  C_22
REMARK    7  A    between atoms: C_28  and  C_29
REMARK    8  A    between atoms: C_29  and  O_30
REMARK    9  A    between atoms: O_30  and  C_31
REMARK                            x       y       z     vdW  Elec       q    Type
REMARK                         _______ _______ _______ _____ _____    ______ ____
ROOT
ATOM      1  N   UNL     1      -1.240   1.746  -5.775  0.00  0.00    -0.297 NA
ATOM      2  C   UNL     1      -0.143   0.846  -5.395  0.00  0.00    +0.087 C 
ATOM      3  C   UNL     1      -0.305  -0.492  -6.122  0.00  0.00    +0.051 C 
ATOM      4  C   UNL     1      -0.315  -0.250  -7.628  0.00  0.00    +0.118 C 
ATOM      5  C   UNL     1      -1.413   0.740  -8.002  0.00  0.00    +0.051 C 
ATOM      6  C   UNL     1      -1.215   2.038  -7.214  0.00  0.00    +0.087 C 
ATOM      7  C   UNL     1      -0.502  -1.552  -8.371  0.00  0.00    +0.247 C 
ATOM      8  O   UNL     1      -1.449  -2.306  -8.306  0.00  0.00    -0.273 OA
ATOM      9  N   UNL     1       0.609  -1.700  -9.123  0.00  0.00    -0.222 N 
ATOM     10  C   UNL     1       1.458  -0.679  -8.954  0.00  0.00    +0.312 C 
ATOM     11  O   UNL     1       2.527  -0.587  -9.524  0.00  0.00    -0.252 OA
ATOM     12  N   UNL     1       0.994   0.236  -8.081  0.00  0.00    -0.266 N 
ENDROOT
BRANCH   1  13
ATOM     13  C   UNL     1      -1.203   2.984  -4.986  0.00  0.00    +0.139 C 
BRANCH  13  17
ATOM     14  C   UNL     1      -0.611   1.640  -0.140  0.00  0.00    +0.084 C 
ATOM     15  C   UNL     1      -1.224   2.085  -1.443  0.00  0.00    +0.081 A 
ATOM     16  N   UNL     1      -0.559   2.259  -2.606  0.00  0.00    -0.346 N 
ATOM     17  C   UNL     1      -1.476   2.665  -3.538  0.00  0.00    +0.047 A 
ATOM     18  H   UNL     1       0.390   2.122  -2.753  0.00  0.00    +0.167 HD
ATOM     19  C   UNL     1      -2.667   2.725  -2.913  0.00  0.00    +0.106 A 
ATOM     20  N   UNL     1      -2.485   2.360  -1.636  0.00  0.00    -0.350 N 
ATOM     21  H   UNL     1      -3.180   2.311  -0.961  0.00  0.00    +0.166 HD
ENDBRANCH  13  17
ENDBRANCH   1  13
BRANCH  12  22
ATOM     22  C   UNL     1       1.663   1.472  -7.666  0.00  0.00    +0.145 C 
BRANCH  22  23
ATOM     23  C   UNL     1       2.992   1.137  -7.038  0.00  0.00    -0.030 A 
ATOM     24  C   UNL     1       3.056   0.777  -5.706  0.00  0.00    +0.005 A 
ATOM     25  C   UNL     1       4.275   0.470  -5.130  0.00  0.00    +0.000 A 
ATOM     26  C   UNL     1       5.429   0.523  -5.888  0.00  0.00    +0.000 A 
ATOM     27  C   UNL     1       5.365   0.883  -7.221  0.00  0.00    +0.000 A 
ATOM     28  C   UNL     1       4.146   1.186  -7.798  0.00  0.00    +0.005 A 
ENDBRANCH  22  23
ENDBRANCH  12  22
BRANCH   9  29
ATOM     29  C   UNL     1       0.856  -2.837 -10.013  0.00  0.00    +0.146 C 
BRANCH  29  30
ATOM     30  C   UNL     1       0.304  -2.524 -11.405  0.00  0.00    +0.179 C 
BRANCH  30  31
ATOM     31  O   UNL     1       1.033  -1.434 -11.973  0.00  0.00    -0.381 OA
ATOM     32  C   UNL     1       0.595  -1.059 -13.280  0.00  0.00    +0.194 C 
ENDBRANCH  30  31
ENDBRANCH  29  30
ENDBRANCH   9  29
TORSDOF 7
