REMARK  Name = ZINC57510504
REMARK  4 active torsions:
REMARK  status: ('A' for Active; 'I' for Inactive)
REMARK    1  A    between atoms: C_1  and  N_2
REMARK    2  A    between atoms: C_14  and  C_22
REMARK    3  A    between atoms: C_16  and  C_20
REMARK    4  A    between atoms: C_17  and  N_19
REMARK                            x       y       z     vdW  Elec       q    Type
REMARK                         _______ _______ _______ _____ _____    ______ ____
ROOT
ATOM      1  C   UNL     1      -0.018   1.461   0.010  0.00  0.00    +0.157 C 
ATOM      2  N   UNL     1       0.002  -0.004   0.002  0.00  0.00    -0.206 N 
ATOM      3  C   UNL     1       0.006  -0.729  -1.196  0.00  0.00    +0.062 A 
ATOM      4  C   UNL     1      -0.624  -0.184  -2.308  0.00  0.00    +0.025 A 
ATOM      5  C   UNL     1      -0.645  -0.877  -3.502  0.00  0.00    +0.002 A 
ATOM      6  C   UNL     1      -0.039  -2.118  -3.594  0.00  0.00    +0.001 A 
ATOM      7  C   UNL     1       0.592  -2.668  -2.500  0.00  0.00    +0.013 A 
ATOM      8  C   UNL     1       0.627  -1.976  -1.283  0.00  0.00    +0.042 A 
ATOM      9  C   UNL     1       1.340  -2.608  -0.147  0.00  0.00    +0.162 C 
ATOM     10  C   UNL     1       1.151  -2.207   1.106  0.00  0.00    +0.141 C 
ATOM     11  S   UNL     1       0.027  -0.881   1.417  0.00  0.00    +0.075 S 
ATOM     12  O   UNL     1       0.623  -0.055   2.408  0.00  0.00    -0.150 OA
ATOM     13  O   UNL     1      -1.261  -1.461   1.570  0.00  0.00    -0.150 OA
ATOM     14  C   UNL     1       1.871  -2.849   2.260  0.00  0.00    +0.118 C 
ATOM     15  C   UNL     1       2.425  -4.185   1.848  0.00  0.00    +0.099 C 
ATOM     16  C   UNL     1       2.557  -4.493   0.533  0.00  0.00    +0.199 C 
ATOM     17  O   UNL     1       2.203  -3.622  -0.425  0.00  0.00    -0.439 OA
ENDROOT
BRANCH  14  18
ATOM     18  C   UNL     1       3.002  -1.956   2.702  0.00  0.00    -0.032 A 
ATOM     19  C   UNL     1       4.009  -1.626   1.814  0.00  0.00    +0.005 A 
ATOM     20  C   UNL     1       5.047  -0.808   2.218  0.00  0.00    +0.001 A 
ATOM     21  C   UNL     1       5.078  -0.319   3.511  0.00  0.00    +0.015 A 
ATOM     22  C   UNL     1       4.071  -0.648   4.399  0.00  0.00    +0.018 A 
ATOM     23  C   UNL     1       3.030  -1.464   3.993  0.00  0.00    +0.020 A 
ATOM     24 BR   UNL     1       4.114   0.019   6.168  0.00  0.00    -0.050 Br
ENDBRANCH  14  18
BRANCH  16  25
ATOM     25  N   UNL     1       3.062  -5.718   0.175  0.00  0.00    -0.328 N 
ATOM     26  H   UNL     1       3.321  -6.354   0.860  0.00  0.00    +0.145 HD
ATOM     27  H   UNL     1       3.160  -5.948  -0.762  0.00  0.00    +0.145 HD
ENDBRANCH  16  25
BRANCH  15  28
ATOM     28  C   UNL     1       2.815  -5.134   2.846  0.00  0.00    +0.101 C 
ATOM     29  N   UNL     1       3.125  -5.888   3.638  0.00  0.00    -0.191 NA
ENDBRANCH  15  28
TORSDOF 3
