REMARK  Name = ZINC39652860
REMARK  5 active torsions:
REMARK  status: ('A' for Active; 'I' for Inactive)
REMARK    1  A    between atoms: C_6  and  C_7
REMARK    2  A    between atoms: C_7  and  C_8
REMARK    3  A    between atoms: C_8  and  N_9
REMARK    4  A    between atoms: C_10  and  C_12
REMARK    5  A    between atoms: C_23  and  C_25
REMARK                            x       y       z     vdW  Elec       q    Type
REMARK                         _______ _______ _______ _____ _____    ______ ____
ROOT
ATOM      1  C   UNL     1      -4.288  -3.217  -2.722  0.00  0.00    +0.100 C 
ATOM      2  C   UNL     1      -4.384  -4.596  -2.032  0.00  0.00    +0.121 C 
ATOM      3  N   UNL     1      -5.331  -5.370  -2.869  0.00  0.00    -0.296 N 
ATOM      4  C   UNL     1      -4.988  -4.989  -4.261  0.00  0.00    +0.115 C 
ATOM      5  C   UNL     1      -4.685  -3.479  -4.185  0.00  0.00    -0.004 C 
ATOM      6  C   UNL     1      -5.928  -2.673  -4.548  0.00  0.00    -0.010 C 
ATOM      7  C   UNL     1      -6.270  -2.906  -6.022  0.00  0.00    -0.082 C 
ATOM      8  N   UNL     1      -5.136  -2.498  -6.859  0.00  0.00    +0.379 N 
ATOM      9  C   UNL     1      -3.970  -3.341  -6.569  0.00  0.00    -0.082 C 
ATOM     10  C   UNL     1      -3.531  -3.126  -5.118  0.00  0.00    -0.010 C 
ATOM     11  C   UNL     1      -6.287  -6.225  -2.459  0.00  0.00    +0.247 C 
ATOM     12  O   UNL     1      -6.535  -6.338  -1.274  0.00  0.00    -0.270 OA
ATOM     13  H   UNL     1      -5.386  -2.595  -7.832  0.00  0.00    -0.086 HD
ATOM     14  H   UNL     1      -4.908  -1.534  -6.668  0.00  0.00    -0.086 HD
ENDROOT
BRANCH  11  15
ATOM     15  C   UNL     1      -7.037  -7.027  -3.450  0.00  0.00    +0.042 A 
ATOM     16  C   UNL     1      -6.505  -7.244  -4.722  0.00  0.00    +0.051 A 
ATOM     17  C   UNL     1      -7.210  -7.994  -5.644  0.00  0.00    +0.127 A 
ATOM     18  C   UNL     1      -8.441  -8.531  -5.308  0.00  0.00    +0.076 A 
ATOM     19  C   UNL     1      -8.974  -8.319  -4.046  0.00  0.00    +0.127 A 
ATOM     20  C   UNL     1      -8.275  -7.576  -3.115  0.00  0.00    +0.051 A 
ATOM     21  F   UNL     1     -10.176  -8.846  -3.725  0.00  0.00    -0.205 F 
ATOM     22  F   UNL     1      -6.696  -8.204  -6.876  0.00  0.00    -0.205 F 
ENDBRANCH  11  15
BRANCH   1  24
ATOM     23  N   UNL     1      -2.658  -1.361  -2.608  0.00  0.00    -0.315 N 
ATOM     24  C   UNL     1      -2.879  -2.689  -2.648  0.00  0.00    +0.218 C 
ATOM     25  O   UNL     1      -1.943  -3.461  -2.623  0.00  0.00    -0.275 OA
ATOM     26  H   UNL     1      -3.406  -0.744  -2.628  0.00  0.00    +0.149 HD
BRANCH  23  27
ATOM     27  C   UNL     1      -1.288  -0.847  -2.536  0.00  0.00    +0.109 C 
BRANCH  27  28
ATOM     28  C   UNL     1      -1.317   0.682  -2.503  0.00  0.00    +0.054 C 
BRANCH  28  34
ATOM     29  C   UNL     1       0.792   1.478  -3.590  0.00  0.00    +0.005 A 
ATOM     30  C   UNL     1       2.085   1.963  -3.522  0.00  0.00    +0.015 A 
ATOM     31  C   UNL     1       2.679   2.178  -2.291  0.00  0.00    +0.018 A 
ATOM     32  C   UNL     1       1.979   1.909  -1.129  0.00  0.00    +0.015 A 
ATOM     33  C   UNL     1       0.686   1.425  -1.198  0.00  0.00    +0.005 A 
ATOM     34  C   UNL     1       0.093   1.210  -2.428  0.00  0.00    -0.046 A 
ATOM     35 BR   UNL     1       4.448   2.840  -2.198  0.00  0.00    -0.050 Br
ENDBRANCH  28  34
ENDBRANCH  27  28
ENDBRANCH  23  27
ENDBRANCH   1  24
TORSDOF 5
