REMARK  Name = ZINC01657129
REMARK  6 active torsions:
REMARK  status: ('A' for Active; 'I' for Inactive)
REMARK    1  A    between atoms: C_3  and  N_22
REMARK    2  A    between atoms: C_4  and  C_8
REMARK    3  A    between atoms: N_9  and  N_10
REMARK    4  A    between atoms: N_10  and  C_11
REMARK    5  A    between atoms: C_11  and  N_13
REMARK    6  A    between atoms: N_13  and  C_14
REMARK                            x       y       z     vdW  Elec       q    Type
REMARK                         _______ _______ _______ _____ _____    ______ ____
ROOT
ATOM      1  N   UNL     1      -1.168  -0.717   0.009  0.00  0.00    -0.218 N 
ATOM      2  H   UNL     1      -1.157  -1.687   0.046  0.00  0.00    +0.176 HD
ENDROOT
BRANCH   1   4
ATOM      3  C   UNL     1      -3.493  -0.680   0.255  0.00  0.00    +0.140 C 
ATOM      4  N   UNL     1      -2.387  -0.029   0.060  0.00  0.00    -0.188 NA
BRANCH   3   8
ATOM      5  C   UNL     1      -7.145   1.431   0.730  0.00  0.00    +0.022 A 
ATOM      6  C   UNL     1      -7.108   0.063   0.934  0.00  0.00    +0.035 A 
ATOM      7  C   UNL     1      -5.925  -0.629   0.782  0.00  0.00    +0.135 A 
ATOM      8  C   UNL     1      -4.761   0.054   0.419  0.00  0.00    +0.026 A 
ATOM      9  C   UNL     1      -4.804   1.435   0.219  0.00  0.00    +0.031 A 
ATOM     10  C   UNL     1      -5.996   2.115   0.370  0.00  0.00    +0.042 A 
ATOM     11 CL   UNL     1      -6.054   3.831   0.115  0.00  0.00    -0.084 Cl
BRANCH   7  12
ATOM     12  N   UNL     1      -5.888  -2.092   1.002  0.00  0.00    +0.057 N 
ATOM     13  O   UNL     1      -6.923  -2.705   1.196  0.00  0.00    -0.126 OA
ATOM     14  O   UNL     1      -4.824  -2.684   0.987  0.00  0.00    -0.126 OA
ENDBRANCH   7  12
ENDBRANCH   3   8
ENDBRANCH   1   4
BRANCH   1  15
ATOM     15  C   UNL     1      -0.011  -0.033  -0.092  0.00  0.00    +0.150 C 
ATOM     16  S   UNL     1       1.467  -0.875  -0.283  0.00  0.00    -0.017 S 
BRANCH  15  17
ATOM     17  N   UNL     1      -0.018   1.313  -0.042  0.00  0.00    -0.324 N 
ATOM     18  H   UNL     1      -0.861   1.793  -0.011  0.00  0.00    +0.148 HD
BRANCH  17  19
ATOM     19  C   UNL     1       1.246   2.053  -0.042  0.00  0.00    +0.058 C 
ATOM     20  C   UNL     1       1.783   2.151   1.389  0.00  0.00    -0.056 C 
ATOM     21  C   UNL     1       0.584   4.223   1.756  0.00  0.00    -0.078 C 
ATOM     22  C   UNL     1       0.012   4.184   0.336  0.00  0.00    -0.014 C 
ATOM     23  C   UNL     1       1.013   3.470  -0.581  0.00  0.00    +0.004 C 
ATOM     24  C   UNL     1       2.343   4.233  -0.542  0.00  0.00    -0.014 C 
ATOM     25  C   UNL     1       2.849   4.271   0.902  0.00  0.00    -0.078 C 
ATOM     26  N   UNL     1       1.908   3.566   1.798  0.00  0.00    +0.381 N 
ATOM     27  H   UNL     1       2.269   3.605   2.758  0.00  0.00    -0.082 HD
ENDBRANCH  17  19
ENDBRANCH  15  17
ENDBRANCH   1  15
TORSDOF 6
