REMARK  Name = ZINC40313694
REMARK  16 active torsions:
REMARK  status: ('A' for Active; 'I' for Inactive)
REMARK    1  A    between atoms: C_1  and  C_2
REMARK    2  A    between atoms: C_7  and  O_8
REMARK    3  A    between atoms: O_8  and  C_9
REMARK    4  A    between atoms: C_9  and  C_10
REMARK    5  A    between atoms: C_10  and  C_12
REMARK    6  A    between atoms: C_10  and  O_35
REMARK    7  A    between atoms: C_12  and  N_13
REMARK    8  A    between atoms: N_13  and  C_14
REMARK    9  A    between atoms: N_13  and  C_27
REMARK   10  A    between atoms: C_14  and  C_15
REMARK   11  A    between atoms: C_17  and  O_25
REMARK   12  A    between atoms: C_18  and  O_23
REMARK   13  A    between atoms: C_19  and  O_21
REMARK   14  A    between atoms: O_21  and  C_22
REMARK   15  A    between atoms: O_23  and  C_24
REMARK   16  A    between atoms: O_25  and  C_26
REMARK                            x       y       z     vdW  Elec       q    Type
REMARK                         _______ _______ _______ _____ _____    ______ ____
ROOT
ATOM      1  N   UNL     1      -1.360  -0.418   7.775  0.00  0.00    +0.387 N 
ATOM      2  H   UNL     1      -1.760  -0.320   8.696  0.00  0.00    -0.081 HD
ENDROOT
BRANCH   1   3
ATOM      3  C   UNL     1      -1.480   0.855   7.052  0.00  0.00    -0.045 C 
ATOM      4  C   UNL     1      -1.299   2.028   8.030  0.00  0.00    +0.009 C 
ATOM      5  C   UNL     1      -1.737   3.350   7.356  0.00  0.00    +0.164 C 
ATOM      6  S   UNL     1      -2.999   2.786   6.143  0.00  0.00    -0.033 S 
ATOM      7  O   UNL     1      -2.543   3.082   4.830  0.00  0.00    -0.174 OA
ATOM      8  O   UNL     1      -4.278   3.246   6.558  0.00  0.00    -0.174 OA
ATOM      9  C   UNL     1      -2.896   0.968   6.418  0.00  0.00    +0.151 C 
ENDBRANCH   1   3
BRANCH   1  10
ATOM     10  C   UNL     1      -2.074  -1.469   7.039  0.00  0.00    -0.043 C 
BRANCH  10  11
ATOM     11  C   UNL     1      -2.900  -2.306   8.018  0.00  0.00    +0.135 C 
BRANCH  11  12
ATOM     12  O   UNL     1      -3.730  -1.444   8.799  0.00  0.00    -0.390 OA
ATOM     13  H   UNL     1      -4.409  -0.983   8.287  0.00  0.00    +0.210 HD
ENDBRANCH  11  12
BRANCH  11  14
ATOM     14  C   UNL     1      -3.776  -3.287   7.237  0.00  0.00    +0.258 C 
BRANCH  14  15
ATOM     15  O   UNL     1      -4.460  -4.147   8.151  0.00  0.00    -0.489 OA
BRANCH  15  22
ATOM     16  C   UNL     1      -5.820  -5.858   9.940  0.00  0.00    +0.047 C 
ATOM     17  C   UNL     1      -5.980  -5.953   8.445  0.00  0.00    -0.009 A 
ATOM     18  C   UNL     1      -6.824  -6.901   7.899  0.00  0.00    +0.007 A 
ATOM     19  C   UNL     1      -6.971  -6.989   6.527  0.00  0.00    +0.000 A 
ATOM     20  C   UNL     1      -6.275  -6.129   5.698  0.00  0.00    +0.004 A 
ATOM     21  C   UNL     1      -5.431  -5.179   6.239  0.00  0.00    +0.046 A 
ATOM     22  C   UNL     1      -5.285  -5.085   7.616  0.00  0.00    +0.124 A 
ENDBRANCH  15  22
ENDBRANCH  14  15
ENDBRANCH  11  14
ENDBRANCH  10  11
ENDBRANCH   1  10
BRANCH   1  23
ATOM     23  C   UNL     1       0.059  -0.781   7.894  0.00  0.00    -0.042 C 
BRANCH  23  24
ATOM     24  C   UNL     1       0.731   0.136   8.883  0.00  0.00    -0.057 A 
ATOM     25  C   UNL     1       2.076   0.423   8.752  0.00  0.00    +0.051 A 
ATOM     26  C   UNL     1       2.699   1.266   9.661  0.00  0.00    +0.165 A 
ATOM     27  C   UNL     1       1.968   1.821  10.704  0.00  0.00    +0.204 A 
ATOM     28  C   UNL     1       0.615   1.530  10.832  0.00  0.00    +0.165 A 
ATOM     29  C   UNL     1      -0.001   0.690   9.916  0.00  0.00    +0.051 A 
BRANCH  28  30
ATOM     30  O   UNL     1      -0.105   2.071  11.851  0.00  0.00    -0.491 OA
ATOM     31  C   UNL     1      -1.490   1.727  11.921  0.00  0.00    +0.277 C 
ENDBRANCH  28  30
BRANCH  27  32
ATOM     32  O   UNL     1       2.575   2.648  11.599  0.00  0.00    -0.488 OA
ATOM     33  C   UNL     1       2.579   4.044  11.292  0.00  0.00    +0.277 C 
ENDBRANCH  27  32
BRANCH  26  34
ATOM     34  O   UNL     1       4.023   1.548   9.532  0.00  0.00    -0.491 OA
ATOM     35  C   UNL     1       4.712   0.942   8.437  0.00  0.00    +0.277 C 
ENDBRANCH  26  34
ENDBRANCH  23  24
ENDBRANCH   1  23
TORSDOF 12
