REMARK  Name = ZINC01251745
REMARK  7 active torsions:
REMARK  status: ('A' for Active; 'I' for Inactive)
REMARK    1  A    between atoms: C_1  and  C_2
REMARK    2  A    between atoms: C_2  and  C_3
REMARK    3  A    between atoms: C_3  and  C_4
REMARK    4  A    between atoms: N_7  and  C_9
REMARK    5  A    between atoms: C_16  and  N_29
REMARK    6  A    between atoms: C_17  and  C_27
REMARK    7  A    between atoms: C_18  and  C_20
REMARK                            x       y       z     vdW  Elec       q    Type
REMARK                         _______ _______ _______ _____ _____    ______ ____
ROOT
ATOM      1  C   UNL     1      -0.432   6.666  -2.508  0.00  0.00    +0.071 A 
ATOM      2  C   UNL     1      -0.822   6.663  -1.176  0.00  0.00    +0.050 A 
ATOM      3  C   UNL     1      -2.067   7.223  -1.097  0.00  0.00    +0.230 A 
ATOM      4  N   UNL     1      -2.439   7.564  -2.350  0.00  0.00    -0.200 N 
ATOM      5  N   UNL     1      -1.395   7.204  -3.218  0.00  0.00    -0.168 NA
ATOM      6  O   UNL     1      -2.733   7.371   0.075  0.00  0.00    -0.423 OA
ATOM      7  C   UNL     1      -2.033   7.202   1.216  0.00  0.00    +0.200 C 
ATOM      8  C   UNL     1      -0.800   6.651   1.267  0.00  0.00    +0.098 C 
ATOM      9  C   UNL     1      -0.082   6.158   0.036  0.00  0.00    +0.101 C 
ENDROOT
BRANCH   9  10
ATOM     10  C   UNL     1      -0.061   4.651   0.027  0.00  0.00    -0.034 A 
ATOM     11  C   UNL     1       1.145   3.977   0.013  0.00  0.00    +0.005 A 
ATOM     12  C   UNL     1       1.165   2.595   0.005  0.00  0.00    +0.015 A 
ATOM     13  C   UNL     1      -0.024   1.887   0.012  0.00  0.00    +0.018 A 
ATOM     14  C   UNL     1      -1.231   2.562   0.022  0.00  0.00    +0.015 A 
ATOM     15  C   UNL     1      -1.249   3.944   0.035  0.00  0.00    +0.005 A 
ATOM     16 BR   UNL     1       0.002  -0.004   0.002  0.00  0.00    -0.050 Br
ENDBRANCH   9  10
BRANCH   4  17
ATOM     17  C   UNL     1      -3.649   8.168  -2.719  0.00  0.00    +0.069 A 
ATOM     18  C   UNL     1      -4.821   7.844  -2.048  0.00  0.00    +0.028 A 
ATOM     19  C   UNL     1      -6.011   8.445  -2.409  0.00  0.00    +0.002 A 
ATOM     20  C   UNL     1      -6.037   9.360  -3.446  0.00  0.00    +0.000 A 
ATOM     21  C   UNL     1      -4.873   9.680  -4.120  0.00  0.00    +0.002 A 
ATOM     22  C   UNL     1      -3.679   9.086  -3.759  0.00  0.00    +0.028 A 
ENDBRANCH   4  17
BRANCH   7  23
ATOM     23  N   UNL     1      -2.605   7.617   2.392  0.00  0.00    -0.328 N 
ATOM     24  H   UNL     1      -2.126   7.509   3.229  0.00  0.00    +0.145 HD
ATOM     25  H   UNL     1      -3.489   8.016   2.388  0.00  0.00    +0.145 HD
ENDBRANCH   7  23
BRANCH   8  26
ATOM     26  C   UNL     1      -0.152   6.529   2.538  0.00  0.00    +0.101 C 
ATOM     27  N   UNL     1       0.362   6.433   3.546  0.00  0.00    -0.191 NA
ENDBRANCH   8  26
BRANCH   1  28
ATOM     28  C   UNL     1       0.875   6.142  -3.046  0.00  0.00    +0.057 C 
BRANCH  28  30
ATOM     29  C   UNL     1       3.239   6.735  -3.596  0.00  0.00    +0.004 C 
ATOM     30  C   UNL     1       1.912   7.267  -3.050  0.00  0.00    +0.003 C 
ENDBRANCH  28  30
ENDBRANCH   1  28
TORSDOF 6
