REMARK  Name = ZINC07428386
REMARK  9 active torsions:
REMARK  status: ('A' for Active; 'I' for Inactive)
REMARK    1  A    between atoms: C_1  and  C_2
REMARK    2  A    between atoms: C_2  and  O_3
REMARK    3  A    between atoms: O_3  and  C_4
REMARK    4  A    between atoms: C_6  and  C_24
REMARK    5  A    between atoms: C_7  and  S_13
REMARK    6  A    between atoms: C_9  and  C_10
REMARK    7  A    between atoms: C_10  and  C_11
REMARK    8  A    between atoms: C_10  and  C_12
REMARK    9  A    between atoms: S_13  and  N_16
REMARK                            x       y       z     vdW  Elec       q    Type
REMARK                         _______ _______ _______ _____ _____    ______ ____
ROOT
ATOM      1  C   UNL     1      -0.046   0.820   2.174  0.00  0.00    +0.124 A 
ATOM      2  C   UNL     1       1.192   0.209   2.313  0.00  0.00    +0.051 A 
ATOM      3  C   UNL     1       1.764   0.087   3.564  0.00  0.00    -0.020 A 
ATOM      4  C   UNL     1       1.103   0.573   4.678  0.00  0.00    +0.112 A 
ATOM      5  C   UNL     1      -0.130   1.183   4.542  0.00  0.00    +0.036 A 
ATOM      6  C   UNL     1      -0.703   1.312   3.292  0.00  0.00    -0.001 A 
ATOM      7  C   UNL     1       3.108  -0.577   3.716  0.00  0.00    +0.046 C 
ENDROOT
BRANCH   6   8
ATOM      8  C   UNL     1      -2.045   1.982   3.143  0.00  0.00    +0.016 C 
ATOM      9  C   UNL     1      -3.090   1.217   3.957  0.00  0.00    +0.012 C 
ATOM     10  C   UNL     1      -1.955   3.422   3.654  0.00  0.00    +0.012 C 
ENDBRANCH   6   8
BRANCH   4  11
ATOM     11  S   UNL     1       1.835   0.415   6.273  0.00  0.00    +0.074 S 
ATOM     12  O   UNL     1       3.172   0.883   6.155  0.00  0.00    -0.150 OA
ATOM     13  O   UNL     1       0.913   0.971   7.200  0.00  0.00    -0.150 OA
BRANCH  11  14
ATOM     14  N   UNL     1       1.929  -1.203   6.611  0.00  0.00    -0.199 N 
ATOM     15  C   UNL     1       0.766  -1.956   6.732  0.00  0.00    +0.138 A 
ATOM     16  C   UNL     1       0.852  -3.334   6.904  0.00  0.00    +0.046 A 
ATOM     17  C   UNL     1      -0.312  -4.072   7.024  0.00  0.00    +0.025 A 
ATOM     18  C   UNL     1      -1.529  -3.403   6.968  0.00  0.00    +0.059 A 
ATOM     19  C   UNL     1      -1.540  -2.033   6.795  0.00  0.00    +0.133 A 
ATOM     20  N   UNL     1      -0.412  -1.355   6.689  0.00  0.00    -0.238 NA
ATOM     21 CL   UNL     1      -3.019  -4.281   7.112  0.00  0.00    -0.082 Cl
ATOM     22  H   UNL     1       2.794  -1.626   6.724  0.00  0.00    +0.175 HD
ENDBRANCH  11  14
ENDBRANCH   4  11
BRANCH   1  23
ATOM     23  O   UNL     1      -0.611   0.941   0.944  0.00  0.00    -0.492 OA
BRANCH  23  25
ATOM     24  C   UNL     1      -0.663   0.644  -1.454  0.00  0.00    +0.048 C 
ATOM     25  C   UNL     1       0.126   0.417  -0.163  0.00  0.00    +0.225 C 
ENDBRANCH  23  25
ENDBRANCH   1  23
TORSDOF 5
