REMARK  Name = ZINC06697760
REMARK  3 active torsions:
REMARK  status: ('A' for Active; 'I' for Inactive)
REMARK    1  A    between atoms: C_4  and  N_19
REMARK    2  A    between atoms: C_5  and  C_7
REMARK    3  A    between atoms: C_10  and  C_12
REMARK                            x       y       z     vdW  Elec       q    Type
REMARK                         _______ _______ _______ _____ _____    ______ ____
ROOT
ATOM      1  C   UNL     1      -2.626   1.244   0.038  0.00  0.00    +0.250 A 
ATOM      2  N   UNL     1      -3.781   1.868  -0.041  0.00  0.00    -0.107 NA
ATOM      3  N   UNL     1      -4.735   1.006  -0.002  0.00  0.00    -0.107 NA
ATOM      4  C   UNL     1      -4.229  -0.201   0.104  0.00  0.00    +0.249 A 
ATOM      5  O   UNL     1      -2.886  -0.076   0.125  0.00  0.00    -0.416 OA
ENDROOT
BRANCH   4   6
ATOM      6  C   UNL     1      -4.991  -1.465   0.178  0.00  0.00    +0.039 A 
ATOM      7  C   UNL     1      -4.318  -2.684   0.283  0.00  0.00    +0.014 A 
ATOM      8  C   UNL     1      -5.035  -3.860   0.358  0.00  0.00    +0.016 A 
ATOM      9  C   UNL     1      -6.419  -3.834   0.318  0.00  0.00    +0.018 A 
ATOM     10  C   UNL     1      -7.092  -2.628   0.209  0.00  0.00    +0.016 A 
ATOM     11  C   UNL     1      -6.386  -1.445   0.139  0.00  0.00    +0.014 A 
ATOM     12 BR   UNL     1      -7.394  -5.451   0.413  0.00  0.00    -0.050 Br
ENDBRANCH   4   6
BRANCH   1  17
ATOM     13  C   UNL     1       1.103   1.674  -0.018  0.00  0.00    +0.001 A 
ATOM     14  C   UNL     1       1.219   3.054  -0.001  0.00  0.00    +0.002 A 
ATOM     15  C   UNL     1       0.091   3.850   0.032  0.00  0.00    +0.023 A 
ATOM     16  C   UNL     1      -1.169   3.270   0.050  0.00  0.00    +0.037 A 
ATOM     17  C   UNL     1      -1.291   1.873   0.026  0.00  0.00    +0.059 A 
ATOM     18  C   UNL     1      -0.142   1.080  -0.002  0.00  0.00    +0.015 A 
BRANCH  16  19
ATOM     19  N   UNL     1      -2.308   4.072   0.083  0.00  0.00    -0.357 N 
ATOM     20  H   UNL     1      -2.221   5.034   0.172  0.00  0.00    +0.142 HD
ATOM     21  H   UNL     1      -3.187   3.668   0.016  0.00  0.00    +0.142 HD
ENDBRANCH  16  19
ENDBRANCH   1  17
TORSDOF 3
