REMARK  Name = ZINC62626633
REMARK  3 active torsions:
REMARK  status: ('A' for Active; 'I' for Inactive)
REMARK    1  A    between atoms: C_6  and  C_7
REMARK    2  A    between atoms: C_7  and  N_8
REMARK    3  A    between atoms: C_17  and  C_18
REMARK                            x       y       z     vdW  Elec       q    Type
REMARK                         _______ _______ _______ _____ _____    ______ ____
ROOT
ATOM      1  N   UNL     1      -1.831  -1.182  -1.285  0.00  0.00    +0.387 N 
ATOM      2  C   UNL     1      -2.522   0.064  -1.708  0.00  0.00    -0.064 C 
ATOM      3  C   UNL     1      -3.972  -0.108  -1.205  0.00  0.00    -0.016 C 
ATOM      4  C   UNL     1      -4.176  -1.632  -1.084  0.00  0.00    -0.016 C 
ATOM      5  C   UNL     1      -2.833  -2.253  -1.524  0.00  0.00    -0.064 C 
ATOM      6  C   UNL     1      -2.896  -2.492  -3.043  0.00  0.00    +0.016 C 
ATOM      7  C   UNL     1      -3.268  -1.180  -3.703  0.00  0.00    -0.066 C 
ATOM      8  C   UNL     1      -4.198  -1.130  -4.656  0.00  0.00    +0.095 C 
ATOM      9  C   UNL     1      -2.538   0.081  -3.246  0.00  0.00    +0.016 C 
ATOM     10  H   UNL     1      -1.006  -1.338  -1.845  0.00  0.00    -0.081 HD
ENDROOT
BRANCH   8  11
ATOM     11  C   UNL     1      -4.394   0.102  -5.427  0.00  0.00    +0.379 C 
ATOM     12  O   UNL     1      -3.626   1.044  -5.280  0.00  0.00    -0.241 OA
ATOM     13  O   UNL     1      -5.325   0.189  -6.216  0.00  0.00    -0.241 OA
ENDBRANCH   8  11
BRANCH   1  14
ATOM     14  C   UNL     1      -1.479  -1.117   0.140  0.00  0.00    -0.042 C 
BRANCH  14  20
ATOM     15  C   UNL     1      -0.666   1.221   0.594  0.00  0.00    +0.021 A 
ATOM     16  C   UNL     1       0.373   2.116   0.771  0.00  0.00    +0.111 A 
ATOM     17  N   UNL     1       1.627   1.715   0.701  0.00  0.00    -0.263 NA
ATOM     18  C   UNL     1       1.941   0.457   0.460  0.00  0.00    +0.111 A 
ATOM     19  C   UNL     1       0.956  -0.494   0.272  0.00  0.00    +0.021 A 
ATOM     20  C   UNL     1      -0.375  -0.110   0.339  0.00  0.00    -0.061 A 
ENDBRANCH  14  20
ENDBRANCH   1  14
TORSDOF 3
