REMARK  Name = ZINC05421426
REMARK  9 active torsions:
REMARK  status: ('A' for Active; 'I' for Inactive)
REMARK    1  A    between atoms: C_1  and  C_2
REMARK    2  A    between atoms: C_2  and  C_3
REMARK    3  A    between atoms: C_3  and  C_4
REMARK    4  A    between atoms: C_4  and  C_5
REMARK    5  A    between atoms: C_6  and  N_25
REMARK    6  A    between atoms: C_8  and  C_10
REMARK    7  A    between atoms: C_15  and  O_24
REMARK    8  A    between atoms: C_19  and  N_23
REMARK    9  A    between atoms: C_20  and  C_21
REMARK                            x       y       z     vdW  Elec       q    Type
REMARK                         _______ _______ _______ _____ _____    ______ ____
ROOT
ATOM      1  C   UNL     1      -0.013   1.086   0.008  0.00  0.00    +0.105 C 
ATOM      2  C   UNL     1       1.401   1.604  -0.003  0.00  0.00    +0.008 A 
ATOM      3  C   UNL     1       2.335   1.016  -0.837  0.00  0.00    +0.012 A 
ATOM      4  C   UNL     1       3.636   1.477  -0.860  0.00  0.00    +0.046 A 
ATOM      5  C   UNL     1       4.011   2.536  -0.044  0.00  0.00    +0.120 A 
ATOM      6  C   UNL     1       3.078   3.127   0.792  0.00  0.00    +0.092 A 
ATOM      7  C   UNL     1       1.770   2.662   0.814  0.00  0.00    +0.138 A 
ATOM      8  O   UNL     1       0.869   3.251   1.638  0.00  0.00    -0.441 OA
ATOM      9  C   UNL     1      -0.261   2.604   1.968  0.00  0.00    +0.199 C 
ATOM     10  C   UNL     1      -0.733   1.567   1.236  0.00  0.00    +0.098 C 
ENDROOT
BRANCH   1  14
ATOM     11  C   UNL     1      -1.937   2.900  -3.241  0.00  0.00    +0.020 A 
ATOM     12  C   UNL     1      -1.923   1.544  -3.256  0.00  0.00    +0.137 A 
ATOM     13  C   UNL     1      -1.302   0.869  -2.222  0.00  0.00    +0.045 A 
ATOM     14  C   UNL     1      -0.736   1.582  -1.218  0.00  0.00    +0.005 A 
ATOM     15  S   UNL     1      -1.061   3.261  -1.728  0.00  0.00    -0.095 S 
BRANCH  12  16
ATOM     16  N   UNL     1      -2.558   0.798  -4.366  0.00  0.00    +0.057 N 
ATOM     17  O   UNL     1      -2.540  -0.419  -4.370  0.00  0.00    -0.126 OA
ATOM     18  O   UNL     1      -3.098   1.403  -5.275  0.00  0.00    -0.126 OA
ENDBRANCH  12  16
BRANCH  11  19
ATOM     19  C   UNL     1      -2.536   3.853  -4.242  0.00  0.00    +0.045 C 
BRANCH  19  20
ATOM     20  C   UNL     1      -3.985   4.155  -3.855  0.00  0.00    +0.005 C 
BRANCH  20  22
ATOM     21  C   UNL     1      -6.043   5.426  -4.484  0.00  0.00    +0.004 C 
ATOM     22  C   UNL     1      -4.593   5.124  -4.871  0.00  0.00    -0.003 C 
ENDBRANCH  20  22
ENDBRANCH  19  20
ENDBRANCH  11  19
ENDBRANCH   1  14
BRANCH   9  23
ATOM     23  N   UNL     1      -0.957   3.005   3.081  0.00  0.00    -0.328 N 
ATOM     24  H   UNL     1      -0.631   3.745   3.616  0.00  0.00    +0.145 HD
ATOM     25  H   UNL     1      -1.774   2.547   3.333  0.00  0.00    +0.145 HD
ENDBRANCH   9  23
BRANCH  10  26
ATOM     26  C   UNL     1      -1.943   0.917   1.640  0.00  0.00    +0.101 C 
ATOM     27  N   UNL     1      -2.903   0.401   1.960  0.00  0.00    -0.191 NA
ENDBRANCH  10  26
BRANCH   5  28
ATOM     28  O   UNL     1       5.291   2.991  -0.066  0.00  0.00    -0.507 OA
ATOM     29  H   UNL     1       5.448   3.693  -0.713  0.00  0.00    +0.292 HD
ENDBRANCH   5  28
TORSDOF 8
