REMARK  Name = ZINC65965608
REMARK  10 active torsions:
REMARK  status: ('A' for Active; 'I' for Inactive)
REMARK    1  A    between atoms: C_1  and  C_2
REMARK    2  A    between atoms: C_2  and  C_3
REMARK    3  A    between atoms: C_3  and  C_4
REMARK    4  A    between atoms: C_4  and  C_5
REMARK    5  A    between atoms: C_5  and  N_6
REMARK    6  A    between atoms: C_7  and  C_9
REMARK    7  A    between atoms: C_9  and  C_10
REMARK    8  A    between atoms: C_9  and  N_11
REMARK    9  A    between atoms: C_15  and  C_17
REMARK   10  A    between atoms: N_19  and  C_20
REMARK                            x       y       z     vdW  Elec       q    Type
REMARK                         _______ _______ _______ _____ _____    ______ ____
ROOT
ATOM      1  N   UNL     1       2.957  -6.675   4.582  0.00  0.00    +0.388 N 
ATOM      2  C   UNL     1       3.083  -8.136   4.499  0.00  0.00    -0.078 C 
ATOM      3  C   UNL     1       3.994  -8.637   5.621  0.00  0.00    -0.018 C 
ATOM      4  C   UNL     1       3.389  -8.252   6.974  0.00  0.00    +0.009 C 
ATOM      5  C   UNL     1       3.193  -6.734   7.020  0.00  0.00    +0.058 C 
ATOM      6  C   UNL     1       2.312  -6.302   5.846  0.00  0.00    -0.065 C 
ATOM      7  H   UNL     1       3.875  -6.258   4.538  0.00  0.00    -0.081 HD
ENDROOT
BRANCH   5   8
ATOM      8  C   UNL     1       2.527  -6.351   8.317  0.00  0.00    +0.215 C 
ATOM      9  O   UNL     1       1.455  -5.785   8.304  0.00  0.00    -0.276 OA
ATOM     10  N   UNL     1       3.124  -6.638   9.491  0.00  0.00    -0.312 N 
ATOM     11  H   UNL     1       3.982  -7.091   9.502  0.00  0.00    +0.149 HD
BRANCH  10  12
ATOM     12  C   UNL     1       2.476  -6.267  10.752  0.00  0.00    +0.073 C 
ATOM     13  C   UNL     1       2.825  -4.817  11.096  0.00  0.00    +0.022 C 
ATOM     14  C   UNL     1       2.149  -4.429  12.413  0.00  0.00    +0.002 C 
ATOM     15  C   UNL     1       2.641  -5.352  13.530  0.00  0.00    +0.000 C 
ATOM     16  C   UNL     1       2.292  -6.801  13.185  0.00  0.00    +0.002 C 
ATOM     17  C   UNL     1       2.968  -7.189  11.869  0.00  0.00    +0.022 C 
ENDBRANCH  10  12
ENDBRANCH   5   8
BRANCH   1  18
ATOM     18  C   UNL     1       2.145  -6.191   3.458  0.00  0.00    +0.016 C 
ATOM     19  C   UNL     1       2.787  -6.628   2.139  0.00  0.00    -0.004 C 
BRANCH  18  21
ATOM     20  N   UNL     1       1.009  -4.048   2.972  0.00  0.00    -0.317 N 
ATOM     21  C   UNL     1       2.070  -4.686   3.505  0.00  0.00    +0.199 C 
ATOM     22  O   UNL     1       2.964  -4.050   4.022  0.00  0.00    -0.278 OA
ATOM     23  H   UNL     1       0.294  -4.557   2.559  0.00  0.00    +0.149 HD
BRANCH  20  24
ATOM     24  C   UNL     1       0.936  -2.585   3.018  0.00  0.00    +0.104 C 
BRANCH  24  25
ATOM     25  C   UNL     1      -0.359  -2.119   2.350  0.00  0.00    +0.019 C 
BRANCH  25  26
ATOM     26  C   UNL     1      -0.436  -0.591   2.398  0.00  0.00    +0.001 C 
BRANCH  26  28
ATOM     27  C   UNL     1      -1.808   1.403   1.778  0.00  0.00    +0.004 C 
ATOM     28  C   UNL     1      -1.731  -0.124   1.730  0.00  0.00    -0.003 C 
ENDBRANCH  26  28
ENDBRANCH  25  26
ENDBRANCH  24  25
ENDBRANCH  20  24
ENDBRANCH  18  21
ENDBRANCH   1  18
TORSDOF 8
