REMARK  Name = ZINC35327975
REMARK  11 active torsions:
REMARK  status: ('A' for Active; 'I' for Inactive)
REMARK    1  A    between atoms: C_1  and  C_2
REMARK    2  A    between atoms: C_2  and  C_4
REMARK    3  A    between atoms: C_2  and  N_16
REMARK    4  A    between atoms: N_16  and  C_17
REMARK    5  A    between atoms: C_17  and  C_18
REMARK    6  A    between atoms: C_18  and  C_19
REMARK    7  A    between atoms: C_19  and  C_20
REMARK    8  A    between atoms: C_20  and  C_21
REMARK    9  A    between atoms: C_21  and  C_22
REMARK   10  A    between atoms: C_22  and  N_23
REMARK   11  A    between atoms: C_24  and  C_26
REMARK                            x       y       z     vdW  Elec       q    Type
REMARK                         _______ _______ _______ _____ _____    ______ ____
ROOT
ATOM      1  N   UNL     1       0.787  -0.025   1.636  0.00  0.00    -0.288 N 
ATOM      2  C   UNL     1       2.083  -0.065   1.268  0.00  0.00    +0.250 C 
ATOM      3  O   UNL     1       2.806  -0.951   1.681  0.00  0.00    -0.270 OA
ENDROOT
BRANCH   2   4
ATOM      4  C   UNL     1       2.625   0.969   0.363  0.00  0.00    +0.072 A 
ATOM      5  C   UNL     1       1.858   1.439  -0.705  0.00  0.00    +0.016 A 
ATOM      6  C   UNL     1       2.369   2.405  -1.545  0.00  0.00    +0.001 A 
ATOM      7  C   UNL     1       3.642   2.909  -1.335  0.00  0.00    +0.003 A 
ATOM      8  C   UNL     1       4.409   2.450  -0.281  0.00  0.00    +0.039 A 
ATOM      9  C   UNL     1       3.907   1.486   0.575  0.00  0.00    +0.135 A 
ATOM     10  F   UNL     1       4.655   1.041   1.608  0.00  0.00    -0.205 F 
ENDBRANCH   2   4
BRANCH   1  12
ATOM     11  C   UNL     1       0.023   1.918   0.363  0.00  0.00    +0.036 C 
ATOM     12  C   UNL     1      -0.229   0.445   0.692  0.00  0.00    +0.139 C 
BRANCH  12  13
ATOM     13  C   UNL     1      -0.155  -0.371  -0.573  0.00  0.00    +0.131 A 
ATOM     14  N   UNL     1      -0.948  -0.015  -1.617  0.00  0.00    -0.309 N 
ATOM     15  H   UNL     1      -1.541   0.748  -1.532  0.00  0.00    +0.170 HD
ATOM     16  C   UNL     1      -0.919  -0.716  -2.775  0.00  0.00    +0.259 A 
ATOM     17  O   UNL     1      -1.623  -0.408  -3.718  0.00  0.00    -0.267 OA
ATOM     18  C   UNL     1      -0.002  -1.863  -2.849  0.00  0.00    +0.065 A 
ATOM     19  C   UNL     1       0.104  -2.650  -3.994  0.00  0.00    +0.015 A 
ATOM     20  C   UNL     1       0.979  -3.713  -4.009  0.00  0.00    +0.001 A 
ATOM     21  C   UNL     1       1.753  -4.006  -2.893  0.00  0.00    +0.002 A 
ATOM     22  C   UNL     1       1.663  -3.242  -1.752  0.00  0.00    +0.028 A 
ATOM     23  C   UNL     1       0.784  -2.158  -1.713  0.00  0.00    +0.078 A 
ATOM     24  N   UNL     1       0.667  -1.375  -0.611  0.00  0.00    -0.232 NA
ENDBRANCH  12  13
ENDBRANCH   1  12
BRANCH   1  25
ATOM     25  C   UNL     1       0.395  -0.453   2.982  0.00  0.00    +0.109 C 
BRANCH  25  26
ATOM     26  C   UNL     1       0.081  -1.950   2.969  0.00  0.00    +0.019 C 
BRANCH  26  27
ATOM     27  C   UNL     1      -0.329  -2.397   4.374  0.00  0.00    +0.001 C 
BRANCH  27  28
ATOM     28  C   UNL     1      -0.643  -3.895   4.362  0.00  0.00    -0.002 C 
BRANCH  28  29
ATOM     29  C   UNL     1      -1.053  -4.341   5.766  0.00  0.00    -0.020 C 
BRANCH  29  30
ATOM     30  C   UNL     1      -1.367  -5.839   5.754  0.00  0.00    -0.086 C 
BRANCH  30  31
ATOM     31  N   UNL     1      -1.761  -6.268   7.103  0.00  0.00    +0.378 N 
ATOM     32  H   UNL     1      -1.005  -6.088   7.747  0.00  0.00    -0.090 HD
ATOM     33  H   UNL     1      -2.579  -5.755   7.393  0.00  0.00    -0.090 HD
ATOM     34  H   UNL     1      -1.968  -7.255   7.095  0.00  0.00    -0.090 HD
ENDBRANCH  30  31
ENDBRANCH  29  30
ENDBRANCH  28  29
ENDBRANCH  27  28
ENDBRANCH  26  27
ENDBRANCH  25  26
ENDBRANCH   1  25
TORSDOF 10
