REMARK  Name = ZINC38974846
REMARK  9 active torsions:
REMARK  status: ('A' for Active; 'I' for Inactive)
REMARK    1  A    between atoms: C_1  and  C_2
REMARK    2  A    between atoms: C_2  and  C_3
REMARK    3  A    between atoms: C_2  and  C_4
REMARK    4  A    between atoms: C_2  and  C_5
REMARK    5  A    between atoms: C_8  and  C_11
REMARK    6  A    between atoms: N_12  and  N_13
REMARK    7  A    between atoms: C_14  and  C_21
REMARK    8  A    between atoms: C_18  and  S_20
REMARK    9  A    between atoms: C_24  and  C_27
REMARK                            x       y       z     vdW  Elec       q    Type
REMARK                         _______ _______ _______ _____ _____    ______ ____
ROOT
ATOM      1  N   UNL     1       4.588  -1.986  -6.094  0.00  0.00    -0.207 N 
ATOM      2  C   UNL     1       5.984  -1.712  -6.480  0.00  0.00    +0.206 C 
ATOM      3  N   UNL     1       6.209  -2.402  -7.770  0.00  0.00    -0.231 NA
ATOM      4  N   UNL     1       5.200  -3.474  -7.792  0.00  0.00    -0.225 NA
ATOM      5  C   UNL     1       4.019  -2.837  -7.159  0.00  0.00    +0.231 C 
ATOM      6  H   UNL     1       7.142  -2.783  -7.818  0.00  0.00    +0.143 HD
ATOM      7  H   UNL     1       5.508  -4.271  -7.256  0.00  0.00    +0.143 HD
ENDROOT
BRANCH   2   8
ATOM      8  C   UNL     1       6.195  -0.206  -6.646  0.00  0.00    +0.190 C 
ATOM      9  C   UNL     1       7.612   0.089  -7.107  0.00  0.00    +0.034 C 
ATOM     10  C   UNL     1       8.127   0.834  -6.110  0.00  0.00    +0.091 C 
ATOM     11  N   UNL     1       7.206   1.015  -5.128  0.00  0.00    -0.154 NA
ATOM     12  N   UNL     1       6.113   0.478  -5.345  0.00  0.00    -0.176 NA
BRANCH  10  13
ATOM     13  C   UNL     1       9.507   1.378  -6.087  0.00  0.00    +0.002 A 
ATOM     14  C   UNL     1      10.373   1.136  -7.152  0.00  0.00    +0.010 A 
ATOM     15  C   UNL     1      11.655   1.645  -7.125  0.00  0.00    +0.001 A 
ATOM     16  C   UNL     1      12.082   2.395  -6.044  0.00  0.00    +0.000 A 
ATOM     17  C   UNL     1      11.227   2.639  -4.985  0.00  0.00    +0.001 A 
ATOM     18  C   UNL     1       9.941   2.139  -5.003  0.00  0.00    +0.010 A 
ENDBRANCH  10  13
ENDBRANCH   2   8
BRANCH   1  20
ATOM     19  C   UNL     1       2.695  -1.860  -4.729  0.00  0.00    +0.138 C 
ATOM     20  N   UNL     1       3.932  -1.533  -4.942  0.00  0.00    -0.188 NA
BRANCH  19  24
ATOM     21  C   UNL     1       0.707  -0.490  -1.238  0.00  0.00    -0.042 A 
ATOM     22  C   UNL     1       0.032  -1.285  -2.147  0.00  0.00    +0.005 A 
ATOM     23  C   UNL     1       0.672  -1.734  -3.284  0.00  0.00    +0.010 A 
ATOM     24  C   UNL     1       2.004  -1.384  -3.516  0.00  0.00    -0.005 A 
ATOM     25  C   UNL     1       2.679  -0.581  -2.594  0.00  0.00    +0.010 A 
ATOM     26  C   UNL     1       2.025  -0.135  -1.464  0.00  0.00    +0.005 A 
BRANCH  21  28
ATOM     27  C   UNL     1      -0.019   1.526   0.010  0.00  0.00    +0.015 C 
ATOM     28  C   UNL     1       0.002  -0.004   0.002  0.00  0.00    -0.013 C 
ATOM     29  C   UNL     1       0.742  -0.511   1.242  0.00  0.00    +0.015 C 
ATOM     30  C   UNL     1      -1.433  -0.534   0.013  0.00  0.00    +0.015 C 
ENDBRANCH  21  28
ENDBRANCH  19  24
ENDBRANCH   1  20
BRANCH   5  31
ATOM     31  S   UNL     1       3.124  -1.825  -8.370  0.00  0.00    -0.138 S 
ATOM     32  H   UNL     1       2.667  -2.718  -9.266  0.00  0.00    +0.105 HD
ENDBRANCH   5  31
TORSDOF 6
