REMARK  Name = ZINC39884074
REMARK  5 active torsions:
REMARK  status: ('A' for Active; 'I' for Inactive)
REMARK    1  A    between atoms: C_4  and  N_7
REMARK    2  A    between atoms: C_8  and  C_10
REMARK    3  A    between atoms: C_10  and  N_11
REMARK    4  A    between atoms: C_17  and  C_32
REMARK    5  A    between atoms: C_35  and  O_38
REMARK                            x       y       z     vdW  Elec       q    Type
REMARK                         _______ _______ _______ _____ _____    ______ ____
ROOT
ATOM      1  N   UNL     1       4.739  -4.080   0.356  0.00  0.00    -0.288 N 
ATOM      2  C   UNL     1       4.560  -4.715   1.560  0.00  0.00    +0.091 A 
ATOM      3  C   UNL     1       4.349  -6.048   1.478  0.00  0.00    +0.033 A 
ATOM      4  S   UNL     1       4.420  -6.361  -0.267  0.00  0.00    -0.030 S 
ATOM      5  C   UNL     1       4.695  -4.786  -0.790  0.00  0.00    +0.292 A 
ATOM      6  O   UNL     1       4.825  -4.382  -1.932  0.00  0.00    -0.259 OA
ATOM      7  C   UNL     1       4.100  -7.045   2.574  0.00  0.00    +0.072 C 
ATOM      8  C   UNL     1       3.621  -6.302   3.796  0.00  0.00    +0.110 C 
ATOM      9  C   UNL     1       4.739  -5.314   4.248  0.00  0.00    +0.152 C 
ATOM     10  S   UNL     1       4.609  -3.885   3.142  0.00  0.00    -0.093 S 
ATOM     11  C   UNL     1       4.296  -5.056   5.662  0.00  0.00    +0.244 C 
ATOM     12  O   UNL     1       4.463  -4.045   6.301  0.00  0.00    -0.273 OA
ATOM     13  N   UNL     1       3.670  -6.189   6.076  0.00  0.00    -0.162 N 
ATOM     14  C   UNL     1       3.415  -7.053   5.074  0.00  0.00    +0.235 C 
ATOM     15  O   UNL     1       3.075  -8.206   5.192  0.00  0.00    -0.274 OA
ATOM     16  C   UNL     1       3.354  -6.428   7.364  0.00  0.00    +0.313 C 
ATOM     17  O   UNL     1       2.795  -7.463   7.670  0.00  0.00    -0.252 OA
ATOM     18  N   UNL     1       3.659  -5.521   8.313  0.00  0.00    -0.313 N 
ATOM     19  H   UNL     1       4.106  -4.695   8.069  0.00  0.00    +0.147 HD
ATOM     20  H   UNL     1       3.432  -5.694   9.240  0.00  0.00    +0.147 HD
ENDROOT
BRANCH   7  21
ATOM     21  C   UNL     1       5.377  -7.779   2.891  0.00  0.00    -0.038 A 
ATOM     22  C   UNL     1       6.593  -7.130   2.778  0.00  0.00    +0.008 A 
ATOM     23  C   UNL     1       7.765  -7.801   3.067  0.00  0.00    +0.045 A 
ATOM     24  C   UNL     1       7.722  -9.128   3.472  0.00  0.00    +0.117 A 
ATOM     25  C   UNL     1       6.501  -9.777   3.584  0.00  0.00    +0.045 A 
ATOM     26  C   UNL     1       5.331  -9.099   3.299  0.00  0.00    +0.008 A 
BRANCH  24  27
ATOM     27  O   UNL     1       8.873  -9.790   3.756  0.00  0.00    -0.507 OA
ATOM     28  H   UNL     1       9.147  -9.723   4.681  0.00  0.00    +0.292 HD
ENDBRANCH  24  27
ENDBRANCH   7  21
BRANCH   1  29
ATOM     29  C   UNL     1       4.971  -2.635   0.318  0.00  0.00    +0.222 C 
BRANCH  29  31
ATOM     30  N   UNL     1       3.616  -0.570   0.171  0.00  0.00    -0.284 N 
ATOM     31  C   UNL     1       3.649  -1.916   0.220  0.00  0.00    +0.237 C 
ATOM     32  O   UNL     1       2.616  -2.550   0.186  0.00  0.00    -0.274 OA
ATOM     33  H   UNL     1       4.444  -0.066   0.123  0.00  0.00    +0.155 HD
BRANCH  30  37
ATOM     34  C   UNL     1      -0.039   1.428   0.227  0.00  0.00    +0.000 A 
ATOM     35  C   UNL     1       0.109   0.241   0.919  0.00  0.00    +0.002 A 
ATOM     36  C   UNL     1       1.319  -0.424   0.903  0.00  0.00    +0.023 A 
ATOM     37  C   UNL     1       2.389   0.101   0.189  0.00  0.00    +0.033 A 
ATOM     38  C   UNL     1       2.237   1.294  -0.506  0.00  0.00    +0.023 A 
ATOM     39  C   UNL     1       1.024   1.954  -0.485  0.00  0.00    +0.002 A 
ENDBRANCH  30  37
ENDBRANCH  29  31
ENDBRANCH   1  29
TORSDOF 5
