REMARK  Name = ZINC54729509
REMARK  7 active torsions:
REMARK  status: ('A' for Active; 'I' for Inactive)
REMARK    1  A    between atoms: C_1  and  C_2
REMARK    2  A    between atoms: C_5  and  C_7
REMARK    3  A    between atoms: C_7  and  C_9
REMARK    4  A    between atoms: C_7  and  N_10
REMARK    5  A    between atoms: C_16  and  N_19
REMARK    6  A    between atoms: N_19  and  S_20
REMARK    7  A    between atoms: S_20  and  C_23
REMARK                            x       y       z     vdW  Elec       q    Type
REMARK                         _______ _______ _______ _____ _____    ______ ____
ROOT
ATOM      1  N   UNL     1       2.201  -4.137  -0.921  0.00  0.00    -0.292 N 
ATOM      2  C   UNL     1       2.539  -5.311  -1.489  0.00  0.00    +0.303 C 
ATOM      3  O   UNL     1       1.940  -6.326  -1.189  0.00  0.00    -0.253 OA
ATOM      4  N   UNL     1       3.542  -5.361  -2.388  0.00  0.00    -0.286 N 
ATOM      5  C   UNL     1       4.351  -4.168  -2.675  0.00  0.00    +0.111 C 
ATOM      6  C   UNL     1       4.341  -3.917  -4.186  0.00  0.00    +0.039 C 
ATOM      7  C   UNL     1       4.806  -5.181  -4.912  0.00  0.00    +0.079 C 
ATOM      8  C   UNL     1       3.842  -6.330  -4.607  0.00  0.00    +0.039 C 
ATOM      9  C   UNL     1       3.850  -6.611  -3.097  0.00  0.00    +0.111 C 
ATOM     10  H   UNL     1       2.725  -3.341  -1.104  0.00  0.00    +0.151 HD
ENDROOT
BRANCH   1  11
ATOM     11  C   UNL     1       1.042  -4.061  -0.029  0.00  0.00    +0.108 C 
ATOM     12  C   UNL     1       1.462  -4.457   1.388  0.00  0.00    +0.033 C 
BRANCH  11  17
ATOM     13  C   UNL     1      -0.020   1.503   0.006  0.00  0.00    +0.051 C 
ATOM     14  C   UNL     1       0.000  -0.004  -0.002  0.00  0.00    -0.013 A 
ATOM     15  C   UNL     1      -1.041  -0.872  -0.003  0.00  0.00    +0.011 A 
ATOM     16  C   UNL     1      -0.782  -2.229  -0.012  0.00  0.00    +0.013 A 
ATOM     17  C   UNL     1       0.506  -2.653  -0.019  0.00  0.00    +0.010 A 
ATOM     18  S   UNL     1       1.402  -1.109  -0.020  0.00  0.00    -0.097 S 
ENDBRANCH  11  17
ENDBRANCH   1  11
BRANCH   7  19
ATOM     19  N   UNL     1       4.830  -4.934  -6.356  0.00  0.00    -0.192 NA
ATOM     20  H   UNL     1       4.162  -4.357  -6.760  0.00  0.00    +0.148 HD
BRANCH  19  21
ATOM     21  S   UNL     1       5.995  -5.638  -7.298  0.00  0.00    +0.027 S 
ATOM     22  O   UNL     1       5.732  -5.168  -8.613  0.00  0.00    -0.158 OA
ATOM     23  O   UNL     1       7.221  -5.330  -6.649  0.00  0.00    -0.158 OA
ATOM     24  C   UNL     1       5.665  -7.419  -7.194  0.00  0.00    +0.214 C 
ENDBRANCH  19  21
ENDBRANCH   7  19
TORSDOF 4
