REMARK  Name = ZINC20730846
REMARK  3 active torsions:
REMARK  status: ('A' for Active; 'I' for Inactive)
REMARK    1  A    between atoms: C_9  and  O_17
REMARK    2  A    between atoms: N_20  and  C_21
REMARK    3  A    between atoms: C_21  and  C_22
REMARK                            x       y       z     vdW  Elec       q    Type
REMARK                         _______ _______ _______ _____ _____    ______ ____
ROOT
ATOM      1  C   UNL     1      -0.017   1.386   0.010  0.00  0.00    +0.000 A 
ATOM      2  C   UNL     1       1.151   2.121   0.003  0.00  0.00    +0.002 A 
ATOM      3  C   UNL     1       2.398   1.516  -0.013  0.00  0.00    +0.024 A 
ATOM      4  C   UNL     1       2.432   0.121  -0.020  0.00  0.00    +0.041 A 
ATOM      5  C   UNL     1       1.238  -0.613  -0.013  0.00  0.00    -0.006 A 
ATOM      6  C   UNL     1       0.002  -0.004   0.002  0.00  0.00    +0.007 A 
ATOM      7  C   UNL     1       1.636  -2.054  -0.026  0.00  0.00    +0.112 C 
ATOM      8  C   UNL     1       1.130  -2.782   1.218  0.00  0.00    +0.121 C 
ATOM      9  C   UNL     1      -0.305  -3.199   1.065  0.00  0.00    +0.191 C 
ATOM     10  N   UNL     1      -0.839  -3.530  -0.072  0.00  0.00    -0.198 NA
ATOM     11  C   UNL     1      -0.092  -3.457  -1.212  0.00  0.00    +0.156 A 
ATOM     12  C   UNL     1       1.109  -2.757  -1.246  0.00  0.00    +0.036 A 
ATOM     13  C   UNL     1       1.624  -2.863  -2.523  0.00  0.00    +0.141 A 
ATOM     14  N   UNL     1       0.792  -3.573  -3.250  0.00  0.00    -0.180 NA
ATOM     15  N   UNL     1      -0.299  -3.951  -2.450  0.00  0.00    -0.260 N 
ATOM     16  H   UNL     1      -1.065  -4.473  -2.737  0.00  0.00    +0.191 HD
ATOM     17  C   UNL     1       3.148  -2.030  -0.042  0.00  0.00    +0.236 C 
ATOM     18  O   UNL     1       3.885  -2.993  -0.058  0.00  0.00    -0.274 OA
ATOM     19  N   UNL     1       3.521  -0.732  -0.036  0.00  0.00    -0.266 N 
ENDROOT
BRANCH   9  20
ATOM     20  O   UNL     1      -1.081  -3.233   2.168  0.00  0.00    -0.495 OA
ATOM     21  H   UNL     1      -1.992  -3.510   1.999  0.00  0.00    +0.293 HD
ENDBRANCH   9  20
BRANCH  19  22
ATOM     22  C   UNL     1       4.915  -0.281  -0.045  0.00  0.00    +0.148 C 
BRANCH  22  23
ATOM     23  C   UNL     1       5.405  -0.136   1.373  0.00  0.00    -0.030 A 
ATOM     24  C   UNL     1       5.256   1.068   2.036  0.00  0.00    +0.006 A 
ATOM     25  C   UNL     1       5.705   1.202   3.336  0.00  0.00    +0.020 A 
ATOM     26  C   UNL     1       6.305   0.130   3.974  0.00  0.00    +0.041 A 
ATOM     27  C   UNL     1       6.454  -1.074   3.310  0.00  0.00    +0.020 A 
ATOM     28  C   UNL     1       5.999  -1.208   2.012  0.00  0.00    +0.006 A 
ATOM     29 CL   UNL     1       6.870   0.298   5.607  0.00  0.00    -0.084 Cl
ENDBRANCH  22  23
ENDBRANCH  19  22
TORSDOF 3
