REMARK  Name = ZINC25656366
REMARK  8 active torsions:
REMARK  status: ('A' for Active; 'I' for Inactive)
REMARK    1  A    between atoms: C_1  and  C_2
REMARK    2  A    between atoms: C_2  and  C_4
REMARK    3  A    between atoms: C_2  and  N_23
REMARK    4  A    between atoms: N_6  and  C_7
REMARK    5  A    between atoms: C_10  and  N_13
REMARK    6  A    between atoms: N_16  and  C_17
REMARK    7  A    between atoms: C_17  and  C_18
REMARK    8  A    between atoms: C_24  and  C_26
REMARK                            x       y       z     vdW  Elec       q    Type
REMARK                         _______ _______ _______ _____ _____    ______ ____
ROOT
ATOM      1  C   UNL     1       6.787   6.123  -1.366  0.00  0.00    +0.034 A 
ATOM      2  C   UNL     1       7.324   4.953  -1.887  0.00  0.00    +0.025 A 
ATOM      3  C   UNL     1       8.537   4.983  -2.546  0.00  0.00    +0.025 A 
ATOM      4  C   UNL     1       9.226   6.182  -2.677  0.00  0.00    +0.035 A 
ATOM      5  C   UNL     1       8.692   7.351  -2.151  0.00  0.00    +0.025 A 
ATOM      6  C   UNL     1       7.476   7.321  -1.497  0.00  0.00    +0.025 A 
ENDROOT
BRANCH   4   7
ATOM      7  N   UNL     1      10.459   6.212  -3.340  0.00  0.00    -0.269 N 
ATOM      8  C   UNL     1      10.676   5.404  -4.397  0.00  0.00    +0.304 C 
ATOM      9  O   UNL     1       9.833   4.590  -4.723  0.00  0.00    -0.252 OA
ATOM     10  N   UNL     1      11.826   5.498  -5.092  0.00  0.00    -0.292 N 
ATOM     11  H   UNL     1      11.251   6.895  -2.999  0.00  0.00    +0.156 HD
ATOM     12  H   UNL     1      12.589   6.234  -4.798  0.00  0.00    +0.151 HD
BRANCH  10  13
ATOM     13  C   UNL     1      12.062   4.620  -6.241  0.00  0.00    +0.180 C 
BRANCH  13  14
ATOM     14  C   UNL     1      13.411   4.925  -6.838  0.00  0.00    +0.122 A 
ATOM     15  C   UNL     1      14.575   4.345  -6.491  0.00  0.00    +0.046 A 
ATOM     16  C   UNL     1      15.579   4.927  -7.298  0.00  0.00    +0.041 A 
ATOM     17  C   UNL     1      14.970   5.827  -8.091  0.00  0.00    +0.195 A 
ATOM     18  O   UNL     1      13.656   5.817  -7.812  0.00  0.00    -0.466 OA
ENDBRANCH  13  14
ENDBRANCH  10  13
ENDBRANCH   4   7
BRANCH   1  21
ATOM     19  C   UNL     1       4.706   7.136  -0.808  0.00  0.00    +0.237 C 
ATOM     20  O   UNL     1       5.046   8.135  -1.407  0.00  0.00    -0.273 OA
ATOM     21  N   UNL     1       5.553   6.093  -0.703  0.00  0.00    -0.284 N 
ATOM     22  H   UNL     1       5.276   5.218  -0.096  0.00  0.00    +0.155 HD
BRANCH  19  24
ATOM     23  C   UNL     1       2.561   5.892  -0.791  0.00  0.00    +0.038 C 
ATOM     24  C   UNL     1       3.338   7.061  -0.182  0.00  0.00    +0.156 C 
BRANCH  24  25
ATOM     25  N   UNL     1       2.616   8.311  -0.435  0.00  0.00    -0.298 N 
ATOM     26  C   UNL     1       1.630   8.700   0.398  0.00  0.00    +0.280 C 
ATOM     27  O   UNL     1       1.339   8.014   1.360  0.00  0.00    -0.267 OA
ATOM     28  H   UNL     1       2.879   8.931  -1.304  0.00  0.00    +0.150 HD
BRANCH  26  29
ATOM     29  C   UNL     1       0.908   9.951   0.144  0.00  0.00    +0.189 A 
ATOM     30  C   UNL     1      -0.106  10.460   0.904  0.00  0.00    +0.054 A 
ATOM     31  C   UNL     1      -0.499  11.664   0.298  0.00  0.00    +0.042 A 
ATOM     32  C   UNL     1       0.282  11.835  -0.790  0.00  0.00    +0.196 A 
ATOM     33  O   UNL     1       1.129  10.801  -0.880  0.00  0.00    -0.458 OA
ENDBRANCH  26  29
ENDBRANCH  24  25
ENDBRANCH  19  24
ENDBRANCH   1  21
TORSDOF 7
