REMARK  Name = ZINC18049693
REMARK  7 active torsions:
REMARK  status: ('A' for Active; 'I' for Inactive)
REMARK    1  A    between atoms: C_1  and  C_2
REMARK    2  A    between atoms: N_7  and  C_9
REMARK    3  A    between atoms: C_12  and  C_18
REMARK    4  A    between atoms: C_14  and  N_15
REMARK    5  A    between atoms: N_20  and  C_21
REMARK    6  A    between atoms: C_21  and  C_22
REMARK    7  A    between atoms: N_24  and  C_25
REMARK                            x       y       z     vdW  Elec       q    Type
REMARK                         _______ _______ _______ _____ _____    ______ ____
ROOT
ATOM      1  C   UNL     1       3.907   7.475   0.435  0.00  0.00    +0.245 C 
ATOM      2  O   UNL     1       2.961   8.227   0.565  0.00  0.00    -0.270 OA
ATOM      3  N   UNL     1       3.698   6.162   0.214  0.00  0.00    -0.303 N 
ATOM      4  H   UNL     1       4.452   5.561   0.110  0.00  0.00    +0.150 HD
ENDROOT
BRANCH   1   8
ATOM      5  C   UNL     1       7.869   8.983   0.674  0.00  0.00    +0.060 A 
ATOM      6  C   UNL     1       7.655   7.626   0.447  0.00  0.00    +0.026 A 
ATOM      7  C   UNL     1       6.372   7.135   0.368  0.00  0.00    +0.015 A 
ATOM      8  C   UNL     1       5.283   7.999   0.518  0.00  0.00    +0.039 A 
ATOM      9  C   UNL     1       5.502   9.361   0.741  0.00  0.00    +0.047 A 
ATOM     10  C   UNL     1       6.787   9.846   0.823  0.00  0.00    +0.148 A 
BRANCH   5  16
ATOM     11  C   UNL     1      12.067   8.803   3.104  0.00  0.00    +0.009 C 
ATOM     12  C   UNL     1      11.281   9.494   1.988  0.00  0.00    +0.003 C 
ATOM     13  C   UNL     1      12.051   9.372   0.670  0.00  0.00    +0.006 C 
ATOM     14  C   UNL     1      11.231  10.014  -0.453  0.00  0.00    +0.019 C 
ATOM     15  C   UNL     1       9.863   9.332  -0.532  0.00  0.00    +0.105 C 
ATOM     16  N   UNL     1       9.166   9.477   0.752  0.00  0.00    -0.328 N 
ATOM     17  C   UNL     1       9.912   8.827   1.837  0.00  0.00    +0.108 C 
ENDBRANCH   5  16
BRANCH  10  18
ATOM     18  N   UNL     1       7.019  11.288   1.064  0.00  0.00    +0.058 N 
ATOM     19  O   UNL     1       6.077  12.059   1.100  0.00  0.00    -0.126 OA
ATOM     20  O   UNL     1       8.153  11.704   1.226  0.00  0.00    -0.126 OA
ENDBRANCH  10  18
ENDBRANCH   1   8
BRANCH   3  21
ATOM     21  C   UNL     1       2.331   5.641   0.132  0.00  0.00    +0.200 C 
BRANCH  21  22
ATOM     22  C   UNL     1       2.373   4.156  -0.119  0.00  0.00    +0.234 C 
ATOM     23  O   UNL     1       3.440   3.588  -0.219  0.00  0.00    -0.274 OA
ATOM     24  N   UNL     1       1.225   3.459  -0.232  0.00  0.00    -0.282 N 
ATOM     25  H   UNL     1       0.373   3.923  -0.231  0.00  0.00    +0.155 HD
BRANCH  24  26
ATOM     26  C   UNL     1       1.262   2.063  -0.352  0.00  0.00    +0.072 A 
ATOM     27  C   UNL     1       2.353   1.353   0.128  0.00  0.00    +0.029 A 
ATOM     28  C   UNL     1       2.389  -0.023   0.010  0.00  0.00    +0.043 A 
ATOM     29  C   UNL     1       1.338  -0.696  -0.589  0.00  0.00    +0.161 A 
ATOM     30  C   UNL     1       0.246   0.009  -1.071  0.00  0.00    +0.195 A 
ATOM     31  C   UNL     1       0.206   1.388  -0.953  0.00  0.00    +0.182 A 
ATOM     32  F   UNL     1      -0.855   2.077  -1.427  0.00  0.00    -0.200 F 
ATOM     33  F   UNL     1      -0.779  -0.649  -1.655  0.00  0.00    -0.199 F 
ATOM     34  F   UNL     1       1.376  -2.042  -0.704  0.00  0.00    -0.202 F 
ENDBRANCH  24  26
ENDBRANCH  21  22
ENDBRANCH   3  21
TORSDOF 6
