REMARK  Name = ZINC09180353
REMARK  9 active torsions:
REMARK  status: ('A' for Active; 'I' for Inactive)
REMARK    1  A    between atoms: C_4  and  C_7
REMARK    2  A    between atoms: C_7  and  C_8
REMARK    3  A    between atoms: C_7  and  C_14
REMARK    4  A    between atoms: C_7  and  O_33
REMARK    5  A    between atoms: C_14  and  O_16
REMARK    6  A    between atoms: O_16  and  C_17
REMARK    7  A    between atoms: C_17  and  C_18
REMARK    8  A    between atoms: N_20  and  C_21
REMARK    9  A    between atoms: C_22  and  C_30
REMARK                            x       y       z     vdW  Elec       q    Type
REMARK                         _______ _______ _______ _____ _____    ______ ____
ROOT
ATOM      1  C   UNL     1       0.737  -0.967   0.924  0.00  0.00    +0.328 C 
ENDROOT
BRANCH   1   2
ATOM      2  C   UNL     1       0.352  -2.424   0.893  0.00  0.00    +0.255 C 
ATOM      3  O   UNL     1      -0.763  -2.748   0.541  0.00  0.00    -0.272 OA
ATOM      4  N   UNL     1       1.245  -3.365   1.255  0.00  0.00    -0.277 N 
ATOM      5  H   UNL     1       2.137  -3.105   1.536  0.00  0.00    +0.155 HD
BRANCH   4   6
ATOM      6  C   UNL     1       0.890  -4.705   1.227  0.00  0.00    +0.084 A 
ATOM      7  C   UNL     1       1.665  -5.809   1.554  0.00  0.00    +0.068 A 
ATOM      8  C   UNL     1       1.047  -7.120   1.442  0.00  0.00    -0.023 A 
ATOM      9  C   UNL     1      -0.234  -7.117   1.012  0.00  0.00    -0.004 A 
ATOM     10  S   UNL     1      -0.625  -5.408   0.766  0.00  0.00    -0.077 S 
ATOM     11  C   UNL     1      -1.116  -8.308   0.795  0.00  0.00    +0.043 C 
ATOM     12  C   UNL     1      -0.235  -9.565   0.776  0.00  0.00    +0.005 C 
ATOM     13  C   UNL     1       0.715  -9.521   1.976  0.00  0.00    +0.005 C 
ATOM     14  C   UNL     1       1.762  -8.425   1.771  0.00  0.00    +0.037 C 
BRANCH   7  15
ATOM     15  C   UNL     1       3.053  -5.659   2.002  0.00  0.00    +0.244 C 
ATOM     16  O   UNL     1       3.300  -5.531   3.187  0.00  0.00    -0.270 OA
ATOM     17  N   UNL     1       4.055  -5.662   1.101  0.00  0.00    -0.325 N 
ATOM     18  H   UNL     1       3.858  -5.764   0.156  0.00  0.00    +0.145 HD
ATOM     19  H   UNL     1       4.973  -5.563   1.397  0.00  0.00    +0.145 HD
ENDBRANCH   7  15
ENDBRANCH   4   6
ENDBRANCH   1   2
BRANCH   1  20
ATOM     20  O   UNL     1      -0.389  -0.159   0.492  0.00  0.00    -0.453 OA
BRANCH  20  21
ATOM     21  C   UNL     1      -0.209   1.171   0.463  0.00  0.00    +0.349 C 
ATOM     22  O   UNL     1       0.855   1.644   0.787  0.00  0.00    -0.247 OA
BRANCH  21  23
ATOM     23  C   UNL     1      -1.331   2.074   0.020  0.00  0.00    +0.213 C 
BRANCH  23  27
ATOM     24  C   UNL     1      -3.887   2.904   3.340  0.00  0.00    +0.000 A 
ATOM     25  C   UNL     1      -4.431   2.669   2.091  0.00  0.00    +0.000 A 
ATOM     26  C   UNL     1      -3.604   2.400   1.017  0.00  0.00    +0.007 A 
ATOM     27  C   UNL     1      -2.233   2.367   1.191  0.00  0.00    -0.001 A 
ATOM     28  C   UNL     1      -1.689   2.596   2.441  0.00  0.00    +0.007 A 
ATOM     29  C   UNL     1      -2.516   2.870   3.515  0.00  0.00    +0.000 A 
ENDBRANCH  23  27
BRANCH  23  30
ATOM     30  C   UNL     1      -0.759   3.364  -0.509  0.00  0.00    -0.001 A 
ATOM     31  C   UNL     1      -0.076   4.215   0.339  0.00  0.00    +0.007 A 
ATOM     32  C   UNL     1       0.453   5.397  -0.147  0.00  0.00    +0.000 A 
ATOM     33  C   UNL     1       0.290   5.731  -1.479  0.00  0.00    +0.000 A 
ATOM     34  C   UNL     1      -0.399   4.882  -2.325  0.00  0.00    +0.000 A 
ATOM     35  C   UNL     1      -0.923   3.699  -1.840  0.00  0.00    +0.007 A 
ENDBRANCH  23  30
BRANCH  23  36
ATOM     36  O   UNL     1      -2.083   1.429  -1.010  0.00  0.00    -0.370 OA
ATOM     37  H   UNL     1      -1.565   1.210  -1.797  0.00  0.00    +0.212 HD
ENDBRANCH  23  36
ENDBRANCH  21  23
ENDBRANCH  20  21
ENDBRANCH   1  20
TORSDOF 9
