REMARK  Name = ZINC44737334
REMARK  7 active torsions:
REMARK  status: ('A' for Active; 'I' for Inactive)
REMARK    1  A    between atoms: C_1  and  C_2
REMARK    2  A    between atoms: C_9  and  C_11
REMARK    3  A    between atoms: C_11  and  C_13
REMARK    4  A    between atoms: C_11  and  N_14
REMARK    5  A    between atoms: C_15  and  C_17
REMARK    6  A    between atoms: C_28  and  C_30
REMARK    7  A    between atoms: N_34  and  C_35
REMARK                            x       y       z     vdW  Elec       q    Type
REMARK                         _______ _______ _______ _____ _____    ______ ____
ROOT
ATOM      1  C   UNL     1       2.111  -9.000   0.017  0.00  0.00    +0.100 C 
ATOM      2  C   UNL     1       3.361  -8.301  -0.563  0.00  0.00    +0.121 C 
ATOM      3  N   UNL     1       4.391  -8.438   0.494  0.00  0.00    -0.295 N 
ATOM      4  C   UNL     1       4.189  -9.806   1.029  0.00  0.00    +0.115 C 
ATOM      5  C   UNL     1       2.659  -9.989   1.059  0.00  0.00    -0.004 C 
ATOM      6  C   UNL     1       2.291 -11.419   0.675  0.00  0.00    -0.010 C 
ATOM      7  C   UNL     1       2.796 -12.380   1.756  0.00  0.00    -0.082 C 
ATOM      8  N   UNL     1       2.192 -12.027   3.046  0.00  0.00    +0.379 N 
ATOM      9  C   UNL     1       2.627 -10.686   3.453  0.00  0.00    -0.082 C 
ATOM     10  C   UNL     1       2.115  -9.654   2.444  0.00  0.00    -0.010 C 
ATOM     11  C   UNL     1       5.304  -7.526   0.881  0.00  0.00    +0.263 C 
ATOM     12  O   UNL     1       6.207  -7.849   1.630  0.00  0.00    -0.268 OA
ATOM     13  H   UNL     1       1.187 -12.043   2.962  0.00  0.00    -0.086 HD
ATOM     14  H   UNL     1       2.479 -12.698   3.744  0.00  0.00    -0.086 HD
ENDROOT
BRANCH  11  15
ATOM     15  C   UNL     1       5.210  -6.144   0.399  0.00  0.00    +0.104 A 
ATOM     16  C   UNL     1       4.093  -5.545  -0.145  0.00  0.00    +0.032 A 
ATOM     17  C   UNL     1       4.447  -4.230  -0.465  0.00  0.00    +0.020 A 
ATOM     18  C   UNL     1       5.745  -4.053  -0.119  0.00  0.00    +0.086 A 
ATOM     19  N   UNL     1       6.218  -5.207   0.412  0.00  0.00    -0.346 N 
ATOM     20  C   UNL     1       7.578  -5.422   0.914  0.00  0.00    +0.149 C 
ENDBRANCH  11  15
BRANCH   1  22
ATOM     21  N   UNL     1      -0.128  -8.193   0.692  0.00  0.00    -0.305 N 
ATOM     22  C   UNL     1       1.205  -7.992   0.676  0.00  0.00    +0.219 C 
ATOM     23  O   UNL     1       1.675  -7.000   1.192  0.00  0.00    -0.275 OA
ATOM     24  H   UNL     1      -0.504  -8.986   0.280  0.00  0.00    +0.149 HD
BRANCH  21  25
ATOM     25  C   UNL     1      -1.008  -7.213   1.333  0.00  0.00    +0.136 C 
ATOM     26  C   UNL     1      -1.093  -7.508   2.832  0.00  0.00    +0.036 C 
BRANCH  25  35
ATOM     27  C   UNL     1      -7.928  -6.377  -1.276  0.00  0.00    +0.044 C 
ATOM     28  C   UNL     1      -6.589  -6.974  -0.925  0.00  0.00    -0.048 A 
ATOM     29  C   UNL     1      -6.309  -8.288  -1.270  0.00  0.00    +0.005 A 
ATOM     30  C   UNL     1      -5.102  -8.848  -0.961  0.00  0.00    +0.030 A 
ATOM     31  C   UNL     1      -4.136  -8.093  -0.289  0.00  0.00    +0.089 A 
ATOM     32  C   UNL     1      -4.419  -6.762   0.060  0.00  0.00    +0.067 A 
ATOM     33  C   UNL     1      -5.650  -6.209  -0.267  0.00  0.00    +0.031 A 
ATOM     34  N   UNL     1      -3.292  -6.288   0.701  0.00  0.00    -0.340 N 
ATOM     35  C   UNL     1      -2.384  -7.301   0.725  0.00  0.00    +0.128 A 
ATOM     36  N   UNL     1      -2.877  -8.357   0.146  0.00  0.00    -0.231 NA
ATOM     37  H   UNL     1      -3.169  -5.398   1.066  0.00  0.00    +0.167 HD
ENDBRANCH  25  35
ENDBRANCH  21  25
ENDBRANCH   1  22
TORSDOF 4
