REMARK  Name = ZINC28851428
REMARK  6 active torsions:
REMARK  status: ('A' for Active; 'I' for Inactive)
REMARK    1  A    between atoms: C_1  and  C_2
REMARK    2  A    between atoms: C_2  and  N_3
REMARK    3  A    between atoms: C_7  and  C_9
REMARK    4  A    between atoms: C_9  and  C_11
REMARK    5  A    between atoms: C_9  and  S_12
REMARK    6  A    between atoms: S_12  and  C_13
REMARK                            x       y       z     vdW  Elec       q    Type
REMARK                         _______ _______ _______ _____ _____    ______ ____
ROOT
ATOM      1  C   UNL     1      -0.729   1.579   1.267  0.00  0.00    +0.137 C 
ATOM      2  C   UNL     1      -0.013   1.086   0.008  0.00  0.00    +0.029 C 
ENDROOT
BRANCH   1   7
ATOM      3  N   UNL     1      -5.305   1.810  -0.189  0.00  0.00    -0.299 N 
ATOM      4  C   UNL     1      -4.356   1.201   0.549  0.00  0.00    +0.306 C 
ATOM      5  O   UNL     1      -4.641   0.230   1.223  0.00  0.00    -0.252 OA
ATOM      6  N   UNL     1      -3.091   1.667   0.539  0.00  0.00    -0.239 N 
ATOM      7  C   UNL     1      -2.143   1.058   1.278  0.00  0.00    +0.233 C 
ATOM      8  O   UNL     1      -2.427   0.090   1.950  0.00  0.00    -0.274 OA
ATOM      9  H   UNL     1      -5.047   2.689  -0.799  0.00  0.00    +0.150 HD
ATOM     10  H   UNL     1      -2.834   2.546  -0.071  0.00  0.00    +0.159 HD
BRANCH   3  12
ATOM     11  C   UNL     1      -7.549   2.168  -1.093  0.00  0.00    +0.024 C 
ATOM     12  C   UNL     1      -6.679   1.303  -0.178  0.00  0.00    +0.102 C 
ENDBRANCH   3  12
ENDBRANCH   1   7
BRANCH   1  13
ATOM     13  S   UNL     1       0.148   0.978   2.736  0.00  0.00    -0.073 S 
BRANCH  13  14
ATOM     14  C   UNL     1       1.714   1.782   2.657  0.00  0.00    +0.197 A 
ATOM     15  N   UNL     1       2.115   2.615   1.722  0.00  0.00    -0.122 NA
ATOM     16  N   UNL     1       3.310   3.022   1.971  0.00  0.00    -0.127 NA
ATOM     17  C   UNL     1       3.749   2.461   3.082  0.00  0.00    +0.180 A 
ATOM     18  N   UNL     1       2.736   1.651   3.549  0.00  0.00    -0.275 N 
ATOM     19  C   UNL     1       2.901   0.931   4.701  0.00  0.00    +0.115 A 
ATOM     20  C   UNL     1       4.056   1.002   5.393  0.00  0.00    +0.059 A 
ATOM     21  C   UNL     1       5.109   1.821   4.941  0.00  0.00    +0.045 A 
ATOM     22  C   UNL     1       4.962   2.543   3.798  0.00  0.00    +0.087 A 
ATOM     23 CL   UNL     1       6.251   3.556   3.228  0.00  0.00    -0.080 Cl
ATOM     24 CL   UNL     1       4.246   0.080   6.852  0.00  0.00    -0.082 Cl
ENDBRANCH  13  14
ENDBRANCH   1  13
TORSDOF 4
