REMARK  Name = ZINC05831947
REMARK  9 active torsions:
REMARK  status: ('A' for Active; 'I' for Inactive)
REMARK    1  A    between atoms: C_1  and  C_2
REMARK    2  A    between atoms: C_2  and  C_8
REMARK    3  A    between atoms: N_3  and  N_4
REMARK    4  A    between atoms: C_8  and  C_10
REMARK    5  A    between atoms: C_8  and  C_16
REMARK    6  A    between atoms: C_10  and  N_62
REMARK    7  A    between atoms: C_16  and  C_18
REMARK    8  A    between atoms: C_16  and  C_24
REMARK    9  A    between atoms: C_25  and  O_35
REMARK                            x       y       z     vdW  Elec       q    Type
REMARK                         _______ _______ _______ _____ _____    ______ ____
ROOT
ATOM      1  C   UNL     1       2.951   3.989   0.089  0.00  0.00    +0.066 C 
ENDROOT
BRANCH   1   2
ATOM      2  C   UNL     1       3.234   5.080   1.090  0.00  0.00    +0.087 A 
ATOM      3  C   UNL     1       4.412   5.087   1.784  0.00  0.00    +0.138 A 
ATOM      4  C   UNL     1       4.641   6.176   2.745  0.00  0.00    +0.059 A 
ATOM      5  C   UNL     1       5.824   6.248   3.485  0.00  0.00    +0.015 A 
ATOM      6  C   UNL     1       6.005   7.277   4.381  0.00  0.00    +0.001 A 
ATOM      7  C   UNL     1       5.020   8.240   4.550  0.00  0.00    +0.004 A 
ATOM      8  C   UNL     1       3.848   8.181   3.826  0.00  0.00    +0.047 A 
ATOM      9  C   UNL     1       3.645   7.151   2.917  0.00  0.00    +0.143 A 
ATOM     10  O   UNL     1       2.503   7.077   2.201  0.00  0.00    -0.422 OA
ATOM     11  C   UNL     1       2.286   6.090   1.318  0.00  0.00    +0.345 A 
ATOM     12  O   UNL     1       1.238   6.069   0.696  0.00  0.00    -0.245 OA
BRANCH   3  13
ATOM     13  O   UNL     1       5.340   4.123   1.589  0.00  0.00    -0.506 OA
ATOM     14  H   UNL     1       5.983   4.329   0.896  0.00  0.00    +0.292 HD
ENDBRANCH   3  13
ENDBRANCH   1   2
BRANCH   1  15
ATOM     15  C   UNL     1       1.668   3.290   0.457  0.00  0.00    -0.039 A 
ATOM     16  C   UNL     1       0.468   3.719  -0.080  0.00  0.00    +0.004 A 
ATOM     17  C   UNL     1      -0.709   3.078   0.257  0.00  0.00    +0.000 A 
ATOM     18  C   UNL     1      -0.687   2.011   1.135  0.00  0.00    +0.000 A 
ATOM     19  C   UNL     1       0.513   1.578   1.668  0.00  0.00    +0.000 A 
ATOM     20  C   UNL     1       1.690   2.219   1.330  0.00  0.00    +0.004 A 
ENDBRANCH   1  15
BRANCH   1  21
ATOM     21  C   UNL     1       2.817   4.601  -1.307  0.00  0.00    +0.030 C 
BRANCH  21  23
ATOM     22  C   UNL     1       2.062   3.905  -3.707  0.00  0.00    +0.062 C 
ATOM     23  C   UNL     1       2.391   3.534  -2.284  0.00  0.00    +0.036 C 
ATOM     24  N   UNL     1       2.310   2.315  -1.904  0.00  0.00    -0.188 NA
BRANCH  24  25
ATOM     25  N   UNL     1       2.032   1.308  -2.838  0.00  0.00    -0.191 N 
ATOM     26  C   UNL     1       1.865   0.035  -2.427  0.00  0.00    +0.317 C 
ATOM     27  O   UNL     1       1.715  -0.853  -3.244  0.00  0.00    -0.251 OA
ATOM     28  N   UNL     1       1.865  -0.253  -1.110  0.00  0.00    -0.312 N 
ATOM     29  H   UNL     1       1.960   1.526  -3.780  0.00  0.00    +0.179 HD
ATOM     30  H   UNL     1       1.913   0.462  -0.457  0.00  0.00    +0.147 HD
ATOM     31  H   UNL     1       1.818  -1.176  -0.816  0.00  0.00    +0.147 HD
ENDBRANCH  24  25
ENDBRANCH  21  23
BRANCH  21  32
ATOM     32  C   UNL     1       4.164   5.181  -1.741  0.00  0.00    -0.068 C 
BRANCH  32  38
ATOM     33  C   UNL     1       3.661   7.500  -1.256  0.00  0.00    -0.050 C 
ATOM     34  C   UNL     1       3.993   8.665  -0.318  0.00  0.00    +0.141 C 
ATOM     35  O   UNL     1       5.391   8.954  -0.401  0.00  0.00    -0.383 OA
ATOM     36  C   UNL     1       6.229   7.846  -0.061  0.00  0.00    +0.141 C 
ATOM     37  C   UNL     1       5.920   6.674  -0.996  0.00  0.00    -0.050 C 
ATOM     38  N   UNL     1       4.486   6.335  -0.874  0.00  0.00    +0.383 N 
ATOM     39  H   UNL     1       4.283   6.087   0.101  0.00  0.00    -0.082 HD
ENDBRANCH  32  38
ENDBRANCH  21  32
ENDBRANCH   1  21
TORSDOF 8
