REMARK  Name = ZINC04882560
REMARK  8 active torsions:
REMARK  status: ('A' for Active; 'I' for Inactive)
REMARK    1  A    between atoms: C_2  and  C_3
REMARK    2  A    between atoms: C_3  and  N_4
REMARK    3  A    between atoms: C_5  and  C_7
REMARK    4  A    between atoms: C_7  and  C_28
REMARK    5  A    between atoms: C_8  and  C_9
REMARK    6  A    between atoms: C_12  and  N_15
REMARK    7  A    between atoms: N_15  and  C_16
REMARK    8  A    between atoms: N_15  and  C_22
REMARK                            x       y       z     vdW  Elec       q    Type
REMARK                         _______ _______ _______ _____ _____    ______ ____
ROOT
ATOM      1  C   UNL     1      -0.785   2.725  -0.762  0.00  0.00    -0.024 A 
ATOM      2  C   UNL     1      -1.909   2.102  -0.200  0.00  0.00    +0.010 A 
ATOM      3  C   UNL     1      -3.081   2.792  -0.081  0.00  0.00    +0.024 A 
ATOM      4  C   UNL     1      -3.164   4.111  -0.526  0.00  0.00    +0.039 A 
ATOM      5  C   UNL     1      -2.051   4.732  -1.090  0.00  0.00    +0.024 A 
ATOM      6  C   UNL     1      -0.874   4.053  -1.209  0.00  0.00    +0.010 A 
ENDROOT
BRANCH   1   8
ATOM      7  C   UNL     1       0.796   1.011   0.027  0.00  0.00    +0.114 C 
ATOM      8  C   UNL     1       0.475   1.992  -0.887  0.00  0.00    +0.032 C 
BRANCH   7  10
ATOM      9  N   UNL     1       2.306  -0.779   0.720  0.00  0.00    -0.307 N 
ATOM     10  C   UNL     1       1.993   0.180  -0.174  0.00  0.00    +0.255 C 
ATOM     11  O   UNL     1       2.700   0.359  -1.148  0.00  0.00    -0.269 OA
ATOM     12  H   UNL     1       1.742  -0.921   1.496  0.00  0.00    +0.149 HD
BRANCH   9  13
ATOM     13  C   UNL     1       3.498  -1.606   0.519  0.00  0.00    +0.131 C 
BRANCH  13  15
ATOM     14  C   UNL     1       3.711  -3.875   1.395  0.00  0.00    +0.005 C 
ATOM     15  C   UNL     1       3.621  -2.593   1.651  0.00  0.00    -0.016 C 
ENDBRANCH  13  15
ENDBRANCH   9  13
ENDBRANCH   7  10
BRANCH   7  16
ATOM     16  C   UNL     1      -0.037   0.800   1.173  0.00  0.00    +0.104 C 
ATOM     17  N   UNL     1      -0.698   0.633   2.082  0.00  0.00    -0.191 NA
ENDBRANCH   7  16
ENDBRANCH   1   8
BRANCH   4  18
ATOM     18  N   UNL     1      -4.361   4.808  -0.407  0.00  0.00    -0.269 N 
BRANCH  18  19
ATOM     19  C   UNL     1      -5.462   4.444  -1.189  0.00  0.00    +0.039 A 
ATOM     20  C   UNL     1      -5.332   3.457  -2.158  0.00  0.00    +0.024 A 
ATOM     21  C   UNL     1      -6.423   3.097  -2.924  0.00  0.00    +0.002 A 
ATOM     22  C   UNL     1      -7.641   3.725  -2.736  0.00  0.00    +0.000 A 
ATOM     23  C   UNL     1      -7.772   4.712  -1.776  0.00  0.00    +0.002 A 
ATOM     24  C   UNL     1      -6.686   5.074  -1.002  0.00  0.00    +0.024 A 
ENDBRANCH  18  19
BRANCH  18  25
ATOM     25  C   UNL     1      -4.464   5.872   0.494  0.00  0.00    +0.039 A 
ATOM     26  C   UNL     1      -4.592   7.172   0.023  0.00  0.00    +0.024 A 
ATOM     27  C   UNL     1      -4.699   8.220   0.916  0.00  0.00    +0.002 A 
ATOM     28  C   UNL     1      -4.668   7.978   2.277  0.00  0.00    +0.000 A 
ATOM     29  C   UNL     1      -4.535   6.684   2.749  0.00  0.00    +0.002 A 
ATOM     30  C   UNL     1      -4.433   5.631   1.862  0.00  0.00    +0.024 A 
ENDBRANCH  18  25
ENDBRANCH   4  18
TORSDOF 8
