REMARK  Name = ZINC09135725
REMARK  8 active torsions:
REMARK  status: ('A' for Active; 'I' for Inactive)
REMARK    1  A    between atoms: C_1  and  N_2
REMARK    2  A    between atoms: C_10  and  C_12
REMARK    3  A    between atoms: C_12  and  C_14
REMARK    4  A    between atoms: C_12  and  N_62
REMARK    5  A    between atoms: C_14  and  N_15
REMARK    6  A    between atoms: C_16  and  C_18
REMARK    7  A    between atoms: N_20  and  C_21
REMARK    8  A    between atoms: C_26  and  N_27
REMARK                            x       y       z     vdW  Elec       q    Type
REMARK                         _______ _______ _______ _____ _____    ______ ____
ROOT
ATOM      1  C   UNL     1      -8.085  -0.421  -1.377  0.00  0.00    -0.020 C 
ENDROOT
BRANCH   1  11
ATOM      2  C   UNL     1     -13.543   2.447  -0.002  0.00  0.00    +0.129 C 
ATOM      3  N   UNL     1     -13.474   1.294  -0.909  0.00  0.00    -0.333 N 
ATOM      4  C   UNL     1     -14.149   1.582  -2.176  0.00  0.00    +0.105 C 
ATOM      5  C   UNL     1     -14.022   0.357  -3.090  0.00  0.00    +0.024 C 
ATOM      6  C   UNL     1     -12.551   0.217  -3.489  0.00  0.00    +0.038 C 
ATOM      7  C   UNL     1     -11.679   0.347  -2.265  0.00  0.00    -0.026 A 
ATOM      8  C   UNL     1     -12.158   0.866  -1.075  0.00  0.00    +0.033 A 
ATOM      9  C   UNL     1     -11.300   0.971   0.021  0.00  0.00    +0.023 A 
ATOM     10  C   UNL     1      -9.990   0.551  -0.076  0.00  0.00    +0.004 A 
ATOM     11  C   UNL     1      -9.517   0.035  -1.268  0.00  0.00    -0.059 A 
ATOM     12  C   UNL     1     -10.360  -0.068  -2.357  0.00  0.00    +0.007 A 
ENDBRANCH   1  11
BRANCH   1  17
ATOM     13  C   UNL     1      -8.501  -2.338   0.065  0.00  0.00    -0.078 C 
ATOM     14  C   UNL     1      -7.641  -3.168   1.050  0.00  0.00    -0.020 C 
ATOM     15  C   UNL     1      -6.198  -2.883   0.574  0.00  0.00    -0.020 C 
ATOM     16  C   UNL     1      -6.286  -1.557  -0.204  0.00  0.00    -0.078 C 
ATOM     17  N   UNL     1      -7.683  -1.130  -0.125  0.00  0.00    +0.385 N 
ATOM     18  H   UNL     1      -7.808  -0.497   0.674  0.00  0.00    -0.081 HD
ENDBRANCH   1  17
BRANCH   1  19
ATOM     19  C   UNL     1      -7.178   0.792  -1.595  0.00  0.00    +0.094 C 
BRANCH  19  20
ATOM     20  N   UNL     1      -7.467   1.389  -2.901  0.00  0.00    -0.309 N 
ATOM     21  C   UNL     1      -6.854   2.531  -3.271  0.00  0.00    +0.299 C 
ATOM     22  O   UNL     1      -6.062   3.065  -2.521  0.00  0.00    -0.265 OA
ATOM     23  H   UNL     1      -8.099   0.963  -3.501  0.00  0.00    +0.149 HD
BRANCH  21  24
ATOM     24  C   UNL     1      -7.147   3.139  -4.603  0.00  0.00    +0.303 C 
ATOM     25  O   UNL     1      -7.939   2.605  -5.353  0.00  0.00    -0.265 OA
ATOM     26  N   UNL     1      -6.534   4.281  -4.972  0.00  0.00    -0.276 N 
ATOM     27  H   UNL     1      -5.848   4.668  -4.407  0.00  0.00    +0.155 HD
BRANCH  26  28
ATOM     28  C   UNL     1      -6.887   4.907  -6.171  0.00  0.00    +0.064 A 
ATOM     29  C   UNL     1      -8.184   4.802  -6.656  0.00  0.00    +0.025 A 
ATOM     30  C   UNL     1      -8.530   5.422  -7.840  0.00  0.00    +0.002 A 
ATOM     31  C   UNL     1      -7.585   6.149  -8.543  0.00  0.00    +0.002 A 
ATOM     32  C   UNL     1      -6.294   6.260  -8.060  0.00  0.00    +0.034 A 
ATOM     33  C   UNL     1      -5.941   5.637  -6.879  0.00  0.00    +0.147 A 
BRANCH  33  34
ATOM     34  N   UNL     1      -4.557   5.753  -6.366  0.00  0.00    +0.058 N 
ATOM     35  O   UNL     1      -3.745   6.444  -6.954  0.00  0.00    -0.126 OA
ATOM     36  O   UNL     1      -4.232   5.160  -5.353  0.00  0.00    -0.126 OA
ENDBRANCH  33  34
ENDBRANCH  26  28
ENDBRANCH  21  24
ENDBRANCH  19  20
ENDBRANCH   1  19
TORSDOF 7
