REMARK  Name = ZINC04848572
REMARK  5 active torsions:
REMARK  status: ('A' for Active; 'I' for Inactive)
REMARK    1  A    between atoms: C_1  and  C_2
REMARK    2  A    between atoms: N_15  and  C_16
REMARK    3  A    between atoms: C_16  and  C_17
REMARK    4  A    between atoms: C_17  and  N_18
REMARK    5  A    between atoms: C_19  and  C_21
REMARK                            x       y       z     vdW  Elec       q    Type
REMARK                         _______ _______ _______ _____ _____    ______ ____
ROOT
ATOM      1  C   UNL     1       3.201   7.288  -0.975  0.00  0.00    +0.088 C 
ATOM      2  C   UNL     1       2.719   5.866  -0.841  0.00  0.00    +0.129 A 
ATOM      3  N   UNL     1       1.423   5.636  -0.911  0.00  0.00    -0.217 NA
ATOM      4  C   UNL     1       0.876   4.426  -0.808  0.00  0.00    +0.131 A 
ATOM      5  C   UNL     1       1.786   3.348  -0.610  0.00  0.00    +0.051 A 
ATOM      6  C   UNL     1       1.460   1.939  -0.467  0.00  0.00    -0.025 A 
ATOM      7  C   UNL     1       2.499   1.091  -0.287  0.00  0.00    -0.004 A 
ATOM      8  S   UNL     1       3.948   2.117  -0.300  0.00  0.00    -0.073 S 
ATOM      9  C   UNL     1       3.164   3.677  -0.545  0.00  0.00    +0.114 A 
ATOM     10  N   UNL     1       3.620   4.909  -0.658  0.00  0.00    -0.225 NA
ATOM     11  C   UNL     1       2.437  -0.396  -0.116  0.00  0.00    +0.043 C 
ATOM     12  C   UNL     1       0.986  -0.790   0.197  0.00  0.00    +0.005 C 
ATOM     13  C   UNL     1       0.061  -0.089  -0.803  0.00  0.00    +0.005 C 
ATOM     14  C   UNL     1       0.028   1.412  -0.513  0.00  0.00    +0.037 C 
ATOM     15  N   UNL     1      -0.491   4.228  -0.888  0.00  0.00    -0.327 N 
ATOM     16  H   UNL     1      -0.864   3.347  -0.726  0.00  0.00    +0.148 HD
ENDROOT
BRANCH  15  17
ATOM     17  C   UNL     1      -1.375   5.349  -1.217  0.00  0.00    +0.121 C 
BRANCH  17  18
ATOM     18  C   UNL     1      -2.826   4.864  -1.241  0.00  0.00    +0.123 C 
BRANCH  18  19
ATOM     19  N   UNL     1      -3.710   5.984  -1.570  0.00  0.00    -0.313 N 
ATOM     20  C   UNL     1      -5.042   5.792  -1.648  0.00  0.00    +0.219 C 
ATOM     21  O   UNL     1      -5.508   4.690  -1.446  0.00  0.00    -0.275 OA
ATOM     22  H   UNL     1      -3.337   6.865  -1.732  0.00  0.00    +0.149 HD
BRANCH  20  23
ATOM     23  C   UNL     1      -5.951   6.944  -1.987  0.00  0.00    +0.048 C 
ATOM     24  C   UNL     1      -5.798   8.042  -0.932  0.00  0.00    +0.019 C 
ATOM     25  C   UNL     1      -6.722   9.212  -1.275  0.00  0.00    -0.009 C 
ATOM     26  C   UNL     1      -8.172   8.727  -1.299  0.00  0.00    +0.007 C 
ATOM     27  C   UNL     1      -8.326   7.630  -2.354  0.00  0.00    -0.009 C 
ATOM     28  C   UNL     1      -7.402   6.459  -2.011  0.00  0.00    +0.019 C 
ATOM     29  C   UNL     1      -7.952   8.188  -3.729  0.00  0.00    +0.007 C 
ATOM     30  C   UNL     1      -6.501   8.673  -3.705  0.00  0.00    -0.009 C 
ATOM     31  C   UNL     1      -6.348   9.770  -2.650  0.00  0.00    +0.007 C 
ATOM     32  C   UNL     1      -5.577   7.503  -3.361  0.00  0.00    +0.019 C 
ENDBRANCH  20  23
ENDBRANCH  18  19
ENDBRANCH  17  18
ENDBRANCH  15  17
TORSDOF 4
