REMARK  Name = ZINC25495174
REMARK  5 active torsions:
REMARK  status: ('A' for Active; 'I' for Inactive)
REMARK    1  A    between atoms: C_4  and  C_7
REMARK    2  A    between atoms: C_7  and  C_14
REMARK    3  A    between atoms: N_8  and  N_9
REMARK    4  A    between atoms: N_12  and  N_13
REMARK    5  A    between atoms: C_14  and  C_16
REMARK                            x       y       z     vdW  Elec       q    Type
REMARK                         _______ _______ _______ _____ _____    ______ ____
ROOT
ATOM      1  C   UNL     1      -2.328   0.844   0.136  0.00  0.00    +0.136 C 
ATOM      2  N   UNL     1      -1.230   1.543  -0.021  0.00  0.00    -0.175 NA
ENDROOT
BRANCH   1   6
ATOM      3  C   UNL     1      -6.105   2.793   0.151  0.00  0.00    +0.000 A 
ATOM      4  C   UNL     1      -4.957   3.517  -0.119  0.00  0.00    +0.001 A 
ATOM      5  C   UNL     1      -3.728   2.890  -0.126  0.00  0.00    +0.010 A 
ATOM      6  C   UNL     1      -3.644   1.524   0.141  0.00  0.00    +0.006 A 
ATOM      7  C   UNL     1      -4.805   0.798   0.407  0.00  0.00    +0.010 A 
ATOM      8  C   UNL     1      -6.028   1.438   0.416  0.00  0.00    +0.001 A 
ENDBRANCH   1   6
BRANCH   2   9
ATOM      9  N   UNL     1       0.005   0.892  -0.133  0.00  0.00    -0.189 N 
ATOM     10  C   UNL     1       1.143   1.612  -0.197  0.00  0.00    +0.333 C 
ATOM     11  O   UNL     1       2.219   1.047  -0.202  0.00  0.00    -0.250 OA
ATOM     12  N   UNL     1       1.087   2.957  -0.257  0.00  0.00    -0.236 N 
ATOM     13  H   UNL     1       0.046  -0.207  -0.168  0.00  0.00    +0.179 HD
ATOM     14  H   UNL     1       2.015   3.544  -0.310  0.00  0.00    +0.170 HD
BRANCH  12  15
ATOM     15  N   UNL     1      -0.123   3.591  -0.253  0.00  0.00    -0.253 NA
ATOM     16  H   UNL     1       0.033   4.679  -0.307  0.00  0.00    +0.141 HD
ATOM     17  H   UNL     1      -0.713   3.262  -1.121  0.00  0.00    +0.141 HD
ENDBRANCH  12  15
ENDBRANCH   2   9
BRANCH   1  18
ATOM     18  C   UNL     1      -2.252  -0.615   0.307  0.00  0.00    +0.213 C 
ATOM     19  O   UNL     1      -2.381  -1.348  -0.655  0.00  0.00    -0.285 OA
BRANCH  18  20
ATOM     20  C   UNL     1      -2.019  -1.191   1.648  0.00  0.00    +0.024 A 
ATOM     21  C   UNL     1      -1.970  -0.360   2.770  0.00  0.00    +0.012 A 
ATOM     22  C   UNL     1      -1.759  -0.904   4.019  0.00  0.00    +0.001 A 
ATOM     23  C   UNL     1      -1.583  -2.270   4.162  0.00  0.00    +0.000 A 
ATOM     24  C   UNL     1      -1.624  -3.098   3.054  0.00  0.00    +0.001 A 
ATOM     25  C   UNL     1      -1.841  -2.568   1.800  0.00  0.00    +0.012 A 
ENDBRANCH  18  20
ENDBRANCH   1  18
TORSDOF 5
