REMARK  Name = ZINC37875368
REMARK  5 active torsions:
REMARK  status: ('A' for Active; 'I' for Inactive)
REMARK    1  A    between atoms: C_4  and  O_7
REMARK    2  A    between atoms: O_7  and  C_8
REMARK    3  A    between atoms: C_11  and  N_14
REMARK    4  A    between atoms: N_14  and  C_15
REMARK    5  A    between atoms: C_20  and  O_22
REMARK                            x       y       z     vdW  Elec       q    Type
REMARK                         _______ _______ _______ _____ _____    ______ ____
ROOT
ATOM      1  C   UNL     1       3.657  -1.989  -0.010  0.00  0.00    +0.129 A 
ATOM      2  C   UNL     1       2.495  -2.746  -0.046  0.00  0.00    +0.048 A 
ATOM      3  C   UNL     1       2.567  -4.125  -0.019  0.00  0.00    +0.026 A 
ATOM      4  C   UNL     1       3.804  -4.754   0.043  0.00  0.00    +0.028 A 
ATOM      5  C   UNL     1       4.967  -3.996   0.078  0.00  0.00    +0.026 A 
ATOM      6  C   UNL     1       4.893  -2.617   0.046  0.00  0.00    +0.048 A 
ENDROOT
BRANCH   4   7
ATOM      7  N   UNL     1       3.877  -6.151   0.070  0.00  0.00    -0.336 N 
ATOM      8  H   UNL     1       3.065  -6.680   0.046  0.00  0.00    +0.147 HD
BRANCH   7   9
ATOM      9  C   UNL     1       5.182  -6.814   0.135  0.00  0.00    +0.127 C 
ATOM     10  C   UNL     1       5.743  -7.046  -1.285  0.00  0.00    +0.184 C 
ATOM     11  O   UNL     1       6.398  -8.332  -1.218  0.00  0.00    -0.375 OA
ATOM     12  C   UNL     1       5.527  -9.161  -0.418  0.00  0.00    +0.193 C 
ATOM     13  C   UNL     1       5.037  -8.236   0.722  0.00  0.00    +0.162 C 
BRANCH  13  14
ATOM     14  O   UNL     1       3.671  -8.511   1.039  0.00  0.00    -0.388 OA
ATOM     15  H   UNL     1       3.523  -9.391   1.412  0.00  0.00    +0.210 HD
ENDBRANCH  13  14
ENDBRANCH   7   9
ENDBRANCH   4   7
BRANCH   1  16
ATOM     16  O   UNL     1       3.586  -0.632  -0.036  0.00  0.00    -0.456 OA
BRANCH  16  20
ATOM     17  C   UNL     1       3.335   1.363   3.566  0.00  0.00    +0.000 A 
ATOM     18  C   UNL     1       3.418  -0.017   3.546  0.00  0.00    +0.004 A 
ATOM     19  C   UNL     1       3.502  -0.687   2.341  0.00  0.00    +0.046 A 
ATOM     20  C   UNL     1       3.503   0.025   1.150  0.00  0.00    +0.128 A 
ATOM     21  C   UNL     1       3.420   1.410   1.174  0.00  0.00    +0.046 A 
ATOM     22  C   UNL     1       3.336   2.076   2.381  0.00  0.00    +0.004 A 
ENDBRANCH  16  20
ENDBRANCH   1  16
TORSDOF 5
