REMARK  Name = ZINC18180061
REMARK  2 active torsions:
REMARK  status: ('A' for Active; 'I' for Inactive)
REMARK    1  A    between atoms: C_4  and  C_7
REMARK    2  A    between atoms: N_15  and  C_18
REMARK                            x       y       z     vdW  Elec       q    Type
REMARK                         _______ _______ _______ _____ _____    ______ ____
ROOT
ATOM      1  C   UNL     1       3.537  -0.529  -0.322  0.00  0.00    +0.163 C 
ATOM      2  C   UNL     1       4.055  -1.155  -1.636  0.00  0.00    +0.125 C 
ATOM      3  C   UNL     1       4.775  -2.454  -1.173  0.00  0.00    +0.138 C 
ATOM      4  C   UNL     1       6.224  -2.187  -1.507  0.00  0.00    +0.234 C 
ATOM      5  O   UNL     1       7.142  -2.953  -1.308  0.00  0.00    -0.274 OA
ATOM      6  N   UNL     1       6.338  -0.973  -2.058  0.00  0.00    -0.210 N 
ATOM      7  C   UNL     1       5.171  -0.296  -2.188  0.00  0.00    +0.233 C 
ATOM      8  O   UNL     1       5.033   0.811  -2.661  0.00  0.00    -0.274 OA
ATOM      9  C   UNL     1       4.572  -2.457   0.350  0.00  0.00    +0.206 C 
ATOM     10  O   UNL     1       3.432  -1.633   0.605  0.00  0.00    -0.348 OA
ATOM     11  C   UNL     1       4.381  -3.856   0.867  0.00  0.00    +0.204 C 
ATOM     12  O   UNL     1       3.514  -4.635   0.536  0.00  0.00    -0.288 OA
ATOM     13  C   UNL     1       5.450  -4.099   1.855  0.00  0.00    +0.031 A 
ATOM     14  C   UNL     1       5.737  -5.225   2.629  0.00  0.00    +0.012 A 
ATOM     15  C   UNL     1       6.809  -5.213   3.500  0.00  0.00    +0.001 A 
ATOM     16  C   UNL     1       7.608  -4.089   3.613  0.00  0.00    +0.001 A 
ATOM     17  C   UNL     1       7.343  -2.964   2.855  0.00  0.00    +0.012 A 
ATOM     18  C   UNL     1       6.265  -2.955   1.968  0.00  0.00    +0.031 A 
ATOM     19  C   UNL     1       5.776  -1.902   1.057  0.00  0.00    +0.204 C 
ATOM     20  O   UNL     1       6.255  -0.798   0.908  0.00  0.00    -0.288 OA
ENDROOT
BRANCH   6  21
ATOM     21  C   UNL     1       7.567  -0.441  -2.477  0.00  0.00    +0.044 A 
ATOM     22  C   UNL     1       8.113   0.650  -1.815  0.00  0.00    +0.027 A 
ATOM     23  C   UNL     1       9.323   1.172  -2.228  0.00  0.00    +0.040 A 
ATOM     24  C   UNL     1       9.991   0.607  -3.302  0.00  0.00    +0.124 A 
ATOM     25  C   UNL     1       9.447  -0.481  -3.963  0.00  0.00    +0.040 A 
ATOM     26  C   UNL     1       8.240  -1.010  -3.549  0.00  0.00    +0.027 A 
ATOM     27  F   UNL     1      11.175   1.119  -3.705  0.00  0.00    -0.205 F 
ENDBRANCH   6  21
BRANCH   1  31
ATOM     28  C   UNL     1      -0.290   1.263  -0.940  0.00  0.00    +0.000 A 
ATOM     29  C   UNL     1       0.853   2.039  -0.992  0.00  0.00    +0.000 A 
ATOM     30  C   UNL     1       2.091   1.459  -0.792  0.00  0.00    +0.006 A 
ATOM     31  C   UNL     1       2.187   0.103  -0.539  0.00  0.00    -0.018 A 
ATOM     32  C   UNL     1       1.044  -0.672  -0.487  0.00  0.00    +0.006 A 
ATOM     33  C   UNL     1      -0.195  -0.093  -0.688  0.00  0.00    +0.000 A 
ENDBRANCH   1  31
TORSDOF 2
