REMARK  Name = ZINC08609947
REMARK  7 active torsions:
REMARK  status: ('A' for Active; 'I' for Inactive)
REMARK    1  A    between atoms: C_1  and  C_2
REMARK    2  A    between atoms: C_2  and  O_3
REMARK    3  A    between atoms: O_3  and  C_4
REMARK    4  A    between atoms: C_6  and  C_12
REMARK    5  A    between atoms: C_9  and  O_10
REMARK    6  A    between atoms: C_14  and  C_23
REMARK    7  A    between atoms: C_15  and  C_22
REMARK                            x       y       z     vdW  Elec       q    Type
REMARK                         _______ _______ _______ _____ _____    ______ ____
ROOT
ATOM      1  C   UNL     1      -0.337  -4.986   0.490  0.00  0.00    +0.177 C 
ATOM      2  C   UNL     1       0.710  -5.811   1.191  0.00  0.00    +0.060 C 
ATOM      3  C   UNL     1       0.941  -7.099   0.902  0.00  0.00    +0.018 C 
ATOM      4  N   UNL     1       0.226  -7.774  -0.057  0.00  0.00    -0.287 N 
ATOM      5  C   UNL     1      -0.924  -7.166  -0.542  0.00  0.00    +0.218 A 
ATOM      6  N   UNL     1      -1.205  -5.863  -0.291  0.00  0.00    -0.221 N 
ATOM      7  N   UNL     1      -2.422  -5.592  -0.913  0.00  0.00    -0.156 NA
ATOM      8  C   UNL     1      -2.804  -6.702  -1.495  0.00  0.00    +0.247 A 
ATOM      9  N   UNL     1      -1.892  -7.653  -1.268  0.00  0.00    -0.201 NA
ATOM     10  C   UNL     1       2.022  -7.832   1.654  0.00  0.00    +0.061 C 
ATOM     11  H   UNL     1       0.513  -8.642  -0.382  0.00  0.00    +0.155 HD
ENDROOT
BRANCH   1  14
ATOM     12  C   UNL     1       0.752  -1.729  -1.085  0.00  0.00    +0.163 A 
ATOM     13  C   UNL     1       0.136  -2.640  -0.242  0.00  0.00    +0.055 A 
ATOM     14  C   UNL     1       0.334  -3.996  -0.427  0.00  0.00    -0.014 A 
ATOM     15  C   UNL     1       1.147  -4.446  -1.450  0.00  0.00    +0.025 A 
ATOM     16  C   UNL     1       1.765  -3.542  -2.295  0.00  0.00    +0.063 A 
ATOM     17  C   UNL     1       1.565  -2.181  -2.119  0.00  0.00    +0.173 A 
ATOM     18 BR   UNL     1       2.878  -4.161  -3.693  0.00  0.00    -0.046 Br
BRANCH  17  19
ATOM     19  O   UNL     1       2.168  -1.290  -2.951  0.00  0.00    -0.503 OA
ATOM     20  H   UNL     1       3.042  -1.003  -2.654  0.00  0.00    +0.292 HD
ENDBRANCH  17  19
BRANCH  12  21
ATOM     21  O   UNL     1       0.558  -0.395  -0.904  0.00  0.00    -0.489 OA
BRANCH  21  23
ATOM     22  C   UNL     1      -0.387   1.523   0.223  0.00  0.00    +0.048 C 
ATOM     23  C   UNL     1      -0.290  -0.003   0.178  0.00  0.00    +0.226 C 
ENDBRANCH  21  23
ENDBRANCH  12  21
ENDBRANCH   1  14
BRANCH   2  24
ATOM     24  C   UNL     1       1.487  -5.196   2.202  0.00  0.00    +0.241 C 
ATOM     25  O   UNL     1       1.037  -5.077   3.327  0.00  0.00    -0.271 OA
ATOM     26  N   UNL     1       2.724  -4.744   1.919  0.00  0.00    -0.325 N 
ATOM     27  H   UNL     1       3.083  -4.840   1.023  0.00  0.00    +0.145 HD
ATOM     28  H   UNL     1       3.257  -4.323   2.612  0.00  0.00    +0.145 HD
ENDBRANCH   2  24
TORSDOF 5
