REMARK  Name = ZINC29624709
REMARK  3 active torsions:
REMARK  status: ('A' for Active; 'I' for Inactive)
REMARK    1  A    between atoms: C_4  and  N_7
REMARK    2  A    between atoms: C_10  and  C_13
REMARK    3  A    between atoms: C_13  and  N_14
REMARK                            x       y       z     vdW  Elec       q    Type
REMARK                         _______ _______ _______ _____ _____    ______ ____
ROOT
ATOM      1  C   UNL     1      -1.256  -0.754   0.010  0.00  0.00    +0.108 C 
ENDROOT
BRANCH   1   2
ATOM      2  N   UNL     1       0.002  -0.004   0.002  0.00  0.00    -0.329 N 
ATOM      3  C   UNL     1      -0.017   1.381   0.010  0.00  0.00    +0.125 A 
ATOM      4  C   UNL     1      -1.229   2.073   0.019  0.00  0.00    +0.083 A 
ATOM      5  C   UNL     1      -1.200   3.455   0.032  0.00  0.00    +0.136 A 
ATOM      6  N   UNL     1      -0.029   4.079   0.024  0.00  0.00    -0.203 NA
ATOM      7  C   UNL     1       1.106   3.396   0.010  0.00  0.00    +0.216 A 
ATOM      8  N   UNL     1       1.120   2.071   0.003  0.00  0.00    -0.200 NA
ATOM      9  N   UNL     1       2.307   4.083   0.002  0.00  0.00    -0.327 N 
ATOM     10 CL   UNL     1      -2.678   4.365   0.051  0.00  0.00    -0.062 Cl
ATOM     11  H   UNL     1       0.962  -0.541  -0.010  0.00  0.00    +0.147 HD
ATOM     12  H   UNL     1       3.257   3.529  -0.011  0.00  0.00    +0.145 HD
ATOM     13  H   UNL     1       2.311   5.183   0.007  0.00  0.00    +0.145 HD
ENDBRANCH   1   2
BRANCH   1  17
ATOM     14  N   UNL     1      -1.864  -4.371  -0.598  0.00  0.00    -0.330 N 
ATOM     15  C   UNL     1      -0.926  -4.030  -1.689  0.00  0.00    +0.105 C 
ATOM     16  C   UNL     1      -0.296  -2.670  -1.335  0.00  0.00    +0.025 C 
ATOM     17  C   UNL     1      -0.957  -2.254  -0.001  0.00  0.00    +0.025 C 
ATOM     18  C   UNL     1      -2.270  -3.076   0.006  0.00  0.00    +0.110 C 
BRANCH  14  22
ATOM     19  C   UNL     1      -5.169  -6.436  -2.063  0.00  0.00    +0.000 A 
ATOM     20  C   UNL     1      -4.893  -5.161  -2.523  0.00  0.00    +0.002 A 
ATOM     21  C   UNL     1      -3.797  -4.473  -2.039  0.00  0.00    +0.023 A 
ATOM     22  C   UNL     1      -2.973  -5.063  -1.089  0.00  0.00    +0.030 A 
ATOM     23  C   UNL     1      -3.251  -6.346  -0.634  0.00  0.00    +0.023 A 
ATOM     24  C   UNL     1      -4.351  -7.026  -1.118  0.00  0.00    +0.002 A 
ENDBRANCH  14  22
ENDBRANCH   1  17
TORSDOF 3
