REMARK  Name = ZINC05322925
REMARK  10 active torsions:
REMARK  status: ('A' for Active; 'I' for Inactive)
REMARK    1  A    between atoms: C_1  and  C_2
REMARK    2  A    between atoms: C_5  and  C_23
REMARK    3  A    between atoms: N_12  and  C_13
REMARK    4  A    between atoms: C_13  and  C_15
REMARK    5  A    between atoms: C_13  and  C_19
REMARK    6  A    between atoms: C_15  and  C_16
REMARK    7  A    between atoms: C_16  and  C_17
REMARK    8  A    between atoms: C_16  and  C_18
REMARK    9  A    between atoms: C_19  and  O_21
REMARK   10  A    between atoms: O_21  and  C_22
REMARK                            x       y       z     vdW  Elec       q    Type
REMARK                         _______ _______ _______ _____ _____    ______ ____
ROOT
ATOM      1  C   UNL     1      -0.014   1.515  -0.029  0.00  0.00    +0.009 C 
ATOM      2  C   UNL     1       0.007  -0.015  -0.026  0.00  0.00    +0.004 C 
ATOM      3  C   UNL     1      -1.428  -0.546  -0.015  0.00  0.00    +0.009 C 
ATOM      4  C   UNL     1      -1.409  -2.076  -0.045  0.00  0.00    +0.004 C 
ATOM      5  C   UNL     1      -0.691  -2.598   1.204  0.00  0.00    +0.112 C 
ATOM      6  N   UNL     1       0.639  -1.978   1.278  0.00  0.00    -0.285 N 
ATOM      7  C   UNL     1       0.742  -0.514   1.223  0.00  0.00    +0.112 C 
ATOM      8  C   UNL     1       1.746  -2.740   1.395  0.00  0.00    +0.303 C 
ATOM      9  O   UNL     1       1.644  -3.943   1.532  0.00  0.00    -0.253 OA
ATOM     10  N   UNL     1       2.965  -2.166   1.360  0.00  0.00    -0.286 N 
ATOM     11  C   UNL     1      -2.844  -2.605  -0.068  0.00  0.00    +0.009 C 
ATOM     12  H   UNL     1       3.046  -1.200   1.331  0.00  0.00    +0.151 HD
ENDROOT
BRANCH  10  13
ATOM     13  C   UNL     1       4.168  -3.002   1.366  0.00  0.00    +0.183 C 
BRANCH  13  14
ATOM     14  C   UNL     1       5.324  -2.215   1.926  0.00  0.00    +0.327 C 
ATOM     15  O   UNL     1       5.160  -1.073   2.285  0.00  0.00    -0.249 OA
BRANCH  14  16
ATOM     16  O   UNL     1       6.536  -2.783   2.028  0.00  0.00    -0.467 OA
ATOM     17  C   UNL     1       7.586  -1.978   2.568  0.00  0.00    +0.280 C 
ENDBRANCH  14  16
ENDBRANCH  13  14
BRANCH  13  18
ATOM     18  C   UNL     1       4.493  -3.437  -0.065  0.00  0.00    +0.036 C 
BRANCH  18  19
ATOM     19  C   UNL     1       3.375  -4.340  -0.590  0.00  0.00    -0.015 C 
ATOM     20  C   UNL     1       3.637  -4.674  -2.060  0.00  0.00    +0.007 C 
ATOM     21  C   UNL     1       3.337  -5.633   0.228  0.00  0.00    +0.007 C 
ENDBRANCH  18  19
ENDBRANCH  13  18
ENDBRANCH  10  13
TORSDOF 5
