REMARK  Name = ZINC64220384
REMARK  9 active torsions:
REMARK  status: ('A' for Active; 'I' for Inactive)
REMARK    1  A    between atoms: C_1  and  C_2
REMARK    2  A    between atoms: N_4  and  C_5
REMARK    3  A    between atoms: C_5  and  C_7
REMARK    4  A    between atoms: C_5  and  C_17
REMARK    5  A    between atoms: C_7  and  C_8
REMARK    6  A    between atoms: N_19  and  C_20
REMARK    7  A    between atoms: C_20  and  C_21
REMARK    8  A    between atoms: C_21  and  C_23
REMARK    9  A    between atoms: C_21  and  N_30
REMARK                            x       y       z     vdW  Elec       q    Type
REMARK                         _______ _______ _______ _____ _____    ______ ____
ROOT
ATOM      1  C   UNL     1      -0.301  -2.699  -1.139  0.00  0.00    +0.234 C 
ATOM      2  O   UNL     1       0.565  -2.016  -1.643  0.00  0.00    -0.274 OA
ATOM      3  N   UNL     1      -0.578  -3.917  -1.645  0.00  0.00    -0.312 N 
ATOM      4  H   UNL     1      -1.271  -4.464  -1.243  0.00  0.00    +0.149 HD
ENDROOT
BRANCH   1   5
ATOM      5  C   UNL     1      -1.068  -2.187   0.053  0.00  0.00    +0.163 C 
BRANCH   5   9
ATOM      6  C   UNL     1       0.391   1.343   0.314  0.00  0.00    +0.109 C 
ATOM      7  C   UNL     1       0.267  -0.157   0.244  0.00  0.00    +0.211 C 
ATOM      8  O   UNL     1       1.260  -0.851   0.300  0.00  0.00    -0.276 OA
ATOM      9  N   UNL     1      -0.947  -0.728   0.120  0.00  0.00    -0.304 N 
ATOM     10  H   UNL     1      -1.742  -0.173   0.076  0.00  0.00    +0.149 HD
ENDBRANCH   5   9
BRANCH   5  11
ATOM     11  C   UNL     1      -0.498  -2.805   1.331  0.00  0.00    +0.065 C 
BRANCH  11  12
ATOM     12  C   UNL     1      -1.340  -2.390   2.509  0.00  0.00    -0.039 C 
ATOM     13  C   UNL     1      -2.359  -3.084   3.065  0.00  0.00    -0.001 A 
ATOM     14  C   UNL     1      -2.966  -4.383   2.750  0.00  0.00    +0.010 A 
ATOM     15  C   UNL     1      -3.999  -4.824   3.503  0.00  0.00    +0.001 A 
ATOM     16  C   UNL     1      -4.504  -4.074   4.574  0.00  0.00    +0.002 A 
ATOM     17  C   UNL     1      -3.999  -2.872   4.925  0.00  0.00    +0.026 A 
ATOM     18  C   UNL     1      -2.910  -2.311   4.201  0.00  0.00    +0.043 A 
ATOM     19  N   UNL     1      -2.257  -1.183   4.342  0.00  0.00    -0.380 N 
ATOM     20  C   UNL     1      -1.212  -1.116   3.314  0.00  0.00    +0.144 C 
ATOM     21  H   UNL     1      -2.432  -0.508   5.016  0.00  0.00    +0.160 HD
ENDBRANCH  11  12
ENDBRANCH   5  11
ENDBRANCH   1   5
BRANCH   3  22
ATOM     22  C   UNL     1       0.167  -4.415  -2.804  0.00  0.00    +0.127 C 
BRANCH  22  23
ATOM     23  C   UNL     1      -0.240  -5.863  -3.088  0.00  0.00    +0.104 C 
BRANCH  23  24
ATOM     24  C   UNL     1       0.145  -6.731  -1.918  0.00  0.00    -0.029 A 
ATOM     25  C   UNL     1       1.452  -7.157  -1.775  0.00  0.00    +0.008 A 
ATOM     26  C   UNL     1       1.807  -7.953  -0.702  0.00  0.00    +0.038 A 
ATOM     27  C   UNL     1       0.852  -8.324   0.229  0.00  0.00    +0.123 A 
ATOM     28  C   UNL     1      -0.458  -7.897   0.085  0.00  0.00    +0.038 A 
ATOM     29  C   UNL     1      -0.808  -7.097  -0.986  0.00  0.00    +0.008 A 
ATOM     30  F   UNL     1       1.196  -9.103   1.278  0.00  0.00    -0.205 F 
ENDBRANCH  23  24
BRANCH  23  31
ATOM     31  N   UNL     1       0.448  -6.337  -4.297  0.00  0.00    -0.290 NA
ATOM     32  C   UNL     1       0.153  -5.468  -5.445  0.00  0.00    +0.113 C 
ATOM     33  C   UNL     1       0.935  -5.962  -6.666  0.00  0.00    +0.175 C 
ATOM     34  O   UNL     1       0.598  -7.328  -6.920  0.00  0.00    -0.377 OA
ATOM     35  C   UNL     1       0.873  -8.203  -5.822  0.00  0.00    +0.175 C 
ATOM     36  C   UNL     1       0.091  -7.732  -4.593  0.00  0.00    +0.113 C 
ENDBRANCH  23  31
ENDBRANCH  22  23
ENDBRANCH   3  22
TORSDOF 8
