REMARK  Name = ZINC15708905
REMARK  7 active torsions:
REMARK  status: ('A' for Active; 'I' for Inactive)
REMARK    1  A    between atoms: C_1  and  C_2
REMARK    2  A    between atoms: C_6  and  C_9
REMARK    3  A    between atoms: C_7  and  C_8
REMARK    4  A    between atoms: C_19  and  N_27
REMARK    5  A    between atoms: C_28  and  C_30
REMARK    6  A    between atoms: C_30  and  N_55
REMARK    7  A    between atoms: C_31  and  N_55
REMARK                            x       y       z     vdW  Elec       q    Type
REMARK                         _______ _______ _______ _____ _____    ______ ____
ROOT
ATOM      1  C   UNL     1      -3.131 -10.883  -2.145  0.00  0.00    -0.017 A 
ATOM      2  C   UNL     1      -4.394 -11.069  -1.577  0.00  0.00    +0.010 A 
ATOM      3  C   UNL     1      -5.155  -9.983  -1.220  0.00  0.00    +0.024 A 
ATOM      4  C   UNL     1      -4.685  -8.679  -1.414  0.00  0.00    +0.046 A 
ATOM      5  C   UNL     1      -3.420  -8.486  -1.969  0.00  0.00    +0.059 A 
ATOM      6  C   UNL     1      -2.649  -9.598  -2.340  0.00  0.00    +0.023 A 
ATOM      7  C   UNL     1      -2.833  -7.154  -2.183  0.00  0.00    +0.249 C 
ATOM      8  O   UNL     1      -2.183  -6.957  -3.191  0.00  0.00    -0.270 OA
ATOM      9  N   UNL     1      -2.988  -6.151  -1.311  0.00  0.00    -0.284 N 
ATOM     10  C   UNL     1      -2.443  -4.789  -1.445  0.00  0.00    +0.131 C 
ATOM     11  C   UNL     1      -2.381  -4.239   0.002  0.00  0.00    +0.092 C 
ATOM     12  C   UNL     1      -3.665  -4.851   0.623  0.00  0.00    +0.055 C 
ATOM     13  C   UNL     1      -3.749  -6.235  -0.052  0.00  0.00    +0.164 C 
ATOM     14  C   UNL     1      -5.184  -6.535  -0.399  0.00  0.00    +0.238 C 
ATOM     15  O   UNL     1      -6.047  -5.742  -0.088  0.00  0.00    -0.273 OA
ATOM     16  N   UNL     1      -5.526  -7.650  -1.037  0.00  0.00    -0.283 N 
ATOM     17  H   UNL     1      -6.465  -7.751  -1.261  0.00  0.00    +0.155 HD
ENDROOT
BRANCH   1  23
ATOM     18  C   UNL     1      -1.115 -15.314  -1.036  0.00  0.00    +0.044 C 
ATOM     19  C   UNL     1      -1.339 -14.185  -2.009  0.00  0.00    -0.047 A 
ATOM     20  C   UNL     1      -0.778 -14.240  -3.272  0.00  0.00    +0.003 A 
ATOM     21  C   UNL     1      -0.980 -13.208  -4.170  0.00  0.00    +0.001 A 
ATOM     22  C   UNL     1      -1.748 -12.118  -3.812  0.00  0.00    +0.009 A 
ATOM     23  C   UNL     1      -2.311 -12.054  -2.538  0.00  0.00    -0.015 A 
ATOM     24  C   UNL     1      -2.104 -13.098  -1.638  0.00  0.00    -0.040 A 
ATOM     25  C   UNL     1      -2.715 -13.039  -0.261  0.00  0.00    +0.044 C 
ENDBRANCH   1  23
BRANCH  11  26
ATOM     26  N   UNL     1      -2.441  -2.775   0.011  0.00  0.00    -0.312 N 
ATOM     27  C   UNL     1      -1.301  -2.055   0.003  0.00  0.00    +0.196 C 
ATOM     28  O   UNL     1      -0.228  -2.619  -0.010  0.00  0.00    -0.278 OA
ATOM     29  H   UNL     1      -3.299  -2.325   0.021  0.00  0.00    +0.149 HD
BRANCH  27  30
ATOM     30  C   UNL     1      -1.362  -0.549   0.012  0.00  0.00    +0.014 C 
BRANCH  30  32
ATOM     31  C   UNL     1      -0.018   1.465   0.010  0.00  0.00    -0.100 C 
ATOM     32  N   UNL     1       0.011  -0.010   0.002  0.00  0.00    +0.383 N 
ATOM     33  H   UNL     1       0.496  -0.335  -0.843  0.00  0.00    -0.086 HD
ATOM     34  H   UNL     1       0.512  -0.344   0.834  0.00  0.00    -0.086 HD
ENDBRANCH  30  32
ENDBRANCH  27  30
ENDBRANCH  11  26
TORSDOF 4
