REMARK  Name = ZINC09813552
REMARK  7 active torsions:
REMARK  status: ('A' for Active; 'I' for Inactive)
REMARK    1  A    between atoms: C_3  and  C_6
REMARK    2  A    between atoms: C_6  and  C_8
REMARK    3  A    between atoms: C_6  and  N_59
REMARK    4  A    between atoms: C_8  and  N_9
REMARK    5  A    between atoms: C_10  and  C_12
REMARK    6  A    between atoms: C_14  and  S_19
REMARK    7  A    between atoms: S_19  and  N_22
REMARK                            x       y       z     vdW  Elec       q    Type
REMARK                         _______ _______ _______ _____ _____    ______ ____
ROOT
ATOM      1  N   UNL     1       7.492   1.012  -2.206  0.00  0.00    -0.312 N 
ATOM      2  C   UNL     1       7.560  -0.196  -2.801  0.00  0.00    +0.246 C 
ATOM      3  O   UNL     1       8.261  -0.351  -3.782  0.00  0.00    -0.270 OA
ATOM      4  H   UNL     1       6.932   1.136  -1.424  0.00  0.00    +0.149 HD
ENDROOT
BRANCH   2   5
ATOM      5  C   UNL     1       6.782  -1.330  -2.261  0.00  0.00    +0.057 A 
ATOM      6  C   UNL     1       5.975  -1.155  -1.135  0.00  0.00    +0.043 A 
ATOM      7  C   UNL     1       5.252  -2.217  -0.637  0.00  0.00    +0.106 A 
ATOM      8  C   UNL     1       5.327  -3.458  -1.246  0.00  0.00    +0.030 A 
ATOM      9  C   UNL     1       6.119  -3.638  -2.365  0.00  0.00    +0.022 A 
ATOM     10  C   UNL     1       6.849  -2.583  -2.876  0.00  0.00    +0.053 A 
ATOM     11 CL   UNL     1       7.848  -2.812  -4.277  0.00  0.00    -0.083 Cl
BRANCH   7  12
ATOM     12  S   UNL     1       4.233  -1.997   0.785  0.00  0.00    +0.061 S 
ATOM     13  O   UNL     1       4.763  -0.886   1.495  0.00  0.00    -0.153 OA
ATOM     14  O   UNL     1       4.082  -3.279   1.378  0.00  0.00    -0.153 OA
BRANCH  12  15
ATOM     15  N   UNL     1       2.734  -1.545   0.247  0.00  0.00    -0.177 NA
ATOM     16  C   UNL     1       1.711  -2.555  -0.055  0.00  0.00    +0.109 C 
ATOM     17  C   UNL     1       1.195  -2.324  -1.479  0.00  0.00    +0.017 C 
ATOM     18  C   UNL     1       0.710  -0.878  -1.613  0.00  0.00    +0.003 C 
ATOM     19  C   UNL     1       1.878   0.079  -1.361  0.00  0.00    +0.017 C 
ATOM     20  C   UNL     1       2.401  -0.125   0.064  0.00  0.00    +0.109 C 
ENDBRANCH  12  15
ENDBRANCH   7  12
ENDBRANCH   2   5
BRANCH   1  21
ATOM     21  C   UNL     1       8.263   2.137  -2.741  0.00  0.00    +0.097 C 
BRANCH  21  22
ATOM     22  C   UNL     1       8.009   3.381  -1.888  0.00  0.00    +0.016 C 
BRANCH  22  27
ATOM     23  C   UNL     1       9.670   2.499  -0.342  0.00  0.00    -0.078 C 
ATOM     24  C   UNL     1      10.007   2.742   1.151  0.00  0.00    -0.020 C 
ATOM     25  C   UNL     1       9.387   4.132   1.423  0.00  0.00    -0.020 C 
ATOM     26  C   UNL     1       8.313   4.314   0.334  0.00  0.00    -0.078 C 
ATOM     27  N   UNL     1       8.325   3.084  -0.459  0.00  0.00    +0.387 N 
ATOM     28  H   UNL     1       7.628   2.426  -0.090  0.00  0.00    -0.081 HD
ENDBRANCH  22  27
BRANCH  22  31
ATOM     29  C   UNL     1       9.640   6.377  -3.283  0.00  0.00    +0.041 A 
ATOM     30  C   UNL     1       8.490   5.588  -3.049  0.00  0.00    +0.043 A 
ATOM     31  C   UNL     1       8.894   4.505  -2.363  0.00  0.00    +0.093 A 
ATOM     32  O   UNL     1      10.222   4.591  -2.177  0.00  0.00    -0.469 OA
ATOM     33  C   UNL     1      10.679   5.724  -2.733  0.00  0.00    +0.195 A 
ENDBRANCH  22  31
ENDBRANCH  21  22
ENDBRANCH   1  21
TORSDOF 7
