REMARK  Name = ZINC63412772
REMARK  7 active torsions:
REMARK  status: ('A' for Active; 'I' for Inactive)
REMARK    1  A    between atoms: C_1  and  N_2
REMARK    2  A    between atoms: C_3  and  C_21
REMARK    3  A    between atoms: C_6  and  C_7
REMARK    4  A    between atoms: C_7  and  C_19
REMARK    5  A    between atoms: C_8  and  C_9
REMARK    6  A    between atoms: C_12  and  O_18
REMARK    7  A    between atoms: C_13  and  N_15
REMARK                            x       y       z     vdW  Elec       q    Type
REMARK                         _______ _______ _______ _____ _____    ______ ____
ROOT
ATOM      1  C   UNL     1      -0.017  -0.368   2.378  0.00  0.00    +0.096 C 
ATOM      2  C   UNL     1       0.487  -1.218   3.395  0.00  0.00    +0.030 C 
ENDROOT
BRANCH   1   8
ATOM      3  C   UNL     1      -0.904   1.198  -0.131  0.00  0.00    +0.152 C 
ATOM      4  N   UNL     1      -1.049  -0.237   0.129  0.00  0.00    -0.310 N 
ATOM      5  C   UNL     1      -1.603  -1.166  -0.698  0.00  0.00    +0.164 A 
ATOM      6  N   UNL     1      -1.534  -2.358  -0.074  0.00  0.00    -0.129 NA
ATOM      7  N   UNL     1      -0.976  -2.213   1.075  0.00  0.00    -0.128 NA
ATOM      8  C   UNL     1      -0.647  -0.918   1.255  0.00  0.00    +0.175 A 
BRANCH   5   9
ATOM      9  C   UNL     1      -2.172  -0.916  -2.025  0.00  0.00    +0.019 A 
ATOM     10  C   UNL     1      -3.089  -1.822  -2.584  0.00  0.00    +0.011 A 
ATOM     11  C   UNL     1      -3.618  -1.577  -3.831  0.00  0.00    +0.001 A 
ATOM     12  C   UNL     1      -3.248  -0.441  -4.535  0.00  0.00    +0.000 A 
ATOM     13  C   UNL     1      -2.344   0.459  -3.993  0.00  0.00    +0.001 A 
ATOM     14  C   UNL     1      -1.808   0.236  -2.745  0.00  0.00    +0.011 A 
ENDBRANCH   5   9
ENDBRANCH   1   8
BRANCH   2  15
ATOM     15  C   UNL     1       0.546  -2.601   3.186  0.00  0.00    -0.021 A 
ATOM     16  C   UNL     1       1.067  -3.117   1.974  0.00  0.00    +0.011 A 
ATOM     17  C   UNL     1       1.121  -4.461   1.780  0.00  0.00    +0.048 A 
ATOM     18  C   UNL     1       0.662  -5.335   2.773  0.00  0.00    +0.147 A 
ATOM     19  C   UNL     1       0.145  -4.835   3.973  0.00  0.00    +0.168 A 
ATOM     20  C   UNL     1       0.091  -3.493   4.187  0.00  0.00    +0.044 A 
BRANCH  19  21
ATOM     21  N   UNL     1      -0.337  -5.769   5.015  0.00  0.00    +0.060 N 
ATOM     22  O   UNL     1      -0.823  -5.300   6.145  0.00  0.00    -0.126 OA
ATOM     23  O   UNL     1      -0.279  -7.069   4.812  0.00  0.00    -0.126 OA
ENDBRANCH  19  21
BRANCH  18  24
ATOM     24  O   UNL     1       0.719  -6.671   2.571  0.00  0.00    -0.504 OA
ATOM     25  H   UNL     1       1.543  -7.079   2.868  0.00  0.00    +0.292 HD
ENDBRANCH  18  24
ENDBRANCH   2  15
BRANCH   1  26
ATOM     26  C   UNL     1       0.118   1.052   2.500  0.00  0.00    +0.103 C 
ATOM     27  N   UNL     1       0.225   2.179   2.597  0.00  0.00    -0.191 NA
ENDBRANCH   1  26
TORSDOF 6
