REMARK  Name = ZINC39695665
REMARK  8 active torsions:
REMARK  status: ('A' for Active; 'I' for Inactive)
REMARK    1  A    between atoms: C_1  and  C_2
REMARK    2  A    between atoms: C_2  and  N_3
REMARK    3  A    between atoms: C_7  and  C_9
REMARK    4  A    between atoms: C_9  and  N_10
REMARK    5  A    between atoms: C_11  and  C_13
REMARK    6  A    between atoms: C_24  and  C_26
REMARK    7  A    between atoms: C_26  and  C_27
REMARK    8  A    between atoms: C_32  and  C_33
REMARK                            x       y       z     vdW  Elec       q    Type
REMARK                         _______ _______ _______ _____ _____    ______ ____
ROOT
ATOM      1  C   UNL     1       5.065  -1.164   1.171  0.00  0.00    +0.100 C 
ATOM      2  C   UNL     1       5.120   0.358   0.911  0.00  0.00    +0.121 C 
ATOM      3  N   UNL     1       6.460   0.771   1.390  0.00  0.00    -0.300 N 
ATOM      4  C   UNL     1       7.358  -0.330   0.969  0.00  0.00    +0.115 C 
ATOM      5  C   UNL     1       6.536  -1.612   1.207  0.00  0.00    -0.004 C 
ATOM      6  C   UNL     1       6.807  -2.626   0.100  0.00  0.00    -0.010 C 
ATOM      7  C   UNL     1       8.260  -3.100   0.193  0.00  0.00    -0.082 C 
ATOM      8  N   UNL     1       8.495  -3.708   1.508  0.00  0.00    +0.379 N 
ATOM      9  C   UNL     1       8.323  -2.701   2.562  0.00  0.00    -0.082 C 
ATOM     10  C   UNL     1       6.872  -2.210   2.570  0.00  0.00    -0.010 C 
ATOM     11  C   UNL     1       6.788   1.895   2.058  0.00  0.00    +0.220 C 
ATOM     12  O   UNL     1       7.939   2.092   2.385  0.00  0.00    -0.275 OA
ATOM     13  H   UNL     1       7.838  -4.460   1.652  0.00  0.00    -0.086 HD
ATOM     14  H   UNL     1       9.435  -4.074   1.545  0.00  0.00    -0.086 HD
ENDROOT
BRANCH   1  16
ATOM     15  N   UNL     1       3.670  -3.010   0.295  0.00  0.00    -0.317 N 
ATOM     16  C   UNL     1       4.332  -1.861   0.053  0.00  0.00    +0.218 C 
ATOM     17  O   UNL     1       4.337  -1.388  -1.063  0.00  0.00    -0.275 OA
ATOM     18  H   UNL     1       3.666  -3.388   1.189  0.00  0.00    +0.149 HD
BRANCH  15  19
ATOM     19  C   UNL     1       2.957  -3.688  -0.790  0.00  0.00    +0.089 C 
BRANCH  19  24
ATOM     20  N   UNL     1       1.431  -4.626   0.895  0.00  0.00    +0.382 N 
ATOM     21  C   UNL     1       0.048  -5.038   0.575  0.00  0.00    -0.078 C 
ATOM     22  C   UNL     1      -0.014  -5.049  -0.973  0.00  0.00    -0.020 C 
ATOM     23  C   UNL     1       1.396  -5.582  -1.339  0.00  0.00    -0.016 C 
ATOM     24  C   UNL     1       2.297  -4.958  -0.252  0.00  0.00    -0.051 C 
ATOM     25  H   UNL     1       1.457  -3.632   1.063  0.00  0.00    -0.081 HD
BRANCH  20  27
ATOM     26  C   UNL     1       1.076  -4.902   3.302  0.00  0.00    -0.017 C 
ATOM     27  C   UNL     1       1.897  -5.343   2.089  0.00  0.00    -0.082 C 
ENDBRANCH  20  27
ENDBRANCH  19  24
ENDBRANCH  15  19
ENDBRANCH   1  16
BRANCH  11  28
ATOM     28  C   UNL     1       5.724   2.906   2.400  0.00  0.00    +0.131 C 
BRANCH  28  29
ATOM     29  C   UNL     1       6.347   4.060   3.142  0.00  0.00    -0.036 A 
ATOM     30  C   UNL     1       6.347   4.074   4.524  0.00  0.00    +0.004 A 
ATOM     31  C   UNL     1       6.919   5.133   5.205  0.00  0.00    +0.000 A 
ATOM     32  C   UNL     1       7.492   6.177   4.502  0.00  0.00    +0.000 A 
ATOM     33  C   UNL     1       7.492   6.162   3.120  0.00  0.00    +0.003 A 
ATOM     34  C   UNL     1       6.924   5.101   2.440  0.00  0.00    -0.047 A 
ATOM     35  C   UNL     1       6.930   5.083   0.933  0.00  0.00    +0.044 C 
ENDBRANCH  28  29
ENDBRANCH  11  28
TORSDOF 6
