REMARK  Name = ZINC02914528
REMARK  3 active torsions:
REMARK  status: ('A' for Active; 'I' for Inactive)
REMARK    1  A    between atoms: C_3  and  C_10
REMARK    2  A    between atoms: C_5  and  N_7
REMARK    3  A    between atoms: C_13  and  C_21
REMARK                            x       y       z     vdW  Elec       q    Type
REMARK                         _______ _______ _______ _____ _____    ______ ____
ROOT
ATOM      1  C   UNL     1       3.672   2.182  -0.022  0.00  0.00    +0.129 C 
ATOM      2  C   UNL     1       3.966   2.695  -1.441  0.00  0.00    +0.060 C 
ATOM      3  C   UNL     1       2.932   3.753  -1.829  0.00  0.00    +0.141 C 
ATOM      4  N   UNL     1       2.944   4.863  -0.869  0.00  0.00    -0.243 NA
ATOM      5  C   UNL     1       3.222   4.618   0.384  0.00  0.00    +0.232 C 
ATOM      6  N   UNL     1       3.561   3.352   0.849  0.00  0.00    -0.213 N 
ATOM      7  N   UNL     1       3.756   3.474   2.222  0.00  0.00    -0.251 N 
ATOM      8  C   UNL     1       3.572   4.790   2.528  0.00  0.00    +0.203 C 
ATOM      9  N   UNL     1       3.261   5.456   1.441  0.00  0.00    -0.205 NA
ATOM     10  H   UNL     1       3.978   2.761   2.841  0.00  0.00    +0.171 HD
ENDROOT
BRANCH   3  11
ATOM     11  C   UNL     1       3.255   4.283  -3.202  0.00  0.00    -0.023 A 
ATOM     12  C   UNL     1       4.248   5.231  -3.362  0.00  0.00    +0.007 A 
ATOM     13  C   UNL     1       4.544   5.717  -4.622  0.00  0.00    +0.015 A 
ATOM     14  C   UNL     1       3.846   5.253  -5.723  0.00  0.00    +0.018 A 
ATOM     15  C   UNL     1       2.853   4.305  -5.563  0.00  0.00    +0.015 A 
ATOM     16  C   UNL     1       2.561   3.816  -4.303  0.00  0.00    +0.007 A 
ATOM     17 BR   UNL     1       4.251   5.918  -7.447  0.00  0.00    -0.050 Br
ENDBRANCH   3  11
BRANCH   1  20
ATOM     18  C   UNL     1      -0.017   1.378   0.010  0.00  0.00    +0.003 A 
ATOM     19  C   UNL     1       1.171   2.085   0.002  0.00  0.00    +0.005 A 
ATOM     20  C   UNL     1       2.377   1.411  -0.013  0.00  0.00    -0.023 A 
ATOM     21  C   UNL     1       2.396   0.028  -0.020  0.00  0.00    +0.038 A 
ATOM     22  C   UNL     1       1.209  -0.679  -0.012  0.00  0.00    +0.127 A 
ATOM     23  C   UNL     1       0.002  -0.004   0.002  0.00  0.00    +0.033 A 
BRANCH  22  24
ATOM     24  N   UNL     1       1.229  -2.159  -0.020  0.00  0.00    +0.056 N 
ATOM     25  O   UNL     1       2.284  -2.749  -0.035  0.00  0.00    -0.126 OA
ATOM     26  O   UNL     1       0.190  -2.778  -0.013  0.00  0.00    -0.126 OA
ENDBRANCH  22  24
ENDBRANCH   1  20
TORSDOF 3
