REMARK  Name = ZINC41023792
REMARK  8 active torsions:
REMARK  status: ('A' for Active; 'I' for Inactive)
REMARK    1  A    between atoms: C_1  and  C_2
REMARK    2  A    between atoms: C_5  and  C_11
REMARK    3  A    between atoms: C_6  and  C_10
REMARK    4  A    between atoms: C_7  and  O_8
REMARK    5  A    between atoms: O_8  and  C_9
REMARK    6  A    between atoms: C_11  and  S_12
REMARK    7  A    between atoms: S_12  and  C_13
REMARK    8  A    between atoms: C_17  and  N_19
REMARK                            x       y       z     vdW  Elec       q    Type
REMARK                         _______ _______ _______ _____ _____    ______ ____
ROOT
ATOM      1  S   UNL     1       1.778  -4.811  -0.212  0.00  0.00    -0.080 S 
ENDROOT
BRANCH   1   2
ATOM      2  C   UNL     1       1.633  -6.565  -0.302  0.00  0.00    +0.192 A 
ATOM      3  N   UNL     1       0.427  -7.113  -0.329  0.00  0.00    -0.207 NA
ATOM      4  C   UNL     1       0.279  -8.434  -0.397  0.00  0.00    +0.122 A 
ATOM      5  C   UNL     1       1.413  -9.241  -0.440  0.00  0.00    +0.086 A 
ATOM      6  C   UNL     1       2.663  -8.630  -0.409  0.00  0.00    +0.122 A 
ATOM      7  N   UNL     1       2.734  -7.302  -0.346  0.00  0.00    -0.207 NA
ATOM      8  N   UNL     1      -0.986  -8.998  -0.424  0.00  0.00    -0.343 N 
ATOM      9  H   UNL     1      -1.772  -8.430  -0.393  0.00  0.00    +0.144 HD
ATOM     10  H   UNL     1      -1.087  -9.962  -0.473  0.00  0.00    +0.144 HD
BRANCH   6  11
ATOM     11  N   UNL     1       3.819  -9.393  -0.450  0.00  0.00    -0.343 N 
ATOM     12  H   UNL     1       3.760 -10.360  -0.499  0.00  0.00    +0.144 HD
ATOM     13  H   UNL     1       4.687  -8.961  -0.428  0.00  0.00    +0.144 HD
ENDBRANCH   6  11
ENDBRANCH   1   2
BRANCH   1  14
ATOM     14  C   UNL     1       0.060  -4.231  -0.172  0.00  0.00    +0.133 C 
BRANCH  14  19
ATOM     15  C   UNL     1      -0.018   1.503   0.010  0.00  0.00    +0.049 C 
ATOM     16  C   UNL     1       0.002  -0.004   0.002  0.00  0.00    +0.010 A 
ATOM     17  C   UNL     1       0.006  -0.697  -1.191  0.00  0.00    +0.118 A 
ATOM     18  N   UNL     1       0.024  -2.016  -1.207  0.00  0.00    -0.258 NA
ATOM     19  C   UNL     1       0.040  -2.726  -0.095  0.00  0.00    +0.058 A 
ATOM     20  C   UNL     1       0.037  -2.108   1.139  0.00  0.00    +0.014 A 
ATOM     21  C   UNL     1       0.023  -0.716   1.198  0.00  0.00    +0.129 A 
ATOM     22  C   UNL     1       0.054  -2.926   2.404  0.00  0.00    +0.049 C 
BRANCH  21  23
ATOM     23  O   UNL     1       0.025  -0.071   2.393  0.00  0.00    -0.494 OA
ATOM     24  C   UNL     1      -1.247   0.220   2.975  0.00  0.00    +0.277 C 
ENDBRANCH  21  23
ENDBRANCH  14  19
ENDBRANCH   1  14
TORSDOF 5
