REMARK  Name = ZINC06743935
REMARK  8 active torsions:
REMARK  status: ('A' for Active; 'I' for Inactive)
REMARK    1  A    between atoms: C_1  and  C_2
REMARK    2  A    between atoms: C_5  and  N_8
REMARK    3  A    between atoms: N_11  and  C_12
REMARK    4  A    between atoms: N_11  and  C_25
REMARK    5  A    between atoms: C_12  and  C_13
REMARK    6  A    between atoms: C_15  and  C_18
REMARK    7  A    between atoms: C_25  and  C_26
REMARK    8  A    between atoms: C_25  and  C_27
REMARK                            x       y       z     vdW  Elec       q    Type
REMARK                         _______ _______ _______ _____ _____    ______ ____
ROOT
ATOM      1  N   UNL     1       1.238  -2.080  -0.016  0.00  0.00    -0.269 N 
ATOM      2  C   UNL     1       2.409  -2.734  -0.137  0.00  0.00    +0.307 C 
ATOM      3  O   UNL     1       3.454  -2.113  -0.149  0.00  0.00    -0.252 OA
ATOM      4  N   UNL     1       2.423  -4.078  -0.245  0.00  0.00    -0.274 N 
ATOM      5  H   UNL     1       0.409  -2.579   0.063  0.00  0.00    +0.156 HD
ENDROOT
BRANCH   1  10
ATOM      6  C   UNL     1       1.146   3.592   0.029  0.00  0.00    +0.044 C 
ATOM      7  C   UNL     1       1.170   2.086   0.017  0.00  0.00    -0.050 A 
ATOM      8  C   UNL     1       0.137   1.384  -0.577  0.00  0.00    +0.005 A 
ATOM      9  C   UNL     1       0.157   0.003  -0.590  0.00  0.00    +0.023 A 
ATOM     10  C   UNL     1       1.215  -0.681  -0.005  0.00  0.00    +0.035 A 
ATOM     11  C   UNL     1       2.251   0.027   0.590  0.00  0.00    +0.023 A 
ATOM     12  C   UNL     1       2.225   1.408   0.599  0.00  0.00    +0.005 A 
ENDBRANCH   1  10
BRANCH   4  13
ATOM     13  C   UNL     1       1.163  -4.817  -0.347  0.00  0.00    +0.072 C 
ATOM     14  C   UNL     1       1.077  -5.493  -1.717  0.00  0.00    +0.028 C 
ATOM     15  C   UNL     1       1.106  -5.881   0.751  0.00  0.00    +0.028 C 
ENDBRANCH   4  13
BRANCH   4  16
ATOM     16  C   UNL     1       3.699  -4.798  -0.261  0.00  0.00    +0.208 C 
BRANCH  16  17
ATOM     17  C   UNL     1       4.089  -5.159   1.149  0.00  0.00    +0.245 A 
ATOM     18  N   UNL     1       3.773  -6.259   1.786  0.00  0.00    -0.190 NA
ATOM     19  C   UNL     1       4.337  -6.145   3.010  0.00  0.00    +0.202 A 
ATOM     20  N   UNL     1       4.956  -4.994   3.044  0.00  0.00    -0.056 NA
ATOM     21  O   UNL     1       4.827  -4.420   1.983  0.00  0.00    -0.336 OA
BRANCH  19  22
ATOM     22  C   UNL     1       4.267  -7.140   4.109  0.00  0.00    +0.023 A 
ATOM     23  C   UNL     1       3.561  -8.328   3.931  0.00  0.00    +0.013 A 
ATOM     24  C   UNL     1       3.503  -9.253   4.954  0.00  0.00    +0.021 A 
ATOM     25  C   UNL     1       4.134  -8.995   6.160  0.00  0.00    +0.041 A 
ATOM     26  C   UNL     1       4.832  -7.814   6.342  0.00  0.00    +0.021 A 
ATOM     27  C   UNL     1       4.900  -6.886   5.324  0.00  0.00    +0.013 A 
ATOM     28 CL   UNL     1       4.051 -10.159   7.445  0.00  0.00    -0.084 Cl
ENDBRANCH  19  22
ENDBRANCH  16  17
ENDBRANCH   4  16
TORSDOF 5
