REMARK  Name = ZINC13651287
REMARK  7 active torsions:
REMARK  status: ('A' for Active; 'I' for Inactive)
REMARK    1  A    between atoms: C_1  and  C_2
REMARK    2  A    between atoms: C_3  and  C_28
REMARK    3  A    between atoms: C_6  and  C_9
REMARK    4  A    between atoms: C_7  and  O_8
REMARK    5  A    between atoms: C_12  and  C_14
REMARK    6  A    between atoms: C_12  and  C_15
REMARK    7  A    between atoms: N_20  and  C_23
REMARK                            x       y       z     vdW  Elec       q    Type
REMARK                         _______ _______ _______ _____ _____    ______ ____
ROOT
ATOM      1  C   UNL     1      -1.548   0.685   0.175  0.00  0.00    +0.048 C 
ATOM      2  C   UNL     1      -0.414   1.677   0.135  0.00  0.00    -0.002 A 
ATOM      3  C   UNL     1      -0.681   3.031   0.128  0.00  0.00    -0.002 A 
ATOM      4  C   UNL     1       0.361   3.951   0.085  0.00  0.00    +0.129 A 
ATOM      5  C   UNL     1       1.671   3.506   0.053  0.00  0.00    +0.001 A 
ATOM      6  C   UNL     1       1.938   2.147   0.068  0.00  0.00    -0.002 A 
ATOM      7  C   UNL     1       0.899   1.231   0.112  0.00  0.00    +0.123 A 
ATOM      8  C   UNL     1       3.364   1.662   0.037  0.00  0.00    +0.048 C 
ATOM      9  C   UNL     1       2.828   4.471  -0.006  0.00  0.00    +0.043 C 
ATOM     10  C   UNL     1       2.360   5.863   0.424  0.00  0.00    +0.062 C 
ATOM     11  C   UNL     1       1.067   6.193  -0.334  0.00  0.00    +0.183 C 
ATOM     12  O   UNL     1       0.055   5.276   0.083  0.00  0.00    -0.476 OA
ATOM     13  C   UNL     1       0.631   7.623  -0.011  0.00  0.00    +0.066 C 
ATOM     14  C   UNL     1      -2.108   3.514   0.159  0.00  0.00    +0.048 C 
ENDROOT
BRANCH  11  15
ATOM     15  C   UNL     1       1.299   6.054  -1.817  0.00  0.00    +0.259 C 
ATOM     16  O   UNL     1       2.426   6.101  -2.261  0.00  0.00    -0.271 OA
ATOM     17  N   UNL     1       0.253   5.879  -2.648  0.00  0.00    -0.295 N 
ATOM     18  C   UNL     1      -1.129   5.938  -2.147  0.00  0.00    +0.127 C 
ATOM     19  C   UNL     1      -1.920   6.916  -3.030  0.00  0.00    +0.125 C 
ATOM     20  N   UNL     1      -1.787   6.516  -4.437  0.00  0.00    -0.314 N 
ATOM     21  C   UNL     1      -0.391   6.603  -4.886  0.00  0.00    +0.125 C 
ATOM     22  C   UNL     1       0.463   5.617  -4.080  0.00  0.00    +0.127 C 
BRANCH  20  23
ATOM     23  C   UNL     1      -2.621   7.274  -5.251  0.00  0.00    +0.099 A 
ATOM     24  C   UNL     1      -3.987   7.316  -4.991  0.00  0.00    +0.042 A 
ATOM     25  C   UNL     1      -4.803   8.079  -5.806  0.00  0.00    +0.005 A 
ATOM     26  C   UNL     1      -4.226   8.768  -6.864  0.00  0.00    +0.018 A 
ATOM     27  C   UNL     1      -2.864   8.676  -7.068  0.00  0.00    +0.084 A 
ATOM     28  N   UNL     1      -2.030   7.941  -6.284  0.00  0.00    -0.350 N 
ATOM     29  H   UNL     1      -1.020   7.892  -6.459  0.00  0.00    +0.166 HD
ENDBRANCH  20  23
ENDBRANCH  11  15
BRANCH   7  30
ATOM     30  O   UNL     1       1.166  -0.102   0.126  0.00  0.00    -0.506 OA
ATOM     31  H   UNL     1       1.267  -0.473   1.013  0.00  0.00    +0.292 HD
ENDBRANCH   7  30
TORSDOF 3
