REMARK  Name = ZINC00856132
REMARK  3 active torsions:
REMARK  status: ('A' for Active; 'I' for Inactive)
REMARK    1  A    between atoms: C_6  and  C_7
REMARK    2  A    between atoms: C_20  and  N_24
REMARK    3  A    between atoms: C_21  and  C_22
REMARK                            x       y       z     vdW  Elec       q    Type
REMARK                         _______ _______ _______ _____ _____    ______ ____
ROOT
ATOM      1  C   UNL     1       3.673   2.183  -0.022  0.00  0.00    +0.105 C 
ATOM      2  C   UNL     1       3.729   3.049  -1.251  0.00  0.00    +0.089 A 
ATOM      3  C   UNL     1       4.021   2.471  -2.501  0.00  0.00    +0.262 A 
ATOM      4  O   UNL     1       4.227   1.273  -2.590  0.00  0.00    -0.267 OA
ATOM      5  N   UNL     1       4.071   3.251  -3.598  0.00  0.00    -0.275 N 
ATOM      6  H   UNL     1       4.277   2.845  -4.488  0.00  0.00    +0.173 HD
ATOM      7  C   UNL     1       3.845   4.574  -3.503  0.00  0.00    +0.329 A 
ATOM      8  O   UNL     1       3.895   5.263  -4.504  0.00  0.00    -0.247 OA
ATOM      9  N   UNL     1       3.565   5.146  -2.319  0.00  0.00    -0.278 N 
ATOM     10  H   UNL     1       3.400   6.131  -2.270  0.00  0.00    +0.173 HD
ATOM     11  C   UNL     1       3.503   4.387  -1.174  0.00  0.00    +0.214 A 
ATOM     12  O   UNL     1       3.220   4.981   0.000  0.00  0.00    -0.425 OA
ATOM     13  C   UNL     1       3.527   4.368   1.157  0.00  0.00    +0.200 C 
ATOM     14  C   UNL     1       3.753   3.036   1.213  0.00  0.00    +0.098 C 
ENDROOT
BRANCH   1  20
ATOM     15  C   UNL     1       2.397   0.030  -0.021  0.00  0.00    +0.006 A 
ATOM     16  C   UNL     1       1.210  -0.678  -0.013  0.00  0.00    +0.022 A 
ATOM     17  C   UNL     1       0.002  -0.004   0.002  0.00  0.00    +0.059 A 
ATOM     18  C   UNL     1      -0.017   1.381   0.010  0.00  0.00    +0.060 A 
ATOM     19  C   UNL     1       1.172   2.088   0.002  0.00  0.00    +0.026 A 
ATOM     20  C   UNL     1       2.378   1.412  -0.013  0.00  0.00    -0.033 A 
ATOM     21 CL   UNL     1      -1.532   2.229   0.021  0.00  0.00    -0.082 Cl
ATOM     22 CL   UNL     1      -1.489  -0.893   0.011  0.00  0.00    -0.082 Cl
ENDBRANCH   1  20
BRANCH  13  23
ATOM     23  N   UNL     1       3.611   5.112   2.307  0.00  0.00    -0.328 N 
ATOM     24  H   UNL     1       3.449   6.068   2.279  0.00  0.00    +0.145 HD
ATOM     25  H   UNL     1       3.832   4.682   3.148  0.00  0.00    +0.145 HD
ENDBRANCH  13  23
BRANCH  14  26
ATOM     26  C   UNL     1       4.076   2.431   2.470  0.00  0.00    +0.101 C 
ATOM     27  N   UNL     1       4.331   1.951   3.468  0.00  0.00    -0.191 NA
ENDBRANCH  14  26
TORSDOF 3
