REMARK  Name = ZINC58272206
REMARK  10 active torsions:
REMARK  status: ('A' for Active; 'I' for Inactive)
REMARK    1  A    between atoms: C_1  and  C_2
REMARK    2  A    between atoms: C_6  and  N_9
REMARK    3  A    between atoms: C_7  and  C_8
REMARK    4  A    between atoms: N_12  and  C_15
REMARK    5  A    between atoms: C_15  and  C_17
REMARK    6  A    between atoms: C_15  and  C_18
REMARK    7  A    between atoms: N_23  and  C_24
REMARK    8  A    between atoms: C_24  and  C_25
REMARK    9  A    between atoms: C_24  and  C_26
REMARK   10  A    between atoms: C_24  and  C_27
REMARK                            x       y       z     vdW  Elec       q    Type
REMARK                         _______ _______ _______ _____ _____    ______ ____
ROOT
ATOM      1  N   UNL     1       0.051  -2.796   2.390  0.00  0.00    -0.327 N 
ATOM      2  C   UNL     1      -1.203  -3.201   3.044  0.00  0.00    +0.120 C 
ATOM      3  C   UNL     1      -1.157  -2.746   4.507  0.00  0.00    +0.104 C 
ATOM      4  N   UNL     1       0.066  -3.259   5.138  0.00  0.00    -0.289 NA
ATOM      5  C   UNL     1       1.268  -2.704   4.501  0.00  0.00    +0.104 C 
ATOM      6  C   UNL     1       1.322  -3.162   3.035  0.00  0.00    +0.120 C 
ENDROOT
BRANCH   1  12
ATOM      7  C   UNL     1      -0.018   1.503   0.010  0.00  0.00    +0.044 C 
ATOM      8  C   UNL     1       0.002  -0.004   0.002  0.00  0.00    -0.046 A 
ATOM      9  C   UNL     1       0.006  -0.688  -1.200  0.00  0.00    +0.004 A 
ATOM     10  C   UNL     1       0.024  -2.071  -1.212  0.00  0.00    +0.002 A 
ATOM     11  C   UNL     1       0.039  -2.773  -0.023  0.00  0.00    +0.023 A 
ATOM     12  C   UNL     1       0.036  -2.089   1.186  0.00  0.00    +0.033 A 
ATOM     13  C   UNL     1       0.023  -0.700   1.194  0.00  0.00    -0.027 A 
ATOM     14  C   UNL     1       0.025   0.046   2.504  0.00  0.00    +0.046 C 
ENDBRANCH   1  12
BRANCH   4  15
ATOM     15  C   UNL     1       0.065  -2.992   6.583  0.00  0.00    +0.140 C 
ATOM     16  C   UNL     1       0.111  -1.481   6.822  0.00  0.00    +0.034 C 
BRANCH  15  17
ATOM     17  C   UNL     1       1.272  -3.637   7.214  0.00  0.00    +0.237 C 
ATOM     18  O   UNL     1       2.055  -4.259   6.528  0.00  0.00    -0.274 OA
ATOM     19  N   UNL     1       1.480  -3.524   8.541  0.00  0.00    -0.239 N 
ATOM     20  C   UNL     1       2.559  -4.101   9.105  0.00  0.00    +0.306 C 
ATOM     21  O   UNL     1       3.344  -4.724   8.418  0.00  0.00    -0.252 OA
ATOM     22  N   UNL     1       2.767  -3.988  10.432  0.00  0.00    -0.294 N 
ATOM     23  H   UNL     1       0.853  -3.027   9.089  0.00  0.00    +0.159 HD
ATOM     24  H   UNL     1       2.140  -3.491  10.980  0.00  0.00    +0.151 HD
BRANCH  22  25
ATOM     25  C   UNL     1       3.940  -4.616  11.046  0.00  0.00    +0.028 C 
ATOM     26  C   UNL     1       5.212  -4.039  10.421  0.00  0.00    +0.031 C 
ATOM     27  C   UNL     1       3.939  -4.337  12.550  0.00  0.00    +0.031 C 
ATOM     28  C   UNL     1       3.894  -6.126  10.806  0.00  0.00    +0.031 C 
ENDBRANCH  22  25
ENDBRANCH  15  17
ENDBRANCH   4  15
TORSDOF 4
