REMARK  Name = ZINC13640262
REMARK  7 active torsions:
REMARK  status: ('A' for Active; 'I' for Inactive)
REMARK    1  A    between atoms: C_1  and  C_2
REMARK    2  A    between atoms: C_2  and  C_4
REMARK    3  A    between atoms: C_4  and  O_5
REMARK    4  A    between atoms: O_5  and  C_6
REMARK    5  A    between atoms: C_19  and  C_22
REMARK    6  A    between atoms: C_25  and  O_29
REMARK    7  A    between atoms: C_27  and  O_28
REMARK                            x       y       z     vdW  Elec       q    Type
REMARK                         _______ _______ _______ _____ _____    ______ ____
ROOT
ATOM      1  C   UNL     1      -1.140   8.433   1.910  0.00  0.00    +0.121 A 
ATOM      2  C   UNL     1      -1.385   8.624   0.558  0.00  0.00    +0.047 A 
ATOM      3  C   UNL     1      -1.790   7.565  -0.228  0.00  0.00    +0.027 A 
ATOM      4  C   UNL     1      -1.953   6.301   0.325  0.00  0.00    +0.032 A 
ATOM      5  C   UNL     1      -1.692   6.111   1.686  0.00  0.00    -0.016 A 
ATOM      6  C   UNL     1      -1.296   7.174   2.469  0.00  0.00    +0.051 A 
ATOM      7  C   UNL     1      -1.850   4.743   2.227  0.00  0.00    +0.049 C 
ATOM      8  C   UNL     1      -2.166   4.494   3.656  0.00  0.00    -0.023 C 
ATOM      9  C   UNL     1      -2.880   3.378   3.744  0.00  0.00    -0.030 C 
ATOM     10  C   UNL     1      -3.129   2.805   2.348  0.00  0.00    +0.033 C 
ATOM     11  C   UNL     1      -3.035   4.060   1.475  0.00  0.00    +0.029 C 
ATOM     12  C   UNL     1      -2.552   3.879   0.046  0.00  0.00    +0.108 C 
ATOM     13  N   UNL     1      -2.378   5.245  -0.494  0.00  0.00    -0.336 N 
ATOM     14  H   UNL     1      -2.561   5.413  -1.432  0.00  0.00    +0.147 HD
ENDROOT
BRANCH  12  15
ATOM     15  C   UNL     1      -1.238   3.141   0.030  0.00  0.00    +0.015 A 
ATOM     16  C   UNL     1      -0.050   3.847   0.023  0.00  0.00    +0.012 A 
ATOM     17  C   UNL     1       1.156   3.174   0.008  0.00  0.00    +0.046 A 
ATOM     18  C   UNL     1       1.178   1.786   0.000  0.00  0.00    +0.120 A 
ATOM     19  C   UNL     1      -0.013   1.076   0.008  0.00  0.00    +0.091 A 
ATOM     20  C   UNL     1      -1.222   1.754   0.017  0.00  0.00    +0.125 A 
BRANCH  20  21
ATOM     21  O   UNL     1      -2.391   1.060   0.019  0.00  0.00    -0.506 OA
ATOM     22  H   UNL     1      -2.725   0.855   0.903  0.00  0.00    +0.292 HD
ENDBRANCH  20  21
BRANCH  18  23
ATOM     23  O   UNL     1       2.365   1.125  -0.014  0.00  0.00    -0.507 OA
ATOM     24  H   UNL     1       2.700   0.938  -0.902  0.00  0.00    +0.292 HD
ENDBRANCH  18  23
ENDBRANCH  12  15
BRANCH   1  25
ATOM     25  O   UNL     1      -0.748   9.479   2.686  0.00  0.00    -0.488 OA
BRANCH  25  26
ATOM     26  C   UNL     1      -0.608  10.748   2.043  0.00  0.00    +0.259 C 
BRANCH  26  28
ATOM     27  C   UNL     1       0.050  13.205   2.626  0.00  0.00    +0.042 C 
ATOM     28  C   UNL     1      -0.171  11.777   3.053  0.00  0.00    -0.043 C 
ATOM     29  C   UNL     1       0.018  11.430   4.302  0.00  0.00    +0.011 C 
ENDBRANCH  26  28
ENDBRANCH  25  26
ENDBRANCH   1  25
TORSDOF 6
