REMARK  Name = ZINC20277808
REMARK  4 active torsions:
REMARK  status: ('A' for Active; 'I' for Inactive)
REMARK    1  A    between atoms: C_4  and  C_7
REMARK    2  A    between atoms: N_11  and  C_20
REMARK    3  A    between atoms: C_15  and  N_19
REMARK    4  A    between atoms: C_20  and  C_21
REMARK                            x       y       z     vdW  Elec       q    Type
REMARK                         _______ _______ _______ _____ _____    ______ ____
ROOT
ATOM      1  C   UNL     1       1.279   1.983   0.001  0.00  0.00    +0.289 C 
ATOM      2  C   UNL     1      -0.014   1.209   0.009  0.00  0.00    +0.266 C 
ATOM      3  O   UNL     1       0.002  -0.004   0.002  0.00  0.00    -0.271 OA
ATOM      4  N   UNL     1      -1.192   1.871   0.018  0.00  0.00    -0.256 N 
ATOM      5  C   UNL     1      -1.182   3.275   0.066  0.00  0.00    +0.079 A 
ATOM      6  C   UNL     1      -2.324   3.999  -0.235  0.00  0.00    +0.029 A 
ATOM      7  C   UNL     1      -2.297   5.380  -0.187  0.00  0.00    +0.025 A 
ATOM      8  C   UNL     1      -1.127   6.043   0.162  0.00  0.00    +0.028 A 
ATOM      9  C   UNL     1       0.019   5.320   0.464  0.00  0.00    +0.070 A 
ATOM     10  C   UNL     1      -0.006   3.937   0.416  0.00  0.00    +0.145 A 
ATOM     11  O   UNL     1       1.107   3.214   0.709  0.00  0.00    -0.473 OA
ENDROOT
BRANCH   1  15
ATOM     12  C   UNL     1       2.413   2.813  -4.034  0.00  0.00    +0.000 A 
ATOM     13  C   UNL     1       2.927   1.706  -3.385  0.00  0.00    +0.000 A 
ATOM     14  C   UNL     1       2.560   1.437  -2.079  0.00  0.00    +0.008 A 
ATOM     15  C   UNL     1       1.679   2.276  -1.423  0.00  0.00    +0.002 A 
ATOM     16  C   UNL     1       1.161   3.380  -2.073  0.00  0.00    +0.008 A 
ATOM     17  C   UNL     1       1.532   3.651  -3.377  0.00  0.00    +0.000 A 
ENDBRANCH   1  15
BRANCH   8  18
ATOM     18  N   UNL     1      -1.104   7.441   0.209  0.00  0.00    -0.358 N 
ATOM     19  H   UNL     1      -0.178   7.966   0.485  0.00  0.00    +0.142 HD
ATOM     20  H   UNL     1      -2.012   8.014  -0.030  0.00  0.00    +0.142 HD
ENDBRANCH   8  18
BRANCH   4  21
ATOM     21  C   UNL     1      -2.459   1.136  -0.017  0.00  0.00    +0.209 C 
BRANCH  21  22
ATOM     22  C   UNL     1      -2.907   0.841   1.391  0.00  0.00    +0.228 C 
ATOM     23  O   UNL     1      -2.234   1.208   2.331  0.00  0.00    -0.274 OA
ATOM     24  N   UNL     1      -4.055   0.169   1.606  0.00  0.00    -0.328 N 
ATOM     25  H   UNL     1      -4.382  -0.047   2.634  0.00  0.00    +0.145 HD
ATOM     26  H   UNL     1      -4.665  -0.164   0.754  0.00  0.00    +0.145 HD
ENDBRANCH  21  22
ENDBRANCH   4  21
TORSDOF 4
