REMARK  Name = ZINC33464663
REMARK  2 active torsions:
REMARK  status: ('A' for Active; 'I' for Inactive)
REMARK    1  A    between atoms: C_6  and  C_7
REMARK    2  A    between atoms: C_12  and  N_16
REMARK                            x       y       z     vdW  Elec       q    Type
REMARK                         _______ _______ _______ _____ _____    ______ ____
ROOT
ATOM      1  C   UNL     1       1.263  -0.437  -0.012  0.00  0.00    +0.184 A 
ATOM      2  N   UNL     1       0.002  -0.004   0.002  0.00  0.00    -0.189 NA
ATOM      3  C   UNL     1      -0.016   1.324   0.009  0.00  0.00    +0.253 A 
ATOM      4  N   UNL     1      -1.019   2.210   0.029  0.00  0.00    -0.217 NA
ATOM      5  C   UNL     1      -0.781   3.501   0.029  0.00  0.00    +0.139 A 
ATOM      6  C   UNL     1       0.541   3.978   0.019  0.00  0.00    +0.061 A 
ATOM      7  C   UNL     1       1.568   3.082   0.004  0.00  0.00    +0.140 A 
ATOM      8  N   UNL     1       1.282   1.751  -0.001  0.00  0.00    -0.202 N 
ATOM      9  N   UNL     1       2.081   0.599  -0.015  0.00  0.00    -0.144 NA
ENDROOT
BRANCH   1  15
ATOM     10  C   UNL     1       3.035  -2.191  -0.045  0.00  0.00    +0.014 A 
ATOM     11  C   UNL     1       3.420  -3.515  -0.051  0.00  0.00    +0.039 A 
ATOM     12  C   UNL     1       2.462  -4.517  -0.047  0.00  0.00    +0.123 A 
ATOM     13  C   UNL     1       1.115  -4.193  -0.031  0.00  0.00    +0.039 A 
ATOM     14  C   UNL     1       0.722  -2.871  -0.020  0.00  0.00    +0.014 A 
ATOM     15  C   UNL     1       1.681  -1.860  -0.024  0.00  0.00    +0.021 A 
ATOM     16  F   UNL     1       2.843  -5.813  -0.057  0.00  0.00    -0.205 F 
ENDBRANCH   1  15
BRANCH   6  17
ATOM     17  N   UNL     1       0.800   5.355   0.024  0.00  0.00    -0.356 N 
ATOM     18  H   UNL     1       1.838   5.719   0.016  0.00  0.00    +0.142 HD
ATOM     19  H   UNL     1      -0.035   6.071   0.036  0.00  0.00    +0.142 HD
ENDBRANCH   6  17
TORSDOF 2
