REMARK  Name = ZINC39860968
REMARK  3 active torsions:
REMARK  status: ('A' for Active; 'I' for Inactive)
REMARK    1  A    between atoms: N_11  and  C_15
REMARK    2  A    between atoms: N_25  and  C_26
REMARK    3  A    between atoms: C_26  and  C_27
REMARK                            x       y       z     vdW  Elec       q    Type
REMARK                         _______ _______ _______ _____ _____    ______ ____
ROOT
ATOM      1  C   UNL     1       0.188   0.905   2.228  0.00  0.00    +0.001 A 
ATOM      2  C   UNL     1       1.401   1.517   2.494  0.00  0.00    +0.002 A 
ATOM      3  C   UNL     1       2.591   0.871   2.221  0.00  0.00    +0.024 A 
ATOM      4  C   UNL     1       2.581  -0.407   1.674  0.00  0.00    +0.045 A 
ATOM      5  C   UNL     1       1.351  -1.024   1.406  0.00  0.00    +0.010 A 
ATOM      6  C   UNL     1       0.157  -0.364   1.685  0.00  0.00    +0.010 A 
ATOM      7  C   UNL     1       1.664  -2.352   0.838  0.00  0.00    +0.065 C 
ATOM      8  C   UNL     1       0.772  -3.319   0.421  0.00  0.00    +0.092 C 
ATOM      9  C   UNL     1      -0.709  -3.367   0.559  0.00  0.00    +0.265 C 
ATOM     10  O   UNL     1      -1.332  -2.476   1.103  0.00  0.00    -0.269 OA
ATOM     11  N   UNL     1      -1.310  -4.432   0.057  0.00  0.00    -0.197 N 
ATOM     12  C   UNL     1      -0.615  -5.418  -0.545  0.00  0.00    +0.290 C 
ATOM     13  O   UNL     1      -1.039  -6.441  -1.046  0.00  0.00    -0.262 OA
ATOM     14  S   UNL     1       1.076  -4.855  -0.441  0.00  0.00    -0.025 S 
ATOM     15  C   UNL     1       3.140  -2.420   0.814  0.00  0.00    +0.253 C 
ATOM     16  O   UNL     1       3.808  -3.355   0.415  0.00  0.00    -0.270 OA
ATOM     17  N   UNL     1       3.614  -1.264   1.310  0.00  0.00    -0.256 N 
ENDROOT
BRANCH  11  18
ATOM     18  C   UNL     1      -2.705  -4.540   0.154  0.00  0.00    +0.047 A 
ATOM     19  C   UNL     1      -3.514  -4.032  -0.854  0.00  0.00    +0.027 A 
ATOM     20  C   UNL     1      -4.887  -4.139  -0.757  0.00  0.00    +0.041 A 
ATOM     21  C   UNL     1      -5.459  -4.752   0.345  0.00  0.00    +0.142 A 
ATOM     22  C   UNL     1      -4.654  -5.260   1.352  0.00  0.00    +0.078 A 
ATOM     23  C   UNL     1      -3.279  -5.160   1.255  0.00  0.00    +0.047 A 
ATOM     24 CL   UNL     1      -5.374  -6.027   2.733  0.00  0.00    -0.081 Cl
ATOM     25  F   UNL     1      -6.803  -4.855   0.438  0.00  0.00    -0.204 F 
ENDBRANCH  11  18
BRANCH  17  26
ATOM     26  C   UNL     1       5.038  -0.947   1.450  0.00  0.00    +0.239 C 
BRANCH  26  27
ATOM     27  C   UNL     1       5.522  -1.397   2.804  0.00  0.00    +0.373 C 
ATOM     28  O   UNL     1       4.750  -1.933   3.581  0.00  0.00    -0.245 OA
ATOM     29  O   UNL     1       6.687  -1.226   3.123  0.00  0.00    -0.245 OA
ENDBRANCH  26  27
ENDBRANCH  17  26
TORSDOF 3
