REMARK  Name = ZINC31655798
REMARK  7 active torsions:
REMARK  status: ('A' for Active; 'I' for Inactive)
REMARK    1  A    between atoms: C_1  and  C_2
REMARK    2  A    between atoms: C_2  and  C_3
REMARK    3  A    between atoms: C_2  and  C_4
REMARK    4  A    between atoms: C_6  and  C_9
REMARK    5  A    between atoms: C_9  and  S_10
REMARK    6  A    between atoms: S_10  and  C_11
REMARK    7  A    between atoms: C_15  and  N_17
REMARK                            x       y       z     vdW  Elec       q    Type
REMARK                         _______ _______ _______ _____ _____    ______ ____
ROOT
ATOM      1  C   UNL     1      -3.964   5.971  -1.345  0.00  0.00    +0.192 A 
ATOM      2  N   UNL     1      -4.309   6.232  -0.092  0.00  0.00    -0.207 NA
ATOM      3  C   UNL     1      -5.339   7.030   0.179  0.00  0.00    +0.122 A 
ATOM      4  C   UNL     1      -6.063   7.583  -0.874  0.00  0.00    +0.086 A 
ATOM      5  C   UNL     1      -5.675   7.281  -2.176  0.00  0.00    +0.122 A 
ATOM      6  N   UNL     1      -4.630   6.480  -2.371  0.00  0.00    -0.207 NA
ATOM      7  N   UNL     1      -5.690   7.303   1.492  0.00  0.00    -0.343 N 
ATOM      8  H   UNL     1      -6.543   7.963   1.708  0.00  0.00    +0.144 HD
ATOM      9  H   UNL     1      -5.115   6.859   2.318  0.00  0.00    +0.144 HD
ENDROOT
BRANCH   5  10
ATOM     10  N   UNL     1      -6.366   7.810  -3.255  0.00  0.00    -0.343 N 
ATOM     11  H   UNL     1      -6.053   7.567  -4.281  0.00  0.00    +0.144 HD
ATOM     12  H   UNL     1      -7.228   8.472  -3.085  0.00  0.00    +0.144 HD
ENDBRANCH   5  10
BRANCH   1  13
ATOM     13  S   UNL     1      -2.588   4.915  -1.653  0.00  0.00    -0.080 S 
BRANCH  13  14
ATOM     14  C   UNL     1      -2.093   4.539   0.046  0.00  0.00    +0.133 C 
BRANCH  14  17
ATOM     15  C   UNL     1      -0.018   1.503   0.010  0.00  0.00    +0.081 A 
ATOM     16  N   UNL     1      -1.051   2.314   0.019  0.00  0.00    -0.248 NA
ATOM     17  C   UNL     1      -0.898   3.621   0.030  0.00  0.00    +0.059 A 
ATOM     18  C   UNL     1       0.364   4.123   0.021  0.00  0.00    +0.071 A 
ATOM     19  S   UNL     1       1.318   2.612   0.004  0.00  0.00    -0.080 S 
BRANCH  15  21
ATOM     20  C   UNL     1       0.719  -0.497  -1.256  0.00  0.00    +0.014 C 
ATOM     21  C   UNL     1       0.002  -0.004   0.002  0.00  0.00    +0.038 C 
ATOM     22  C   UNL     1       0.742  -0.511   1.242  0.00  0.00    +0.014 C 
ENDBRANCH  15  21
ENDBRANCH  14  17
ENDBRANCH  13  14
ENDBRANCH   1  13
TORSDOF 5
