REMARK  Name = ZINC15859833
REMARK  6 active torsions:
REMARK  status: ('A' for Active; 'I' for Inactive)
REMARK    1  A    between atoms: C_6  and  C_7
REMARK    2  A    between atoms: C_8  and  C_23
REMARK    3  A    between atoms: C_12  and  S_14
REMARK    4  A    between atoms: S_14  and  C_15
REMARK    5  A    between atoms: C_15  and  C_16
REMARK    6  A    between atoms: C_16  and  N_17
REMARK                            x       y       z     vdW  Elec       q    Type
REMARK                         _______ _______ _______ _____ _____    ______ ____
ROOT
ATOM      1  C   UNL     1      -1.269  -0.764   0.011  0.00  0.00    +0.097 A 
ATOM      2  C   UNL     1      -1.379  -1.986  -0.687  0.00  0.00    +0.144 A 
ATOM      3  C   UNL     1      -2.611  -2.666  -0.643  0.00  0.00    +0.292 A 
ATOM      4  O   UNL     1      -2.772  -3.841  -1.293  0.00  0.00    -0.264 OA
ATOM      5  N   UNL     1      -3.612  -2.135   0.047  0.00  0.00    -0.182 NA
ATOM      6  C   UNL     1      -3.466  -0.984   0.689  0.00  0.00    +0.192 A 
ATOM      7  N   UNL     1      -2.324  -0.311   0.680  0.00  0.00    -0.220 NA
ENDROOT
BRANCH   1  13
ATOM      8  C   UNL     1      -0.017   1.391   0.010  0.00  0.00    +0.011 A 
ATOM      9  C   UNL     1       1.170   2.094   0.002  0.00  0.00    +0.020 A 
ATOM     10  C   UNL     1       2.378   1.418  -0.013  0.00  0.00    +0.041 A 
ATOM     11  C   UNL     1       2.403   0.034  -0.021  0.00  0.00    +0.020 A 
ATOM     12  C   UNL     1       1.222  -0.680  -0.014  0.00  0.00    +0.011 A 
ATOM     13  C   UNL     1       0.002  -0.004   0.002  0.00  0.00    +0.002 A 
ATOM     14 CL   UNL     1       3.868   2.309  -0.022  0.00  0.00    -0.084 Cl
ENDBRANCH   1  13
BRANCH   2  15
ATOM     15  C   UNL     1      -0.269  -2.519  -1.419  0.00  0.00    +0.107 C 
ATOM     16  N   UNL     1       0.611  -2.942  -1.999  0.00  0.00    -0.191 NA
ENDBRANCH   2  15
BRANCH   6  17
ATOM     17  S   UNL     1      -4.833  -0.330   1.587  0.00  0.00    -0.088 S 
BRANCH  17  18
ATOM     18  C   UNL     1      -6.150  -1.552   1.334  0.00  0.00    +0.059 C 
BRANCH  18  19
ATOM     19  C   UNL     1      -7.413  -1.101   2.071  0.00  0.00    -0.068 C 
BRANCH  19  20
ATOM     20  N   UNL     1      -8.479  -2.091   1.866  0.00  0.00    +0.380 N 
ATOM     21  C   UNL     1      -8.842  -2.129   0.444  0.00  0.00    -0.079 C 
ATOM     22  C   UNL     1      -9.894  -3.215   0.211  0.00  0.00    -0.019 C 
ATOM     23  C   UNL     1     -11.137  -2.901   1.049  0.00  0.00    -0.004 C 
ATOM     24  C   UNL     1     -10.734  -2.790   2.522  0.00  0.00    -0.019 C 
ATOM     25  C   UNL     1      -9.650  -1.720   2.669  0.00  0.00    -0.079 C 
ATOM     26  H   UNL     1      -8.151  -3.001   2.152  0.00  0.00    -0.082 HD
ENDBRANCH  19  20
ENDBRANCH  18  19
ENDBRANCH  17  18
ENDBRANCH   6  17
TORSDOF 6
