REMARK  Name = ZINC45681831
REMARK  9 active torsions:
REMARK  status: ('A' for Active; 'I' for Inactive)
REMARK    1  A    between atoms: C_1  and  C_2
REMARK    2  A    between atoms: C_2  and  C_4
REMARK    3  A    between atoms: C_2  and  N_18
REMARK    4  A    between atoms: N_6  and  C_7
REMARK    5  A    between atoms: C_8  and  C_15
REMARK    6  A    between atoms: N_21  and  C_24
REMARK    7  A    between atoms: C_24  and  C_26
REMARK    8  A    between atoms: C_24  and  C_27
REMARK    9  A    between atoms: N_29  and  C_30
REMARK                            x       y       z     vdW  Elec       q    Type
REMARK                         _______ _______ _______ _____ _____    ______ ____
ROOT
ATOM      1  C   UNL     1       0.416  -0.627  -0.704  0.00  0.00    +0.034 C 
ATOM      2  C   UNL     1       0.341  -2.014  -0.064  0.00  0.00    +0.140 C 
ENDROOT
BRANCH   2   3
ATOM      3  N   UNL     1       0.947  -1.970   1.274  0.00  0.00    -0.295 NA
ATOM      4  C   UNL     1       0.264  -0.990   2.130  0.00  0.00    +0.066 C 
ATOM      5  C   UNL     1       0.885  -1.017   3.528  0.00  0.00    -0.062 C 
ATOM      6  N   UNL     1       2.316  -0.697   3.434  0.00  0.00    +0.389 N 
ATOM      7  C   UNL     1       2.989  -1.698   2.596  0.00  0.00    -0.062 C 
ATOM      8  C   UNL     1       2.385  -1.677   1.190  0.00  0.00    +0.066 C 
ATOM      9  H   UNL     1       2.430   0.217   3.022  0.00  0.00    -0.081 HD
BRANCH   6  10
ATOM     10  C   UNL     1       2.908  -0.705   4.778  0.00  0.00    +0.016 C 
ATOM     11  C   UNL     1       2.210   0.341   5.649  0.00  0.00    -0.004 C 
BRANCH  10  12
ATOM     12  C   UNL     1       4.377  -0.380   4.682  0.00  0.00    +0.199 C 
ATOM     13  O   UNL     1       4.786   0.316   3.777  0.00  0.00    -0.278 OA
ATOM     14  N   UNL     1       5.235  -0.863   5.602  0.00  0.00    -0.314 N 
ATOM     15  H   UNL     1       4.908  -1.419   6.326  0.00  0.00    +0.149 HD
BRANCH  14  16
ATOM     16  C   UNL     1       6.663  -0.546   5.508  0.00  0.00    +0.073 C 
ATOM     17  C   UNL     1       7.656  -1.685   5.748  0.00  0.00    +0.024 C 
ATOM     18  C   UNL     1       7.482  -0.588   6.800  0.00  0.00    +0.024 C 
ENDBRANCH  14  16
ENDBRANCH  10  12
ENDBRANCH   6  10
ENDBRANCH   2   3
BRANCH   2  19
ATOM     19  C   UNL     1      -1.101  -2.436   0.053  0.00  0.00    +0.235 C 
ATOM     20  O   UNL     1      -1.577  -2.676   1.142  0.00  0.00    -0.274 OA
ATOM     21  N   UNL     1      -1.862  -2.547  -1.054  0.00  0.00    -0.278 N 
ATOM     22  H   UNL     1      -1.482  -2.355  -1.925  0.00  0.00    +0.155 HD
BRANCH  21  23
ATOM     23  C   UNL     1      -3.189  -2.936  -0.947  0.00  0.00    +0.084 A 
ATOM     24  C   UNL     1      -4.110  -3.106  -1.964  0.00  0.00    +0.068 A 
ATOM     25  C   UNL     1      -5.458  -3.526  -1.585  0.00  0.00    -0.023 A 
ATOM     26  C   UNL     1      -5.628  -3.693  -0.261  0.00  0.00    -0.004 A 
ATOM     27  S   UNL     1      -4.044  -3.313   0.445  0.00  0.00    -0.077 S 
ATOM     28  C   UNL     1      -7.031  -4.121   0.075  0.00  0.00    +0.043 C 
ATOM     29  C   UNL     1      -7.853  -3.788  -1.190  0.00  0.00    +0.010 C 
ATOM     30  C   UNL     1      -6.775  -3.842  -2.290  0.00  0.00    +0.037 C 
BRANCH  24  31
ATOM     31  C   UNL     1      -3.749  -2.875  -3.367  0.00  0.00    +0.244 C 
ATOM     32  O   UNL     1      -3.311  -3.789  -4.041  0.00  0.00    -0.270 OA
ATOM     33  N   UNL     1      -3.903  -1.651  -3.909  0.00  0.00    -0.325 N 
ATOM     34  H   UNL     1      -4.252  -0.923  -3.372  0.00  0.00    +0.145 HD
ATOM     35  H   UNL     1      -3.664  -1.498  -4.837  0.00  0.00    +0.145 HD
ENDBRANCH  24  31
ENDBRANCH  21  23
ENDBRANCH   2  19
TORSDOF 7
