REMARK  Name = ZINC52015716
REMARK  6 active torsions:
REMARK  status: ('A' for Active; 'I' for Inactive)
REMARK    1  A    between atoms: C_3  and  N_23
REMARK    2  A    between atoms: C_4  and  S_10
REMARK    3  A    between atoms: C_6  and  N_7
REMARK    4  A    between atoms: S_10  and  N_13
REMARK    5  A    between atoms: N_13  and  C_14
REMARK    6  A    between atoms: C_20  and  O_22
REMARK                            x       y       z     vdW  Elec       q    Type
REMARK                         _______ _______ _______ _____ _____    ______ ____
ROOT
ATOM      1  S   UNL     1       4.439  -0.800   0.056  0.00  0.00    +0.061 S 
ATOM      2  O   UNL     1       5.518  -0.402   0.891  0.00  0.00    -0.153 OA
ATOM      3  O   UNL     1       3.979  -2.143  -0.007  0.00  0.00    -0.153 OA
ENDROOT
BRANCH   1   7
ATOM      4  C   UNL     1       0.877   1.734   1.248  0.00  0.00    +0.034 A 
ATOM      5  C   UNL     1       0.760   0.834   0.208  0.00  0.00    +0.027 A 
ATOM      6  C   UNL     1       1.849   0.055  -0.161  0.00  0.00    +0.051 A 
ATOM      7  C   UNL     1       3.054   0.185   0.519  0.00  0.00    +0.128 A 
ATOM      8  C   UNL     1       3.164   1.088   1.558  0.00  0.00    +0.063 A 
ATOM      9  C   UNL     1       2.077   1.861   1.923  0.00  0.00    +0.128 A 
BRANCH   9  10
ATOM     10  N   UNL     1       2.199   2.828   3.038  0.00  0.00    +0.056 N 
ATOM     11  O   UNL     1       1.250   3.504   3.357  0.00  0.00    -0.126 OA
ATOM     12  O   UNL     1       3.248   2.940   3.628  0.00  0.00    -0.126 OA
ENDBRANCH   9  10
BRANCH   6  13
ATOM     13  N   UNL     1       1.734  -0.857  -1.212  0.00  0.00    -0.356 N 
ATOM     14  H   UNL     1       0.880  -0.984  -1.653  0.00  0.00    +0.142 HD
ATOM     15  H   UNL     1       2.509  -1.364  -1.502  0.00  0.00    +0.142 HD
ENDBRANCH   6  13
ENDBRANCH   1   7
BRANCH   1  16
ATOM     16  N   UNL     1       4.852  -0.368  -1.489  0.00  0.00    -0.184 NA
ATOM     17  H   UNL     1       4.774  -1.013  -2.209  0.00  0.00    +0.148 HD
BRANCH  16  18
ATOM     18  C   UNL     1       5.336   0.986  -1.766  0.00  0.00    +0.105 C 
ATOM     19  C   UNL     1       4.338   1.708  -2.675  0.00  0.00    +0.023 C 
ATOM     20  C   UNL     1       4.843   3.123  -2.965  0.00  0.00    +0.002 C 
ATOM     21  C   UNL     1       6.204   3.046  -3.661  0.00  0.00    +0.003 C 
ATOM     22  C   UNL     1       7.201   2.324  -2.752  0.00  0.00    +0.033 C 
ATOM     23  C   UNL     1       6.696   0.910  -2.462  0.00  0.00    +0.133 C 
BRANCH  23  24
ATOM     24  O   UNL     1       7.628   0.236  -1.614  0.00  0.00    -0.390 OA
ATOM     25  H   UNL     1       8.514   0.151  -1.992  0.00  0.00    +0.210 HD
ENDBRANCH  23  24
ENDBRANCH  16  18
ENDBRANCH   1  16
TORSDOF 6
