REMARK  Name = ZINC23642112
REMARK  8 active torsions:
REMARK  status: ('A' for Active; 'I' for Inactive)
REMARK    1  A    between atoms: C_1  and  C_2
REMARK    2  A    between atoms: C_2  and  C_4
REMARK    3  A    between atoms: C_2  and  O_15
REMARK    4  A    between atoms: O_15  and  C_16
REMARK    5  A    between atoms: C_16  and  C_18
REMARK    6  A    between atoms: C_18  and  C_19
REMARK    7  A    between atoms: C_19  and  C_21
REMARK    8  A    between atoms: C_19  and  N_28
REMARK                            x       y       z     vdW  Elec       q    Type
REMARK                         _______ _______ _______ _____ _____    ______ ____
ROOT
ATOM      1  C   UNL     1      -2.370   0.887  -2.365  0.00  0.00    +0.310 C 
ATOM      2  O   UNL     1      -2.586   2.075  -2.336  0.00  0.00    -0.251 OA
ENDROOT
BRANCH   1   3
ATOM      3  O   UNL     1      -2.251   0.254  -3.542  0.00  0.00    -0.452 OA
BRANCH   3   5
ATOM      4  C   UNL     1      -3.862   1.087  -5.168  0.00  0.00    +0.062 C 
ATOM      5  C   UNL     1      -2.393   1.061  -4.741  0.00  0.00    +0.259 C 
BRANCH   5   6
ATOM      6  C   UNL     1      -1.560   0.467  -5.848  0.00  0.00    +0.259 C 
ATOM      7  O   UNL     1      -0.982  -0.585  -5.674  0.00  0.00    -0.271 OA
ATOM      8  N   UNL     1      -1.456   1.106  -7.030  0.00  0.00    -0.266 N 
ATOM      9  C   UNL     1      -0.684   0.557  -8.054  0.00  0.00    +0.144 A 
ATOM     10  C   UNL     1      -0.586   1.219  -9.274  0.00  0.00    +0.082 A 
ATOM     11  C   UNL     1       0.188   0.665 -10.280  0.00  0.00    +0.045 A 
ATOM     12  C   UNL     1       0.831  -0.541 -10.033  0.00  0.00    +0.061 A 
ATOM     13  C   UNL     1       0.684  -1.146  -8.799  0.00  0.00    +0.133 A 
ATOM     14  N   UNL     1      -0.056  -0.591  -7.858  0.00  0.00    -0.237 NA
ATOM     15 CL   UNL     1       1.807  -1.283 -11.262  0.00  0.00    -0.082 Cl
ATOM     16 CL   UNL     1      -1.417   2.721  -9.529  0.00  0.00    -0.080 Cl
ATOM     17  H   UNL     1      -1.979   2.061  -7.187  0.00  0.00    +0.156 HD
ENDBRANCH   5   6
ENDBRANCH   3   5
ENDBRANCH   1   3
BRANCH   1  18
ATOM     18  C   UNL     1      -2.235   0.115  -1.077  0.00  0.00    +0.147 C 
BRANCH  18  19
ATOM     19  C   UNL     1      -2.412   1.065   0.108  0.00  0.00    +0.115 C 
BRANCH  19  20
ATOM     20  C   UNL     1      -2.399   0.276   1.392  0.00  0.00    -0.027 A 
ATOM     21  C   UNL     1      -1.207  -0.220   1.886  0.00  0.00    +0.007 A 
ATOM     22  C   UNL     1      -1.194  -0.940   3.066  0.00  0.00    +0.020 A 
ATOM     23  C   UNL     1      -2.376  -1.174   3.746  0.00  0.00    +0.041 A 
ATOM     24  C   UNL     1      -3.569  -0.683   3.248  0.00  0.00    +0.020 A 
ATOM     25  C   UNL     1      -3.580   0.041   2.071  0.00  0.00    +0.007 A 
ATOM     26 CL   UNL     1      -2.361  -2.084   5.224  0.00  0.00    -0.084 Cl
ENDBRANCH  19  20
BRANCH  19  27
ATOM     27  N   UNL     1      -1.316   2.038   0.123  0.00  0.00    -0.292 N 
ATOM     28  C   UNL     1      -1.481   3.230   0.728  0.00  0.00    +0.298 C 
ATOM     29  O   UNL     1      -2.566   3.535   1.185  0.00  0.00    -0.253 OA
ATOM     30  N   UNL     1      -0.443   4.083   0.832  0.00  0.00    -0.313 N 
ATOM     31  H   UNL     1      -0.359   1.794  -0.361  0.00  0.00    +0.151 HD
ATOM     32  H   UNL     1      -0.577   5.056   1.326  0.00  0.00    +0.146 HD
ATOM     33  H   UNL     1       0.540   3.805   0.423  0.00  0.00    +0.146 HD
ENDBRANCH  19  27
ENDBRANCH  18  19
ENDBRANCH   1  18
TORSDOF 7
