REMARK  Name = ZINC50510489
REMARK  2 active torsions:
REMARK  status: ('A' for Active; 'I' for Inactive)
REMARK    1  A    between atoms: N_13  and  C_14
REMARK    2  A    between atoms: C_14  and  C_15
REMARK                            x       y       z     vdW  Elec       q    Type
REMARK                         _______ _______ _______ _____ _____    ______ ____
ROOT
ATOM      1  C   UNL     1      -0.017   1.390   0.010  0.00  0.00    +0.001 A 
ATOM      2  C   UNL     1       1.120   2.154   0.003  0.00  0.00    +0.008 A 
ATOM      3  C   UNL     1       2.370   1.513  -0.012  0.00  0.00    -0.015 A 
ATOM      4  C   UNL     1       3.621   2.153  -0.019  0.00  0.00    +0.008 A 
ATOM      5  C   UNL     1       4.750   1.379  -0.033  0.00  0.00    +0.002 A 
ATOM      6  C   UNL     1       4.721  -0.015  -0.042  0.00  0.00    +0.024 A 
ATOM      7  C   UNL     1       3.510  -0.681  -0.035  0.00  0.00    +0.045 A 
ATOM      8  C   UNL     1       2.371   0.118  -0.020  0.00  0.00    +0.016 A 
ATOM      9  C   UNL     1       1.213  -0.674  -0.014  0.00  0.00    +0.047 A 
ATOM     10  C   UNL     1       0.002  -0.004   0.002  0.00  0.00    +0.014 A 
ATOM     11  C   UNL     1       1.718  -2.052  -0.025  0.00  0.00    +0.252 C 
ATOM     12  O   UNL     1       1.040  -3.062  -0.025  0.00  0.00    -0.270 OA
ATOM     13  N   UNL     1       3.077  -2.001  -0.039  0.00  0.00    -0.259 N 
ENDROOT
BRANCH  13  14
ATOM     14  C   UNL     1       3.958  -3.172  -0.055  0.00  0.00    +0.190 C 
BRANCH  14  15
ATOM     15  C   UNL     1       4.274  -3.582   1.360  0.00  0.00    +0.154 A 
ATOM     16  N   UNL     1       5.324  -3.068   1.976  0.00  0.00    -0.198 NA
ATOM     17  C   UNL     1       5.606  -3.428   3.227  0.00  0.00    +0.217 A 
ATOM     18  N   UNL     1       4.830  -4.304   3.855  0.00  0.00    -0.181 NA
ATOM     19  C   UNL     1       3.775  -4.818   3.232  0.00  0.00    +0.217 A 
ATOM     20  N   UNL     1       3.496  -4.450   1.984  0.00  0.00    -0.198 NA
ATOM     21  N   UNL     1       2.966  -5.729   3.881  0.00  0.00    -0.327 N 
ATOM     22  N   UNL     1       6.703  -2.891   3.869  0.00  0.00    -0.327 N 
ATOM     23  H   UNL     1       3.167  -5.994   4.792  0.00  0.00    +0.145 HD
ATOM     24  H   UNL     1       2.196  -6.104   3.426  0.00  0.00    +0.145 HD
ATOM     25  H   UNL     1       7.269  -2.252   3.409  0.00  0.00    +0.145 HD
ATOM     26  H   UNL     1       6.908  -3.154   4.780  0.00  0.00    +0.145 HD
ENDBRANCH  14  15
ENDBRANCH  13  14
TORSDOF 2
