REMARK  Name = ZINC49351883
REMARK  10 active torsions:
REMARK  status: ('A' for Active; 'I' for Inactive)
REMARK    1  A    between atoms: C_1  and  C_2
REMARK    2  A    between atoms: C_5  and  N_20
REMARK    3  A    between atoms: C_6  and  S_9
REMARK    4  A    between atoms: C_7  and  C_8
REMARK    5  A    between atoms: S_9  and  N_12
REMARK    6  A    between atoms: N_12  and  C_13
REMARK    7  A    between atoms: C_13  and  C_15
REMARK    8  A    between atoms: C_13  and  C_16
REMARK    9  A    between atoms: C_16  and  O_18
REMARK   10  A    between atoms: O_18  and  C_19
REMARK                            x       y       z     vdW  Elec       q    Type
REMARK                         _______ _______ _______ _____ _____    ______ ____
ROOT
ATOM      1  C   UNL     1      -0.364   1.559   0.337  0.00  0.00    +0.044 C 
ATOM      2  C   UNL     1      -0.260   0.063   0.183  0.00  0.00    -0.046 A 
ATOM      3  C   UNL     1      -0.110  -0.492  -1.075  0.00  0.00    +0.005 A 
ATOM      4  C   UNL     1      -0.015  -1.862  -1.219  0.00  0.00    +0.025 A 
ATOM      5  C   UNL     1      -0.071  -2.683  -0.100  0.00  0.00    +0.052 A 
ATOM      6  C   UNL     1      -0.222  -2.122   1.162  0.00  0.00    +0.129 A 
ATOM      7  C   UNL     1      -0.311  -0.750   1.300  0.00  0.00    -0.019 A 
ATOM      8  C   UNL     1      -0.469  -0.140   2.669  0.00  0.00    +0.046 C 
ENDROOT
BRANCH   6   9
ATOM      9  S   UNL     1      -0.294  -3.158   2.585  0.00  0.00    +0.061 S 
ATOM     10  O   UNL     1      -0.814  -2.362   3.641  0.00  0.00    -0.153 OA
ATOM     11  O   UNL     1      -0.906  -4.372   2.173  0.00  0.00    -0.153 OA
BRANCH   9  12
ATOM     12  N   UNL     1       1.266  -3.531   2.998  0.00  0.00    -0.176 NA
ATOM     13  H   UNL     1       1.574  -4.449   2.949  0.00  0.00    +0.149 HD
BRANCH  12  14
ATOM     14  C   UNL     1       2.180  -2.474   3.439  0.00  0.00    +0.182 C 
ATOM     15  C   UNL     1       3.019  -1.998   2.252  0.00  0.00    +0.037 C 
BRANCH  14  16
ATOM     16  C   UNL     1       3.089  -3.013   4.513  0.00  0.00    +0.325 C 
ATOM     17  O   UNL     1       2.985  -4.161   4.874  0.00  0.00    -0.249 OA
BRANCH  16  18
ATOM     18  O   UNL     1       4.015  -2.216   5.070  0.00  0.00    -0.467 OA
ATOM     19  C   UNL     1       4.843  -2.792   6.082  0.00  0.00    +0.280 C 
ENDBRANCH  16  18
ENDBRANCH  14  16
ENDBRANCH  12  14
ENDBRANCH   9  12
ENDBRANCH   6   9
BRANCH   5  20
ATOM     20  N   UNL     1       0.025  -4.069  -0.242  0.00  0.00    -0.356 N 
ATOM     21  H   UNL     1      -0.011  -4.469  -1.125  0.00  0.00    +0.142 HD
ATOM     22  H   UNL     1       0.126  -4.631   0.541  0.00  0.00    +0.142 HD
ENDBRANCH   5  20
TORSDOF 6
