REMARK  Name = ZINC43667571
REMARK  5 active torsions:
REMARK  status: ('A' for Active; 'I' for Inactive)
REMARK    1  A    between atoms: C_1  and  C_2
REMARK    2  A    between atoms: C_4  and  N_20
REMARK    3  A    between atoms: N_5  and  C_7
REMARK    4  A    between atoms: C_7  and  C_9
REMARK    5  A    between atoms: C_7  and  C_15
REMARK                            x       y       z     vdW  Elec       q    Type
REMARK                         _______ _______ _______ _____ _____    ______ ____
ROOT
ATOM      1  C   UNL     1       0.053  -3.291   1.500  0.00  0.00    +0.205 C 
ENDROOT
BRANCH   1   6
ATOM      2  C   UNL     1      -0.018   1.503   0.010  0.00  0.00    +0.069 C 
ATOM      3  C   UNL     1       0.002  -0.004   0.002  0.00  0.00    +0.080 A 
ATOM      4  C   UNL     1       0.008  -0.815  -1.136  0.00  0.00    +0.103 A 
ATOM      5  C   UNL     1       0.027  -2.113  -0.724  0.00  0.00    +0.134 A 
ATOM      6  N   UNL     1       0.034  -2.109   0.634  0.00  0.00    -0.234 N 
ATOM      7  N   UNL     1       0.023  -0.775   1.059  0.00  0.00    -0.172 NA
ATOM      8 CL   UNL     1      -0.008  -0.266  -2.783  0.00  0.00    -0.078 Cl
BRANCH   5   9
ATOM      9  N   UNL     1       0.039  -3.238  -1.545  0.00  0.00    -0.342 N 
ATOM     10  H   UNL     1       0.033  -3.135  -2.510  0.00  0.00    +0.144 HD
ATOM     11  H   UNL     1       0.052  -4.125  -1.153  0.00  0.00    +0.144 HD
ENDBRANCH   5   9
ENDBRANCH   1   6
BRANCH   1  12
ATOM     12  C   UNL     1       1.288  -3.259   2.365  0.00  0.00    -0.016 A 
ATOM     13  C   UNL     1       1.493  -2.207   3.238  0.00  0.00    +0.006 A 
ATOM     14  C   UNL     1       2.625  -2.178   4.031  0.00  0.00    +0.000 A 
ATOM     15  C   UNL     1       3.551  -3.201   3.951  0.00  0.00    +0.000 A 
ATOM     16  C   UNL     1       3.345  -4.254   3.078  0.00  0.00    +0.000 A 
ATOM     17  C   UNL     1       2.211  -4.285   2.289  0.00  0.00    +0.006 A 
ENDBRANCH   1  12
BRANCH   1  18
ATOM     18  C   UNL     1      -1.173  -3.293   2.376  0.00  0.00    +0.134 A 
ATOM     19  C   UNL     1      -2.115  -4.253   2.409  0.00  0.00    +0.047 A 
ATOM     20  C   UNL     1      -3.076  -3.851   3.364  0.00  0.00    +0.041 A 
ATOM     21  C   UNL     1      -2.665  -2.669   3.858  0.00  0.00    +0.195 A 
ATOM     22  O   UNL     1      -1.509  -2.339   3.260  0.00  0.00    -0.465 OA
ENDBRANCH   1  18
TORSDOF 4
