REMARK  Name = ZINC38587471
REMARK  2 active torsions:
REMARK  status: ('A' for Active; 'I' for Inactive)
REMARK    1  A    between atoms: C_1  and  C_2
REMARK    2  A    between atoms: C_4  and  C_19
REMARK                            x       y       z     vdW  Elec       q    Type
REMARK                         _______ _______ _______ _____ _____    ______ ____
ROOT
ATOM      1  C   UNL     1      -0.018   1.503   0.010  0.00  0.00    +0.067 C 
ATOM      2  C   UNL     1       0.002  -0.004   0.002  0.00  0.00    +0.064 C 
ATOM      3  C   UNL     1      -1.064  -0.768   0.003  0.00  0.00    +0.009 C 
ATOM      4  C   UNL     1      -2.534  -0.495  -0.136  0.00  0.00    +0.089 C 
ATOM      5  C   UNL     1      -3.081  -1.527  -1.103  0.00  0.00    +0.066 A 
ATOM      6  C   UNL     1      -2.352  -2.599  -1.517  0.00  0.00    +0.111 A 
ATOM      7  N   UNL     1      -2.933  -3.500  -2.388  0.00  0.00    -0.296 N 
ATOM      8  C   UNL     1      -4.187  -3.317  -2.832  0.00  0.00    +0.328 A 
ATOM      9  N   UNL     1      -4.913  -2.256  -2.439  0.00  0.00    -0.275 N 
ATOM     10  C   UNL     1      -4.393  -1.357  -1.582  0.00  0.00    +0.260 A 
ATOM     11  O   UNL     1      -5.056  -0.400  -1.222  0.00  0.00    -0.267 OA
ATOM     12  O   UNL     1      -4.673  -4.124  -3.601  0.00  0.00    -0.247 OA
ATOM     13  N   UNL     1      -1.053  -2.847  -1.133  0.00  0.00    -0.304 N 
ATOM     14  C   UNL     1      -0.527  -2.199   0.073  0.00  0.00    +0.242 C 
ATOM     15  N   UNL     1       0.921  -1.985   0.003  0.00  0.00    -0.160 NA
ATOM     16  N   UNL     1       1.127  -0.764  -0.013  0.00  0.00    -0.157 NA
ATOM     17  H   UNL     1      -5.816  -2.137  -2.774  0.00  0.00    +0.173 HD
ATOM     18  H   UNL     1      -0.492  -3.443  -1.654  0.00  0.00    +0.150 HD
ATOM     19  H   UNL     1      -2.428  -4.274  -2.684  0.00  0.00    +0.172 HD
ENDROOT
BRANCH   4  20
ATOM     20  C   UNL     1      -2.752   0.892  -0.682  0.00  0.00    -0.034 A 
ATOM     21  C   UNL     1      -2.243   1.235  -1.921  0.00  0.00    +0.006 A 
ATOM     22  C   UNL     1      -2.441   2.507  -2.423  0.00  0.00    +0.022 A 
ATOM     23  C   UNL     1      -3.150   3.439  -1.685  0.00  0.00    +0.059 A 
ATOM     24  C   UNL     1      -3.660   3.096  -0.445  0.00  0.00    +0.060 A 
ATOM     25  C   UNL     1      -3.465   1.820   0.054  0.00  0.00    +0.026 A 
ATOM     26 CL   UNL     1      -4.549   4.264   0.482  0.00  0.00    -0.082 Cl
ATOM     27 CL   UNL     1      -3.399   5.037  -2.315  0.00  0.00    -0.082 Cl
ENDBRANCH   4  20
TORSDOF 1
