REMARK  Name = ZINC37101536
REMARK  4 active torsions:
REMARK  status: ('A' for Active; 'I' for Inactive)
REMARK    1  A    between atoms: C_1  and  C_2
REMARK    2  A    between atoms: C_5  and  C_7
REMARK    3  A    between atoms: C_7  and  N_8
REMARK    4  A    between atoms: N_8  and  C_9
REMARK                            x       y       z     vdW  Elec       q    Type
REMARK                         _______ _______ _______ _____ _____    ______ ____
ROOT
ATOM      1  C   UNL     1       2.837  -4.687  -1.671  0.00  0.00    +0.037 A 
ATOM      2  C   UNL     1       3.401  -5.400  -0.633  0.00  0.00    +0.025 A 
ATOM      3  C   UNL     1       4.256  -6.468  -0.889  0.00  0.00    +0.024 A 
ATOM      4  C   UNL     1       4.559  -6.838  -2.164  0.00  0.00    +0.067 A 
ATOM      5  C   UNL     1       4.006  -6.139  -3.251  0.00  0.00    +0.091 A 
ATOM      6  C   UNL     1       3.130  -5.054  -3.001  0.00  0.00    +0.023 A 
ATOM      7  C   UNL     1       2.574  -4.360  -4.089  0.00  0.00    +0.013 A 
ATOM      8  C   UNL     1       2.902  -4.770  -5.351  0.00  0.00    +0.020 A 
ATOM      9  C   UNL     1       3.765  -5.848  -5.529  0.00  0.00    +0.111 A 
ATOM     10  N   UNL     1       4.291  -6.486  -4.511  0.00  0.00    -0.253 NA
ATOM     11 CL   UNL     1       5.630  -8.175  -2.448  0.00  0.00    -0.081 Cl
ENDROOT
BRANCH   1  12
ATOM     12  N   UNL     1       1.983  -3.620  -1.407  0.00  0.00    -0.336 N 
ATOM     13  H   UNL     1       1.586  -3.124  -2.140  0.00  0.00    +0.147 HD
BRANCH  12  14
ATOM     14  C   UNL     1       1.684  -3.245  -0.023  0.00  0.00    +0.176 C 
BRANCH  14  19
ATOM     15  C   UNL     1      -0.018   1.503   0.010  0.00  0.00    +0.086 C 
ATOM     16  C   UNL     1       0.002  -0.004   0.002  0.00  0.00    +0.102 A 
ATOM     17  C   UNL     1      -1.078  -0.805   0.003  0.00  0.00    +0.045 A 
ATOM     18  C   UNL     1      -0.601  -2.136  -0.007  0.00  0.00    +0.046 A 
ATOM     19  C   UNL     1       0.742  -2.069  -0.013  0.00  0.00    +0.122 A 
ATOM     20  O   UNL     1       1.102  -0.775  -0.013  0.00  0.00    -0.463 OA
ENDBRANCH  14  19
ENDBRANCH  12  14
ENDBRANCH   1  12
TORSDOF 3
