REMARK  Name = ZINC49055303
REMARK  10 active torsions:
REMARK  status: ('A' for Active; 'I' for Inactive)
REMARK    1  A    between atoms: C_1  and  C_2
REMARK    2  A    between atoms: C_4  and  C_9
REMARK    3  A    between atoms: C_9  and  C_10
REMARK    4  A    between atoms: C_15  and  O_17
REMARK    5  A    between atoms: O_17  and  C_18
REMARK    6  A    between atoms: C_18  and  C_19
REMARK    7  A    between atoms: C_19  and  N_20
REMARK    8  A    between atoms: N_20  and  C_21
REMARK    9  A    between atoms: C_21  and  C_22
REMARK   10  A    between atoms: C_22  and  C_23
REMARK                            x       y       z     vdW  Elec       q    Type
REMARK                         _______ _______ _______ _____ _____    ______ ____
ROOT
ATOM      1  C   UNL     1       1.466  -2.988  -2.975  0.00  0.00    +0.005 C 
ATOM      2  C   UNL     1       2.013  -1.609  -3.401  0.00  0.00    -0.076 C 
ATOM      3  N   UNL     1       2.842  -1.889  -4.601  0.00  0.00    +0.381 N 
ATOM      4  C   UNL     1       2.068  -2.913  -5.348  0.00  0.00    -0.050 C 
ATOM      5  C   UNL     1       1.503  -3.849  -4.255  0.00  0.00    +0.103 C 
ATOM      6  H   UNL     1       2.951  -1.054  -5.157  0.00  0.00    -0.086 HD
ATOM      7  H   UNL     1       3.743  -2.255  -4.330  0.00  0.00    -0.086 HD
ENDROOT
BRANCH   1   8
ATOM      8  C   UNL     1       0.029  -2.856  -2.465  0.00  0.00    +0.057 C 
BRANCH   8  12
ATOM      9  C   UNL     1      -0.018   1.503   0.010  0.00  0.00    +0.044 C 
ATOM     10  C   UNL     1       0.002  -0.004   0.002  0.00  0.00    -0.046 A 
ATOM     11  C   UNL     1       0.006  -0.708  -1.196  0.00  0.00    +0.024 A 
ATOM     12  C   UNL     1       0.025  -2.087  -1.169  0.00  0.00    +0.018 A 
ATOM     13  N   UNL     1       0.040  -2.742  -0.023  0.00  0.00    -0.347 N 
ATOM     14  C   UNL     1       0.036  -2.108   1.139  0.00  0.00    +0.094 A 
ATOM     15  C   UNL     1       0.023  -0.717   1.187  0.00  0.00    +0.044 A 
ATOM     16  N   UNL     1       0.052  -2.838   2.322  0.00  0.00    -0.345 N 
ATOM     17  H   UNL     1       0.065  -3.807   2.294  0.00  0.00    +0.144 HD
ATOM     18  H   UNL     1       0.049  -2.377   3.176  0.00  0.00    +0.144 HD
ATOM     19  H   UNL     1       0.054  -3.712  -0.033  0.00  0.00    +0.167 HD
ENDBRANCH   8  12
ENDBRANCH   1   8
BRANCH   5  20
ATOM     20  O   UNL     1       2.362  -4.976  -4.071  0.00  0.00    -0.377 OA
BRANCH  20  21
ATOM     21  C   UNL     1       1.983  -6.126  -4.830  0.00  0.00    +0.175 C 
BRANCH  21  22
ATOM     22  C   UNL     1       2.967  -7.265  -4.556  0.00  0.00    +0.109 C 
BRANCH  22  23
ATOM     23  N   UNL     1       2.861  -7.675  -3.149  0.00  0.00    -0.308 NA
ATOM     24  H   UNL     1       3.012  -6.892  -2.531  0.00  0.00    +0.122 HD
BRANCH  23  25
ATOM     25  C   UNL     1       3.794  -8.770  -2.849  0.00  0.00    +0.162 C 
BRANCH  25  26
ATOM     26  C   UNL     1       3.655  -9.169  -1.378  0.00  0.00    +0.286 C 
ATOM     27  F   UNL     1       3.951  -8.069  -0.566  0.00  0.00    -0.199 F 
ATOM     28  F   UNL     1       2.345  -9.592  -1.132  0.00  0.00    -0.199 F 
BRANCH  26  29
ATOM     29  C   UNL     1       4.612 -10.292  -1.070  0.00  0.00    +0.024 A 
ATOM     30  C   UNL     1       4.211 -11.605  -1.230  0.00  0.00    +0.009 A 
ATOM     31  C   UNL     1       5.088 -12.636  -0.948  0.00  0.00    +0.003 A 
ATOM     32  C   UNL     1       6.366 -12.355  -0.505  0.00  0.00    +0.038 A 
ATOM     33  C   UNL     1       6.769 -11.040  -0.344  0.00  0.00    +0.124 A 
ATOM     34  C   UNL     1       5.892 -10.008  -0.633  0.00  0.00    +0.047 A 
ATOM     35  F   UNL     1       8.018 -10.764   0.090  0.00  0.00    -0.205 F 
ENDBRANCH  26  29
ENDBRANCH  25  26
ENDBRANCH  23  25
ENDBRANCH  22  23
ENDBRANCH  21  22
ENDBRANCH  20  21
ENDBRANCH   5  20
TORSDOF 9
