REMARK  Name = ZINC33764919
REMARK  10 active torsions:
REMARK  status: ('A' for Active; 'I' for Inactive)
REMARK    1  A    between atoms: C_1  and  N_2
REMARK    2  A    between atoms: N_2  and  C_3
REMARK    3  A    between atoms: N_2  and  C_4
REMARK    4  A    between atoms: C_7  and  C_10
REMARK    5  A    between atoms: N_11  and  N_12
REMARK    6  A    between atoms: N_17  and  C1*_18
REMARK    7  A    between atoms: C2*_20  and  O2*_30
REMARK    8  A    between atoms: C3*_22  and  O3*_29
REMARK    9  A    between atoms: C4*_24  and  C5*_27
REMARK   10  A    between atoms: C5*_27  and  O5*_28
REMARK                            x       y       z     vdW  Elec       q    Type
REMARK                         _______ _______ _______ _____ _____    ______ ____
ROOT
ATOM      1  N   UNL     1       0.780   4.955   1.245  0.00  0.00    -0.206 N 
ATOM      2  C   UNL     1      -0.555   4.619   1.376  0.00  0.00    +0.220 A 
ATOM      3  N   UNL     1      -1.557   5.274   0.843  0.00  0.00    -0.206 NA
ATOM      4  C   UNL     1      -2.718   4.664   1.186  0.00  0.00    +0.174 A 
ATOM      5  C   UNL     1      -2.398   3.570   1.979  0.00  0.00    +0.173 A 
ATOM      6  N   UNL     1      -1.037   3.551   2.084  0.00  0.00    -0.266 N 
ATOM      7  N   UNL     1      -3.411   2.784   2.465  0.00  0.00    -0.196 NA
ATOM      8  H   UNL     1      -6.116   4.298   1.227  0.00  0.00    +0.172 HD
ATOM      9  C   UNL     1      -4.707   3.073   2.178  0.00  0.00    +0.195 A 
ATOM     10  N   UNL     1      -5.053   4.102   1.434  0.00  0.00    -0.293 N 
ATOM     11  C   UNL     1      -4.133   4.929   0.914  0.00  0.00    +0.280 A 
ATOM     12  O   UNL     1      -4.468   5.880   0.225  0.00  0.00    -0.265 OA
ATOM     13  N   UNL     1      -5.690   2.263   2.681  0.00  0.00    -0.329 N 
ATOM     14  H   UNL     1       1.546   4.386   1.792  0.00  0.00    +0.177 HD
ATOM     15  H   UNL     1      -5.423   1.397   3.305  0.00  0.00    +0.145 HD
ATOM     16  H   UNL     1      -6.746   2.478   2.462  0.00  0.00    +0.145 HD
ENDROOT
BRANCH   6  17
ATOM     17  C1* UNL     1      -0.239   2.571   2.824  0.00  0.00    +0.255 C 
ATOM     18  C2* UNL     1       0.485   3.251   4.008  0.00  0.00    +0.195 C 
ATOM     19  C3* UNL     1      -0.458   3.017   5.209  0.00  0.00    +0.178 C 
ATOM     20  C4* UNL     1      -1.640   2.224   4.609  0.00  0.00    +0.177 C 
ATOM     21  O4* UNL     1      -1.096   1.583   3.435  0.00  0.00    -0.346 OA
BRANCH  19  22
ATOM     22  O3* UNL     1       0.201   2.252   6.221  0.00  0.00    -0.386 OA
ATOM     23  H3* UNL     1      -0.331   1.994   7.149  0.00  0.00    +0.210 HD
ENDBRANCH  19  22
BRANCH  18  24
ATOM     24  O2* UNL     1       1.754   2.635   4.239  0.00  0.00    -0.385 OA
ATOM     25  H2* UNL     1       2.402   2.998   5.050  0.00  0.00    +0.210 HD
ENDBRANCH  18  24
BRANCH  20  26
ATOM     26  C5* UNL     1      -2.138   1.176   5.606  0.00  0.00    +0.190 C 
BRANCH  26  27
ATOM     27  O5* UNL     1      -3.297   0.529   5.078  0.00  0.00    -0.392 OA
ATOM     28  H5* UNL     1      -3.800  -0.260   5.657  0.00  0.00    +0.210 HD
ENDBRANCH  26  27
ENDBRANCH  20  26
ENDBRANCH   6  17
BRANCH   1  30
ATOM     29  C   UNL     1       2.414   6.258   0.197  0.00  0.00    +0.138 C 
ATOM     30  N   UNL     1       1.157   6.018   0.414  0.00  0.00    -0.188 NA
BRANCH  29  34
ATOM     31  C   UNL     1       5.281   3.163   0.679  0.00  0.00    +0.029 A 
ATOM     32  C   UNL     1       3.923   2.862   0.705  0.00  0.00    +0.024 A 
ATOM     33  C   UNL     1       2.990   3.863   0.550  0.00  0.00    +0.011 A 
ATOM     34  C   UNL     1       3.409   5.184   0.364  0.00  0.00    -0.005 A 
ATOM     35  C   UNL     1       4.774   5.482   0.332  0.00  0.00    +0.011 A 
ATOM     36  C   UNL     1       5.702   4.476   0.494  0.00  0.00    +0.024 A 
BRANCH  31  38
ATOM     37  C   UNL     1       5.782   0.763   1.031  0.00  0.00    +0.129 C 
ATOM     38  N   UNL     1       6.223   2.146   0.837  0.00  0.00    -0.336 N 
ATOM     39  C   UNL     1       7.653   2.462   0.809  0.00  0.00    +0.129 C 
ENDBRANCH  31  38
ENDBRANCH  29  34
ENDBRANCH   1  30
TORSDOF 8
