REMARK  Name = ZINC13495321
REMARK  8 active torsions:
REMARK  status: ('A' for Active; 'I' for Inactive)
REMARK    1  A    between atoms: C_1  and  C_2
REMARK    2  A    between atoms: C_5  and  S_8
REMARK    3  A    between atoms: S_8  and  N_11
REMARK    4  A    between atoms: N_11  and  C_12
REMARK    5  A    between atoms: C_12  and  C_14
REMARK    6  A    between atoms: C_12  and  C_15
REMARK    7  A    between atoms: C_17  and  C_20
REMARK    8  A    between atoms: C_25  and  C_26
REMARK                            x       y       z     vdW  Elec       q    Type
REMARK                         _______ _______ _______ _____ _____    ______ ____
ROOT
ATOM      1  C   UNL     1       5.990   4.400  -0.030  0.00  0.00    +0.162 C 
ATOM      2  C   UNL     1       6.499   4.765  -1.427  0.00  0.00    +0.036 C 
ENDROOT
BRANCH   1   3
ATOM      3  C   UNL     1       4.484   4.447  -0.016  0.00  0.00    +0.246 A 
ATOM      4  N   UNL     1       3.674   3.417  -0.008  0.00  0.00    -0.190 NA
ATOM      5  C   UNL     1       2.426   3.938   0.000  0.00  0.00    +0.202 A 
ATOM      6  N   UNL     1       2.550   5.239   0.006  0.00  0.00    -0.056 NA
ATOM      7  O   UNL     1       3.724   5.546  -0.003  0.00  0.00    -0.336 OA
BRANCH   5   8
ATOM      8  C   UNL     1       1.153   3.174   0.008  0.00  0.00    +0.025 A 
ATOM      9  C   UNL     1       1.174   1.781   0.000  0.00  0.00    +0.012 A 
ATOM     10  C   UNL     1      -0.013   1.076   0.008  0.00  0.00    +0.001 A 
ATOM     11  C   UNL     1      -1.221   1.750   0.017  0.00  0.00    +0.000 A 
ATOM     12  C   UNL     1      -1.247   3.133   0.030  0.00  0.00    +0.004 A 
ATOM     13  C   UNL     1      -0.066   3.848   0.022  0.00  0.00    -0.040 A 
ATOM     14  C   UNL     1      -0.096   5.354   0.031  0.00  0.00    +0.044 C 
ENDBRANCH   5   8
ENDBRANCH   1   3
BRANCH   1  15
ATOM     15  N   UNL     1       6.518   5.356   0.947  0.00  0.00    -0.178 NA
ATOM     16  H   UNL     1       6.058   6.197   1.100  0.00  0.00    +0.149 HD
BRANCH  15  17
ATOM     17  S   UNL     1       7.899   5.003   1.789  0.00  0.00    +0.059 S 
ATOM     18  O   UNL     1       8.163   6.122   2.624  0.00  0.00    -0.153 OA
ATOM     19  O   UNL     1       7.735   3.689   2.304  0.00  0.00    -0.153 OA
BRANCH  17  24
ATOM     20  C   UNL     1      12.409   4.736  -2.210  0.00  0.00    +0.044 C 
ATOM     21  C   UNL     1      11.283   4.803  -1.211  0.00  0.00    -0.050 A 
ATOM     22  C   UNL     1      10.971   6.003  -0.600  0.00  0.00    +0.005 A 
ATOM     23  C   UNL     1       9.938   6.064   0.316  0.00  0.00    +0.029 A 
ATOM     24  C   UNL     1       9.216   4.925   0.621  0.00  0.00    +0.105 A 
ATOM     25  C   UNL     1       9.531   3.724   0.013  0.00  0.00    +0.029 A 
ATOM     26  C   UNL     1      10.561   3.664  -0.906  0.00  0.00    +0.005 A 
ENDBRANCH  17  24
ENDBRANCH  15  17
ENDBRANCH   1  15
TORSDOF 5
