REMARK  Name = ZINC66323925
REMARK  7 active torsions:
REMARK  status: ('A' for Active; 'I' for Inactive)
REMARK    1  A    between atoms: C_1  and  C_2
REMARK    2  A    between atoms: C_2  and  C_3
REMARK    3  A    between atoms: C_4  and  C_17
REMARK    4  A    between atoms: N_7  and  C_11
REMARK    5  A    between atoms: N_8  and  C_9
REMARK    6  A    between atoms: C_9  and  C_10
REMARK    7  A    between atoms: N_20  and  C_21
REMARK                            x       y       z     vdW  Elec       q    Type
REMARK                         _______ _______ _______ _____ _____    ______ ____
ROOT
ATOM      1  C   UNL     1       0.842  -0.355   1.224  0.00  0.00    +0.049 A 
ATOM      2  C   UNL     1       0.347  -1.126   2.254  0.00  0.00    +0.077 A 
ATOM      3  C   UNL     1       1.508  -1.571   3.042  0.00  0.00    +0.280 A 
ATOM      4  O   UNL     1       1.485  -2.272   4.036  0.00  0.00    -0.265 OA
ATOM      5  N   UNL     1       2.602  -1.051   2.448  0.00  0.00    -0.216 N 
ATOM      6  N   UNL     1       2.195  -0.311   1.333  0.00  0.00    -0.280 N 
ENDROOT
BRANCH   2   7
ATOM      7  C   UNL     1      -1.065  -1.442   2.516  0.00  0.00    +0.087 C 
ATOM      8  C   UNL     1      -2.082  -2.101   1.789  0.00  0.00    +0.220 C 
ATOM      9  C   UNL     1      -3.048  -1.885   2.883  0.00  0.00    +0.159 C 
ATOM     10  N   UNL     1      -4.311  -2.168   3.118  0.00  0.00    -0.240 NA
ATOM     11  C   UNL     1      -1.946  -1.212   3.597  0.00  0.00    +0.220 C 
ATOM     12  O   UNL     1      -1.837  -0.670   4.691  0.00  0.00    -0.285 OA
ATOM     13  O   UNL     1      -2.139  -2.637   0.689  0.00  0.00    -0.285 OA
BRANCH  10  14
ATOM     14  C   UNL     1      -4.888  -1.791   4.296  0.00  0.00    +0.065 A 
ATOM     15  C   UNL     1      -4.211  -1.987   5.504  0.00  0.00    +0.029 A 
ATOM     16  C   UNL     1      -4.799  -1.603   6.690  0.00  0.00    +0.022 A 
ATOM     17  C   UNL     1      -6.058  -1.025   6.688  0.00  0.00    +0.041 A 
ATOM     18  C   UNL     1      -6.734  -0.828   5.495  0.00  0.00    +0.022 A 
ATOM     19  C   UNL     1      -6.156  -1.201   4.301  0.00  0.00    +0.029 A 
ATOM     20 CL   UNL     1      -6.791  -0.545   8.186  0.00  0.00    -0.084 Cl
ENDBRANCH  10  14
ENDBRANCH   2   7
BRANCH   5  21
ATOM     21  C   UNL     1       3.923  -1.226   2.874  0.00  0.00    +0.067 A 
ATOM     22  C   UNL     1       4.755  -0.125   3.032  0.00  0.00    +0.028 A 
ATOM     23  C   UNL     1       6.058  -0.301   3.453  0.00  0.00    +0.002 A 
ATOM     24  C   UNL     1       6.535  -1.572   3.716  0.00  0.00    +0.000 A 
ATOM     25  C   UNL     1       5.710  -2.670   3.559  0.00  0.00    +0.002 A 
ATOM     26  C   UNL     1       4.403  -2.500   3.145  0.00  0.00    +0.028 A 
ENDBRANCH   5  21
BRANCH   1  28
ATOM     27  C   UNL     1      -0.308   1.749   0.590  0.00  0.00    +0.010 C 
ATOM     28  C   UNL     1       0.022   0.319   0.155  0.00  0.00    +0.052 C 
ENDBRANCH   1  28
BRANCH   6  29
ATOM     29  C   UNL     1       3.092   0.405   0.423  0.00  0.00    +0.139 C 
ATOM     30  C   UNL     1       3.469  -0.509  -0.745  0.00  0.00    +0.029 C 
ENDBRANCH   6  29
TORSDOF 5
