REMARK  Name = ZINC49102193
REMARK  11 active torsions:
REMARK  status: ('A' for Active; 'I' for Inactive)
REMARK    1  A    between atoms: C_1  and  C_2
REMARK    2  A    between atoms: C_2  and  C_3
REMARK    3  A    between atoms: C_3  and  C_4
REMARK    4  A    between atoms: C_4  and  C_5
REMARK    5  A    between atoms: C_5  and  C_6
REMARK    6  A    between atoms: C_6  and  C_8
REMARK    7  A    between atoms: C_6  and  N_9
REMARK    8  A    between atoms: N_9  and  S_10
REMARK    9  A    between atoms: S_10  and  C_13
REMARK   10  A    between atoms: C_18  and  N_19
REMARK   11  A    between atoms: N_19  and  N_20
REMARK                            x       y       z     vdW  Elec       q    Type
REMARK                         _______ _______ _______ _____ _____    ______ ____
ROOT
ATOM      1  S   UNL     1      -0.323  -6.050  -1.959  0.00  0.00    +0.062 S 
ATOM      2  O   UNL     1      -1.656  -6.420  -2.280  0.00  0.00    -0.153 OA
ATOM      3  O   UNL     1       0.795  -6.862  -2.292  0.00  0.00    -0.153 OA
ENDROOT
BRANCH   1   4
ATOM      4  C   UNL     1      -0.272  -5.817  -0.213  0.00  0.00    +0.147 A 
ATOM      5  C   UNL     1       0.718  -6.415   0.546  0.00  0.00    +0.048 A 
ATOM      6  C   UNL     1       0.719  -6.204   1.919  0.00  0.00    +0.038 A 
ATOM      7  C   UNL     1      -0.260  -5.410   2.482  0.00  0.00    +0.128 A 
ATOM      8  N   UNL     1      -1.193  -4.852   1.733  0.00  0.00    -0.236 NA
ATOM      9  C   UNL     1      -1.224  -5.025   0.420  0.00  0.00    +0.159 A 
ATOM     10 BR   UNL     1       2.048  -6.997   3.006  0.00  0.00    -0.049 Br
BRANCH   9  11
ATOM     11  N   UNL     1      -2.221  -4.413  -0.331  0.00  0.00    -0.266 N 
ATOM     12  H   UNL     1      -2.201  -4.468  -1.300  0.00  0.00    +0.167 HD
BRANCH  11  13
ATOM     13  N   UNL     1      -3.228  -3.734   0.294  0.00  0.00    -0.255 NA
ATOM     14  H   UNL     1      -2.859  -3.015   0.898  0.00  0.00    +0.140 HD
ATOM     15  H   UNL     1      -3.874  -3.346  -0.378  0.00  0.00    +0.140 HD
ENDBRANCH  11  13
ENDBRANCH   9  11
ENDBRANCH   1   4
BRANCH   1  16
ATOM     16  N   UNL     1      -0.060  -4.572  -2.658  0.00  0.00    -0.187 NA
ATOM     17  H   UNL     1      -0.764  -4.147  -3.172  0.00  0.00    +0.148 HD
BRANCH  16  18
ATOM     18  C   UNL     1       1.236  -3.907  -2.500  0.00  0.00    +0.073 C 
ATOM     19  C   UNL     1       2.126  -4.234  -3.700  0.00  0.00    +0.025 C 
BRANCH  18  20
ATOM     20  C   UNL     1       1.025  -2.394  -2.418  0.00  0.00    +0.020 C 
BRANCH  20  21
ATOM     21  C   UNL     1       0.240  -2.056  -1.150  0.00  0.00    +0.002 C 
BRANCH  21  22
ATOM     22  C   UNL     1       0.030  -0.542  -1.068  0.00  0.00    -0.000 C 
BRANCH  22  24
ATOM     23  C   UNL     1      -0.966   1.309   0.283  0.00  0.00    +0.004 C 
ATOM     24  C   UNL     1      -0.756  -0.204   0.201  0.00  0.00    -0.003 C 
ENDBRANCH  22  24
ENDBRANCH  21  22
ENDBRANCH  20  21
ENDBRANCH  18  20
ENDBRANCH  16  18
ENDBRANCH   1  16
TORSDOF 9
