REMARK  Name = ZINC39980114
REMARK  5 active torsions:
REMARK  status: ('A' for Active; 'I' for Inactive)
REMARK    1  A    between atoms: C_1  and  C_2
REMARK    2  A    between atoms: C_2  and  C_3
REMARK    3  A    between atoms: C_3  and  C_23
REMARK    4  A    between atoms: N_4  and  N_5
REMARK    5  A    between atoms: C_8  and  C_11
REMARK                            x       y       z     vdW  Elec       q    Type
REMARK                         _______ _______ _______ _____ _____    ______ ____
ROOT
ATOM      1  N   UNL     1      -1.282  -1.358   2.006  0.00  0.00    -0.215 N 
ATOM      2  C   UNL     1      -2.006  -1.896   3.058  0.00  0.00    +0.178 A 
ATOM      3  N   UNL     1      -3.282  -2.217   3.094  0.00  0.00    -0.228 NA
ATOM      4  C   UNL     1      -3.826  -2.725   4.185  0.00  0.00    +0.065 A 
ATOM      5  C   UNL     1      -3.014  -2.899   5.255  0.00  0.00    +0.072 A 
ATOM      6  S   UNL     1      -1.464  -2.305   4.598  0.00  0.00    -0.059 S 
ATOM      7  H   UNL     1      -1.722  -1.168   1.162  0.00  0.00    +0.176 HD
ENDROOT
BRANCH   4   8
ATOM      8  C   UNL     1      -5.287  -3.095   4.236  0.00  0.00    +0.152 C 
ATOM      9  C   UNL     1      -5.455  -4.588   3.938  0.00  0.00    +0.059 C 
ATOM     10  C   UNL     1      -5.042  -5.400   5.139  0.00  0.00    -0.004 A 
ATOM     11  C   UNL     1      -4.714  -6.734   4.955  0.00  0.00    +0.007 A 
ATOM     12  C   UNL     1      -4.337  -7.515   6.029  0.00  0.00    +0.000 A 
ATOM     13  C   UNL     1      -4.285  -6.969   7.298  0.00  0.00    +0.004 A 
ATOM     14  C   UNL     1      -4.608  -5.641   7.488  0.00  0.00    +0.046 A 
ATOM     15  C   UNL     1      -4.985  -4.850   6.408  0.00  0.00    +0.135 A 
ATOM     16  O   UNL     1      -5.277  -3.540   6.636  0.00  0.00    -0.425 OA
ATOM     17  C   UNL     1      -5.833  -2.839   5.626  0.00  0.00    +0.322 C 
ATOM     18  O   UNL     1      -6.725  -2.047   5.820  0.00  0.00    -0.250 OA
ENDBRANCH   4   8
BRANCH   1  20
ATOM     19  C   UNL     1       0.731  -0.504   1.222  0.00  0.00    +0.034 C 
ATOM     20  N   UNL     1       0.084  -1.088   2.160  0.00  0.00    -0.190 NA
ATOM     21  C   UNL     1       2.224  -0.332   1.331  0.00  0.00    +0.062 C 
BRANCH  19  23
ATOM     22  C   UNL     1      -0.087  -1.097  -1.042  0.00  0.00    +0.010 C 
ATOM     23  C   UNL     1      -0.000   0.011   0.010  0.00  0.00    +0.049 C 
ENDBRANCH  19  23
ENDBRANCH   1  20
TORSDOF 3
