REMARK  Name = ZINC04626116
REMARK  8 active torsions:
REMARK  status: ('A' for Active; 'I' for Inactive)
REMARK    1  A    between atoms: C_1  and  C_2
REMARK    2  A    between atoms: C_5  and  C_8
REMARK    3  A    between atoms: C_9  and  C_27
REMARK    4  A    between atoms: N_15  and  C_16
REMARK    5  A    between atoms: C_16  and  C_17
REMARK    6  A    between atoms: C_17  and  O_18
REMARK    7  A    between atoms: N_19  and  C_26
REMARK    8  A    between atoms: N_22  and  C_25
REMARK                            x       y       z     vdW  Elec       q    Type
REMARK                         _______ _______ _______ _____ _____    ______ ____
ROOT
ATOM      1  C   UNL     1       0.184  -4.257  -0.018  0.00  0.00    +0.072 A 
ATOM      2  C   UNL     1      -0.041  -5.021  -1.101  0.00  0.00    +0.048 A 
ATOM      3  N   UNL     1      -0.110  -6.338  -0.694  0.00  0.00    -0.274 N 
ATOM      4  C   UNL     1      -0.294  -7.646  -1.117  0.00  0.00    +0.157 A 
ATOM      5  C   UNL     1      -0.209  -8.443   0.024  0.00  0.00    +0.170 A 
ATOM      6  N   UNL     1       0.013  -7.639   1.061  0.00  0.00    -0.193 NA
ATOM      7  C   UNL     1       0.076  -6.380   0.652  0.00  0.00    +0.219 A 
ATOM      8  N   UNL     1       0.266  -5.094   1.086  0.00  0.00    -0.307 N 
ATOM      9  N   UNL     1      -0.358  -9.815  -0.108  0.00  0.00    -0.280 N 
ATOM     10  C   UNL     1      -0.581 -10.355  -1.322  0.00  0.00    +0.333 A 
ATOM     11  O   UNL     1      -0.709 -11.560  -1.420  0.00  0.00    -0.246 OA
ATOM     12  N   UNL     1      -0.664  -9.594  -2.427  0.00  0.00    -0.262 N 
ATOM     13  C   UNL     1      -0.527  -8.254  -2.361  0.00  0.00    +0.283 A 
ATOM     14  O   UNL     1      -0.605  -7.577  -3.372  0.00  0.00    -0.265 OA
ATOM     15  C   UNL     1      -0.907 -10.231  -3.723  0.00  0.00    +0.157 C 
ATOM     16  C   UNL     1      -0.274 -10.678   1.073  0.00  0.00    +0.155 C 
ATOM     17  C   UNL     1      -0.193  -4.525  -2.516  0.00  0.00    +0.066 C 
ENDROOT
BRANCH   1  22
ATOM     18  C   UNL     1       0.738   1.472   0.028  0.00  0.00    +0.044 C 
ATOM     19  C   UNL     1       0.593  -0.028   0.016  0.00  0.00    -0.050 A 
ATOM     20  C   UNL     1      -0.484  -0.611  -0.628  0.00  0.00    +0.004 A 
ATOM     21  C   UNL     1      -0.622  -1.983  -0.643  0.00  0.00    +0.010 A 
ATOM     22  C   UNL     1       0.327  -2.784  -0.007  0.00  0.00    +0.000 A 
ATOM     23  C   UNL     1       1.411  -2.190   0.640  0.00  0.00    +0.010 A 
ATOM     24  C   UNL     1       1.540  -0.817   0.644  0.00  0.00    +0.004 A 
ENDBRANCH   1  22
BRANCH   8  25
ATOM     25  C   UNL     1       0.509  -4.677   2.470  0.00  0.00    +0.153 C 
BRANCH  25  26
ATOM     26  C   UNL     1      -0.829  -4.474   3.184  0.00  0.00    +0.177 C 
BRANCH  26  27
ATOM     27  O   UNL     1      -1.511  -5.726   3.280  0.00  0.00    -0.393 OA
ATOM     28  H   UNL     1      -2.369  -5.673   3.723  0.00  0.00    +0.209 HD
ENDBRANCH  26  27
ENDBRANCH  25  26
ENDBRANCH   8  25
TORSDOF 4
