REMARK  Name = ZINC08775406
REMARK  10 active torsions:
REMARK  status: ('A' for Active; 'I' for Inactive)
REMARK    1  A    between atoms: C_1  and  C_2
REMARK    2  A    between atoms: C_5  and  C_8
REMARK    3  A    between atoms: C_9  and  C_19
REMARK    4  A    between atoms: N_11  and  C_13
REMARK    5  A    between atoms: C_19  and  N_56
REMARK    6  A    between atoms: C_20  and  C_22
REMARK    7  A    between atoms: C_20  and  C_23
REMARK    8  A    between atoms: C_20  and  N_56
REMARK    9  A    between atoms: C_28  and  O_29
REMARK   10  A    between atoms: O_29  and  C_30
REMARK                            x       y       z     vdW  Elec       q    Type
REMARK                         _______ _______ _______ _____ _____    ______ ____
ROOT
ATOM      1  C   UNL     1      -5.322   1.538   1.592  0.00  0.00    +0.094 A 
ATOM      2  C   UNL     1      -4.399   1.394   0.537  0.00  0.00    -0.019 A 
ATOM      3  C   UNL     1      -4.995   0.678  -0.441  0.00  0.00    +0.116 A 
ATOM      4  N   UNL     1      -6.250   0.367  -0.024  0.00  0.00    -0.239 N 
ATOM      5  N   UNL     1      -6.433   0.919   1.250  0.00  0.00    -0.166 NA
ENDROOT
BRANCH   1  10
ATOM      6  C   UNL     1      -4.399   4.346   6.535  0.00  0.00    +0.044 C 
ATOM      7  C   UNL     1      -4.640   3.611   5.242  0.00  0.00    -0.050 A 
ATOM      8  C   UNL     1      -5.896   3.632   4.662  0.00  0.00    +0.004 A 
ATOM      9  C   UNL     1      -6.123   2.961   3.477  0.00  0.00    +0.010 A 
ATOM     10  C   UNL     1      -5.084   2.262   2.865  0.00  0.00    +0.002 A 
ATOM     11  C   UNL     1      -3.822   2.240   3.457  0.00  0.00    +0.010 A 
ATOM     12  C   UNL     1      -3.606   2.919   4.639  0.00  0.00    +0.004 A 
ENDBRANCH   1  10
BRANCH   4  13
ATOM     13  C   UNL     1      -7.197  -0.372  -0.745  0.00  0.00    +0.065 A 
ATOM     14  C   UNL     1      -6.886  -0.859  -2.007  0.00  0.00    +0.028 A 
ATOM     15  C   UNL     1      -7.820  -1.592  -2.713  0.00  0.00    +0.002 A 
ATOM     16  C   UNL     1      -9.069  -1.831  -2.168  0.00  0.00    +0.000 A 
ATOM     17  C   UNL     1      -9.383  -1.342  -0.913  0.00  0.00    +0.002 A 
ATOM     18  C   UNL     1      -8.451  -0.614  -0.200  0.00  0.00    +0.028 A 
ENDBRANCH   4  13
BRANCH   2  19
ATOM     19  C   UNL     1      -2.997   1.947   0.504  0.00  0.00    -0.042 C 
BRANCH  19  20
ATOM     20  N   UNL     1      -2.110   1.062   1.282  0.00  0.00    +0.386 N 
ATOM     21  H   UNL     1      -2.124   0.121   0.871  0.00  0.00    -0.085 HD
ATOM     22  H   UNL     1      -2.444   1.016   2.252  0.00  0.00    -0.085 HD
BRANCH  20  23
ATOM     23  C   UNL     1      -0.729   1.579   1.267  0.00  0.00    -0.040 C 
ATOM     24  C   UNL     1      -0.013   1.086   0.008  0.00  0.00    -0.009 C 
BRANCH  23  25
ATOM     25  C   UNL     1       0.000   1.080   2.488  0.00  0.00    -0.020 A 
ATOM     26  C   UNL     1      -0.413  -0.080   3.114  0.00  0.00    +0.005 A 
ATOM     27  C   UNL     1       0.258  -0.541   4.231  0.00  0.00    +0.000 A 
ATOM     28  C   UNL     1       1.338   0.163   4.731  0.00  0.00    +0.004 A 
ATOM     29  C   UNL     1       1.752   1.326   4.112  0.00  0.00    +0.046 A 
ATOM     30  C   UNL     1       1.083   1.788   2.987  0.00  0.00    +0.122 A 
BRANCH  30  31
ATOM     31  O   UNL     1       1.489   2.932   2.377  0.00  0.00    -0.495 OA
ATOM     32  C   UNL     1       2.611   3.609   2.946  0.00  0.00    +0.277 C 
ENDBRANCH  30  31
ENDBRANCH  23  25
ENDBRANCH  20  23
ENDBRANCH  19  20
ENDBRANCH   2  19
TORSDOF 7
