REMARK  Name = ZINC04506775
REMARK  7 active torsions:
REMARK  status: ('A' for Active; 'I' for Inactive)
REMARK    1  A    between atoms: C_1  and  C_2
REMARK    2  A    between atoms: C_2  and  C_3
REMARK    3  A    between atoms: C_2  and  N_4
REMARK    4  A    between atoms: C_5  and  C_7
REMARK    5  A    between atoms: C_7  and  C_19
REMARK    6  A    between atoms: C_8  and  C_9
REMARK    7  A    between atoms: C_11  and  N_16
REMARK                            x       y       z     vdW  Elec       q    Type
REMARK                         _______ _______ _______ _____ _____    ______ ____
ROOT
ATOM      1  C   UNL     1       3.640   2.450  -0.124  0.00  0.00    +0.114 C 
ATOM      2  C   UNL     1       2.465   1.743  -0.013  0.00  0.00    +0.033 C 
ENDROOT
BRANCH   2   3
ATOM      3  C   UNL     1       1.180   2.448  -0.034  0.00  0.00    -0.003 A 
ATOM      4  C   UNL     1       1.026   3.610  -0.803  0.00  0.00    +0.042 A 
ATOM      5  C   UNL     1      -0.185   4.266  -0.818  0.00  0.00    +0.127 A 
ATOM      6  C   UNL     1      -1.250   3.781  -0.076  0.00  0.00    +0.034 A 
ATOM      7  C   UNL     1      -1.110   2.632   0.682  0.00  0.00    +0.023 A 
ATOM      8  C   UNL     1       0.097   1.965   0.714  0.00  0.00    +0.048 A 
ATOM      9 CL   UNL     1       0.273   0.527   1.671  0.00  0.00    -0.083 Cl
BRANCH   5  10
ATOM     10  N   UNL     1      -0.349   5.493  -1.629  0.00  0.00    +0.056 N 
ATOM     11  O   UNL     1       0.585   5.921  -2.282  0.00  0.00    -0.126 OA
ATOM     12  O   UNL     1      -1.419   6.075  -1.644  0.00  0.00    -0.126 OA
ENDBRANCH   5  10
ENDBRANCH   2   3
BRANCH   1  14
ATOM     13  N   UNL     1       6.072   2.428  -0.360  0.00  0.00    -0.308 N 
ATOM     14  C   UNL     1       4.921   1.735  -0.252  0.00  0.00    +0.255 C 
ATOM     15  O   UNL     1       4.940   0.519  -0.258  0.00  0.00    -0.269 OA
ATOM     16  H   UNL     1       6.056   3.398  -0.355  0.00  0.00    +0.149 HD
BRANCH  13  18
ATOM     17  C   UNL     1       8.363   2.614  -1.195  0.00  0.00    +0.027 C 
ATOM     18  C   UNL     1       7.346   1.716  -0.487  0.00  0.00    +0.067 C 
ATOM     19  C   UNL     1       7.868   1.353   0.904  0.00  0.00    +0.027 C 
ENDBRANCH  13  18
ENDBRANCH   1  14
BRANCH   1  20
ATOM     20  C   UNL     1       3.618   3.882  -0.116  0.00  0.00    +0.104 C 
ATOM     21  N   UNL     1       3.599   5.018  -0.109  0.00  0.00    -0.191 NA
ENDBRANCH   1  20
TORSDOF 5
