REMARK  Name = ZINC49978845
REMARK  6 active torsions:
REMARK  status: ('A' for Active; 'I' for Inactive)
REMARK    1  A    between atoms: C_1  and  C_2
REMARK    2  A    between atoms: C_7  and  N_8
REMARK    3  A    between atoms: N_8  and  C_9
REMARK    4  A    between atoms: N_8  and  S_10
REMARK    5  A    between atoms: S_10  and  C_13
REMARK    6  A    between atoms: C_18  and  N_19
REMARK                            x       y       z     vdW  Elec       q    Type
REMARK                         _______ _______ _______ _____ _____    ______ ____
ROOT
ATOM      1  S   UNL     1      -1.404   0.482   3.087  0.00  0.00    +0.076 S 
ATOM      2  O   UNL     1      -1.093   1.575   3.940  0.00  0.00    -0.150 OA
ATOM      3  O   UNL     1      -2.338   0.588   2.022  0.00  0.00    -0.150 OA
ENDROOT
BRANCH   1   4
ATOM      4  C   UNL     1      -1.973  -0.822   4.128  0.00  0.00    +0.129 A 
ATOM      5  C   UNL     1      -2.065  -0.627   5.492  0.00  0.00    +0.032 A 
ATOM      6  C   UNL     1      -2.511  -1.649   6.309  0.00  0.00    +0.022 A 
ATOM      7  C   UNL     1      -2.866  -2.870   5.764  0.00  0.00    +0.043 A 
ATOM      8  C   UNL     1      -2.776  -3.072   4.399  0.00  0.00    +0.044 A 
ATOM      9  C   UNL     1      -2.334  -2.044   3.576  0.00  0.00    +0.053 A 
ATOM     10 CL   UNL     1      -3.426  -4.151   6.794  0.00  0.00    -0.083 Cl
BRANCH   9  11
ATOM     11  N   UNL     1      -2.247  -2.242   2.196  0.00  0.00    -0.356 N 
ATOM     12  H   UNL     1      -1.935  -1.525   1.622  0.00  0.00    +0.142 HD
ATOM     13  H   UNL     1      -2.499  -3.096   1.811  0.00  0.00    +0.142 HD
ENDBRANCH   9  11
ENDBRANCH   1   4
BRANCH   1  14
ATOM     14  N   UNL     1       0.025  -0.016   2.415  0.00  0.00    -0.206 N 
ATOM     15  C   UNL     1       1.292   0.266   3.095  0.00  0.00    +0.157 C 
BRANCH  14  22
ATOM     16  C   UNL     1      -0.018   1.503   0.010  0.00  0.00    +0.046 C 
ATOM     17  C   UNL     1       0.002  -0.004   0.002  0.00  0.00    -0.028 A 
ATOM     18  C   UNL     1       0.006  -0.689  -1.198  0.00  0.00    +0.005 A 
ATOM     19  C   UNL     1       0.024  -2.071  -1.206  0.00  0.00    +0.000 A 
ATOM     20  C   UNL     1       0.039  -2.773  -0.014  0.00  0.00    +0.002 A 
ATOM     21  C   UNL     1       0.036  -2.095   1.188  0.00  0.00    +0.025 A 
ATOM     22  C   UNL     1       0.023  -0.706   1.200  0.00  0.00    +0.054 A 
ENDBRANCH  14  22
ENDBRANCH   1  14
TORSDOF 4
