REMARK  Name = ZINC60583041
REMARK  7 active torsions:
REMARK  status: ('A' for Active; 'I' for Inactive)
REMARK    1  A    between atoms: C_1  and  C_2
REMARK    2  A    between atoms: C_2  and  C_3
REMARK    3  A    between atoms: C_2  and  S_15
REMARK    4  A    between atoms: S_15  and  C_16
REMARK    5  A    between atoms: C_17  and  C_25
REMARK    6  A    between atoms: C_19  and  C_23
REMARK    7  A    between atoms: C_20  and  N_22
REMARK                            x       y       z     vdW  Elec       q    Type
REMARK                         _______ _______ _______ _____ _____    ______ ____
ROOT
ATOM      1  C   UNL     1      -0.019   1.526   0.010  0.00  0.00    +0.027 C 
ATOM      2  C   UNL     1       0.002  -0.004   0.002  0.00  0.00    +0.116 C 
ENDROOT
BRANCH   2   3
ATOM      3  C   UNL     1      -1.412  -0.526   0.013  0.00  0.00    +0.123 A 
ATOM      4  N   UNL     1      -1.971  -0.848   1.208  0.00  0.00    -0.309 N 
ATOM      5  H   UNL     1      -1.457  -0.738   2.024  0.00  0.00    +0.170 HD
ATOM      6  C   UNL     1      -3.238  -1.320   1.272  0.00  0.00    +0.259 A 
ATOM      7  O   UNL     1      -3.751  -1.612   2.336  0.00  0.00    -0.267 OA
ATOM      8  C   UNL     1      -3.970  -1.466   0.005  0.00  0.00    +0.065 A 
ATOM      9  C   UNL     1      -5.278  -1.944  -0.040  0.00  0.00    +0.015 A 
ATOM     10  C   UNL     1      -5.917  -2.061  -1.255  0.00  0.00    +0.001 A 
ATOM     11  C   UNL     1      -5.268  -1.708  -2.431  0.00  0.00    +0.002 A 
ATOM     12  C   UNL     1      -3.975  -1.235  -2.409  0.00  0.00    +0.028 A 
ATOM     13  C   UNL     1      -3.307  -1.107  -1.189  0.00  0.00    +0.078 A 
ATOM     14  N   UNL     1      -2.035  -0.639  -1.121  0.00  0.00    -0.233 NA
ENDBRANCH   2   3
BRANCH   2  15
ATOM     15  S   UNL     1       0.879  -0.605   1.472  0.00  0.00    -0.094 S 
BRANCH  15  16
ATOM     16  C   UNL     1       2.533  -0.042   1.241  0.00  0.00    +0.117 A 
ATOM     17  C   UNL     1       3.512  -0.341   2.210  0.00  0.00    +0.085 A 
ATOM     18  C   UNL     1       4.819   0.111   2.017  0.00  0.00    +0.043 A 
ATOM     19  C   UNL     1       5.103   0.844   0.862  0.00  0.00    +0.092 A 
ATOM     20  C   UNL     1       4.069   1.101  -0.059  0.00  0.00    +0.135 A 
ATOM     21  N   UNL     1       2.843   0.652   0.156  0.00  0.00    -0.224 NA
BRANCH  20  22
ATOM     22  N   UNL     1       4.338   1.825  -1.203  0.00  0.00    -0.342 N 
ATOM     23  H   UNL     1       5.236   2.154  -1.369  0.00  0.00    +0.144 HD
ATOM     24  H   UNL     1       3.630   2.005  -1.841  0.00  0.00    +0.144 HD
ENDBRANCH  20  22
BRANCH  19  25
ATOM     25  C   UNL     1       6.428   1.329   0.618  0.00  0.00    +0.103 C 
ATOM     26  N   UNL     1       7.479   1.714   0.424  0.00  0.00    -0.191 NA
ENDBRANCH  19  25
BRANCH  17  27
ATOM     27  C   UNL     1       3.171  -1.096   3.378  0.00  0.00    +0.102 C 
ATOM     28  N   UNL     1       2.900  -1.695   4.304  0.00  0.00    -0.191 NA
ENDBRANCH  17  27
ENDBRANCH  15  16
ENDBRANCH   2  15
TORSDOF 6
