REMARK  Name = ZINC26270447
REMARK  8 active torsions:
REMARK  status: ('A' for Active; 'I' for Inactive)
REMARK    1  A    between atoms: C_15  and  C_17
REMARK    2  A    between atoms: C_17  and  C_19
REMARK    3  A    between atoms: C_17  and  N_26
REMARK    4  A    between atoms: C_19  and  C_20
REMARK    5  A    between atoms: C_29  and  C_34
REMARK    6  A    between atoms: C_34  and  C_35
REMARK    7  A    between atoms: C_35  and  C_36
REMARK    8  A    between atoms: C_36  and  N_37
REMARK                            x       y       z     vdW  Elec       q    Type
REMARK                         _______ _______ _______ _____ _____    ______ ____
ROOT
ATOM      1  C   UNL     1      -1.349   9.775  -1.336  0.00  0.00    +0.172 C 
ENDROOT
BRANCH   1  16
ATOM      2  C   UNL     1       1.200   1.153  -1.043  0.00  0.00    +0.001 A 
ATOM      3  C   UNL     1      -0.034   1.690  -0.719  0.00  0.00    +0.000 A 
ATOM      4  C   UNL     1      -0.188   3.061  -0.609  0.00  0.00    +0.005 A 
ATOM      5  C   UNL     1       0.884   3.893  -0.833  0.00  0.00    -0.030 A 
ATOM      6  C   UNL     1       2.134   3.364  -1.165  0.00  0.00    -0.021 A 
ATOM      7  C   UNL     1       2.281   1.979  -1.269  0.00  0.00    +0.008 A 
ATOM      8  C   UNL     1       3.089   4.473  -1.347  0.00  0.00    +0.005 C 
ATOM      9  C   UNL     1       2.503   5.642  -1.147  0.00  0.00    -0.015 C 
ATOM     10  C   UNL     1       1.056   5.390  -0.802  0.00  0.00    +0.017 C 
ATOM     11  C   UNL     1       0.146   6.047  -1.839  0.00  0.00    +0.034 C 
ATOM     12  C   UNL     1       0.379   7.561  -1.834  0.00  0.00    +0.109 C 
ATOM     13  N   UNL     1       0.206   8.061  -0.463  0.00  0.00    -0.300 N 
ATOM     14  C   UNL     1       0.984   7.442   0.619  0.00  0.00    +0.109 C 
ATOM     15  C   UNL     1       0.746   5.928   0.593  0.00  0.00    +0.034 C 
ATOM     16  C   UNL     1      -0.650   9.069  -0.203  0.00  0.00    +0.237 C 
ATOM     17  O   UNL     1      -0.859   9.407   0.943  0.00  0.00    -0.274 OA
ENDBRANCH   1  16
BRANCH   1  18
ATOM     18  N   UNL     1      -1.859  11.065  -0.866  0.00  0.00    -0.212 N 
ATOM     19  C   UNL     1      -1.417  12.260  -1.307  0.00  0.00    +0.244 C 
ATOM     20  O   UNL     1      -0.554  12.462  -2.134  0.00  0.00    -0.273 OA
ATOM     21  C   UNL     1      -2.223  13.299  -0.552  0.00  0.00    +0.161 C 
ATOM     22  N   UNL     1      -3.109  12.493   0.307  0.00  0.00    -0.288 N 
ATOM     23  C   UNL     1      -2.826  11.204   0.049  0.00  0.00    +0.310 C 
ATOM     24  O   UNL     1      -3.384  10.268   0.589  0.00  0.00    -0.252 OA
ATOM     25  H   UNL     1      -3.819  12.990   0.984  0.00  0.00    +0.151 HD
BRANCH  21  26
ATOM     26  C   UNL     1      -3.041  14.155  -1.521  0.00  0.00    +0.033 C 
BRANCH  26  27
ATOM     27  C   UNL     1      -3.745  15.271  -0.747  0.00  0.00    +0.023 C 
BRANCH  27  28
ATOM     28  C   UNL     1      -4.562  16.127  -1.717  0.00  0.00    +0.115 C 
BRANCH  28  29
ATOM     29  N   UNL     1      -5.237  17.195  -0.975  0.00  0.00    -0.358 N 
ATOM     30  C   UNL     1      -6.034  18.096  -1.641  0.00  0.00    +0.166 C 
ATOM     31  N   UNL     1      -6.634  19.047  -0.981  0.00  0.00    -0.372 N 
ATOM     32  N   UNL     1      -6.199  17.994  -3.002  0.00  0.00    -0.372 N 
ATOM     33  H   UNL     1      -5.105  17.277   0.114  0.00  0.00    +0.162 HD
ATOM     34  H   UNL     1      -7.272  19.767  -1.514  0.00  0.00    +0.159 HD
ATOM     35  H   UNL     1      -6.837  18.715  -3.534  0.00  0.00    +0.159 HD
ATOM     36  H   UNL     1      -5.693  17.192  -3.558  0.00  0.00    +0.159 HD
ATOM     37  H   UNL     1      -6.502  19.128   0.108  0.00  0.00    +0.159 HD
ENDBRANCH  28  29
ENDBRANCH  27  28
ENDBRANCH  26  27
ENDBRANCH  21  26
ENDBRANCH   1  18
BRANCH   1  38
ATOM     38  C   UNL     1      -2.514   8.916  -1.832  0.00  0.00    +0.036 C 
BRANCH  38  39
ATOM     39  C   UNL     1      -3.098   9.533  -3.104  0.00  0.00    -0.009 C 
ATOM     40  C   UNL     1      -3.774  10.862  -2.763  0.00  0.00    +0.003 C 
ATOM     41  C   UNL     1      -4.358  11.479  -4.035  0.00  0.00    +0.000 C 
ATOM     42  C   UNL     1      -5.388  10.523  -4.640  0.00  0.00    +0.000 C 
ATOM     43  C   UNL     1      -4.711   9.194  -4.981  0.00  0.00    +0.000 C 
ATOM     44  C   UNL     1      -4.128   8.577  -3.709  0.00  0.00    +0.003 C 
ENDBRANCH  38  39
ENDBRANCH   1  38
TORSDOF 8
