REMARK  Name = ZINC28049788
REMARK  9 active torsions:
REMARK  status: ('A' for Active; 'I' for Inactive)
REMARK    1  A    between atoms: C_1  and  C_2
REMARK    2  A    between atoms: C_2  and  C_3
REMARK    3  A    between atoms: C_3  and  C_25
REMARK    4  A    between atoms: N_4  and  N_5
REMARK    5  A    between atoms: C_9  and  C_12
REMARK    6  A    between atoms: C_12  and  C_13
REMARK    7  A    between atoms: N_15  and  C_16
REMARK    8  A    between atoms: C_20  and  C_22
REMARK    9  A    between atoms: C_30  and  O_31
REMARK                            x       y       z     vdW  Elec       q    Type
REMARK                         _______ _______ _______ _____ _____    ______ ____
ROOT
ATOM      1  N   UNL     1      -3.513  -0.811   0.021  0.00  0.00    -0.126 NA
ATOM      2  C   UNL     1      -4.665  -0.164   0.041  0.00  0.00    +0.183 C 
ATOM      3  N   UNL     1      -4.877   1.170   0.064  0.00  0.00    -0.263 N 
ATOM      4  C   UNL     1      -6.035   1.714   0.077  0.00  0.00    +0.233 C 
ATOM      5  C   UNL     1      -7.221   0.758   0.080  0.00  0.00    +0.149 C 
ATOM      6  S   UNL     1      -6.319  -0.844   0.052  0.00  0.00    -0.075 S 
ATOM      7  O   UNL     1      -6.195   3.050   0.094  0.00  0.00    -0.274 OA
ATOM      8  H   UNL     1      -4.023   1.863   0.072  0.00  0.00    +0.157 HD
ENDROOT
BRANCH   1  10
ATOM      9  C   UNL     1      -1.264  -0.792  -0.003  0.00  0.00    +0.074 C 
ATOM     10  N   UNL     1      -2.404  -0.152   0.016  0.00  0.00    -0.151 NA
BRANCH   9  11
ATOM     11  C   UNL     1      -0.000  -0.041  -0.009  0.00  0.00    +0.039 A 
ATOM     12  C   UNL     1       1.222  -0.721  -0.030  0.00  0.00    +0.013 A 
ATOM     13  C   UNL     1       2.403  -0.010  -0.035  0.00  0.00    +0.001 A 
ATOM     14  C   UNL     1       2.386   1.374  -0.020  0.00  0.00    +0.004 A 
ATOM     15  C   UNL     1       1.185   2.059   0.001  0.00  0.00    +0.046 A 
ATOM     16  C   UNL     1      -0.012   1.362   0.006  0.00  0.00    +0.126 A 
BRANCH  16  17
ATOM     17  O   UNL     1      -1.192   2.034   0.020  0.00  0.00    -0.506 OA
ATOM     18  H   UNL     1      -1.199   3.134   0.032  0.00  0.00    +0.292 HD
ENDBRANCH  16  17
ENDBRANCH   9  11
BRANCH   9  20
ATOM     19  C   UNL     1      -1.349  -2.825   1.413  0.00  0.00    +0.010 C 
ATOM     20  C   UNL     1      -1.246  -2.298  -0.020  0.00  0.00    +0.054 C 
ENDBRANCH   9  20
ENDBRANCH   1  10
BRANCH   5  21
ATOM     21  C   UNL     1      -8.055   0.907   1.354  0.00  0.00    +0.120 C 
BRANCH  21  22
ATOM     22  C   UNL     1      -9.164  -0.113   1.351  0.00  0.00    +0.219 C 
ATOM     23  O   UNL     1      -9.276  -0.884   0.421  0.00  0.00    -0.275 OA
ATOM     24  N   UNL     1     -10.031  -0.170   2.381  0.00  0.00    -0.285 N 
ATOM     25  H   UNL     1      -9.885   0.477   3.259  0.00  0.00    +0.155 HD
BRANCH  24  26
ATOM     26  C   UNL     1     -11.118  -1.050   2.334  0.00  0.00    +0.034 A 
ATOM     27  C   UNL     1     -10.983  -2.289   1.720  0.00  0.00    +0.025 A 
ATOM     28  C   UNL     1     -12.056  -3.156   1.675  0.00  0.00    +0.022 A 
ATOM     29  C   UNL     1     -13.266  -2.792   2.241  0.00  0.00    +0.044 A 
ATOM     30  C   UNL     1     -13.403  -1.559   2.853  0.00  0.00    -0.030 A 
ATOM     31  C   UNL     1     -12.331  -0.690   2.905  0.00  0.00    +0.028 A 
ATOM     32  C   UNL     1     -14.722  -1.166   3.467  0.00  0.00    +0.045 C 
ATOM     33 CL   UNL     1     -14.614  -3.885   2.183  0.00  0.00    -0.083 Cl
ENDBRANCH  24  26
ENDBRANCH  21  22
ENDBRANCH   5  21
TORSDOF 7
