REMARK  Name = ZINC43676889
REMARK  12 active torsions:
REMARK  status: ('A' for Active; 'I' for Inactive)
REMARK    1  A    between atoms: C_1  and  C_2
REMARK    2  A    between atoms: C_2  and  C_3
REMARK    3  A    between atoms: C_2  and  N_4
REMARK    4  A    between atoms: N_4  and  S_5
REMARK    5  A    between atoms: S_5  and  C_8
REMARK    6  A    between atoms: C_11  and  N_14
REMARK    7  A    between atoms: N_17  and  C_18
REMARK    8  A    between atoms: C_18  and  C_19
REMARK    9  A    between atoms: C_19  and  C_21
REMARK   10  A    between atoms: C_19  and  N_26
REMARK   11  A    between atoms: N_26  and  C_27
REMARK   12  A    between atoms: N_26  and  C_28
REMARK                            x       y       z     vdW  Elec       q    Type
REMARK                         _______ _______ _______ _____ _____    ______ ____
ROOT
ATOM      1  N   UNL     1       0.934  -5.511  -3.804  0.00  0.00    -0.269 N 
ATOM      2  C   UNL     1       0.632  -6.749  -3.366  0.00  0.00    +0.304 C 
ATOM      3  O   UNL     1      -0.271  -6.908  -2.568  0.00  0.00    -0.253 OA
ATOM      4  N   UNL     1       1.330  -7.812  -3.814  0.00  0.00    -0.300 N 
ATOM      5  H   UNL     1       1.605  -5.391  -4.495  0.00  0.00    +0.156 HD
ATOM      6  H   UNL     1       2.051  -7.685  -4.451  0.00  0.00    +0.150 HD
ENDROOT
BRANCH   1  10
ATOM      7  C   UNL     1      -1.009  -2.198  -2.190  0.00  0.00    +0.105 A 
ATOM      8  C   UNL     1      -0.752  -3.301  -1.397  0.00  0.00    +0.030 A 
ATOM      9  C   UNL     1      -0.108  -4.401  -1.929  0.00  0.00    +0.025 A 
ATOM     10  C   UNL     1       0.281  -4.398  -3.262  0.00  0.00    +0.035 A 
ATOM     11  C   UNL     1       0.022  -3.289  -4.055  0.00  0.00    +0.025 A 
ATOM     12  C   UNL     1      -0.627  -2.194  -3.519  0.00  0.00    +0.030 A 
BRANCH   7  13
ATOM     13  S   UNL     1      -1.830  -0.797  -1.507  0.00  0.00    +0.059 S 
ATOM     14  O   UNL     1      -1.471   0.317  -2.312  0.00  0.00    -0.153 OA
ATOM     15  O   UNL     1      -1.596  -0.831  -0.106  0.00  0.00    -0.153 OA
BRANCH  13  16
ATOM     16  N   UNL     1      -3.456  -1.030  -1.720  0.00  0.00    -0.187 NA
ATOM     17  H   UNL     1      -3.959  -0.436  -2.299  0.00  0.00    +0.148 HD
BRANCH  16  19
ATOM     18  C   UNL     1      -4.749  -1.622   0.269  0.00  0.00    +0.025 C 
ATOM     19  C   UNL     1      -4.134  -2.133  -1.035  0.00  0.00    +0.070 C 
ATOM     20  C   UNL     1      -5.238  -2.692  -1.935  0.00  0.00    +0.025 C 
ENDBRANCH  16  19
ENDBRANCH  13  16
ENDBRANCH   7  13
ENDBRANCH   1  10
BRANCH   4  21
ATOM     21  C   UNL     1       1.001  -9.158  -3.338  0.00  0.00    +0.098 C 
BRANCH  21  22
ATOM     22  C   UNL     1       2.002 -10.161  -3.916  0.00  0.00    +0.016 C 
BRANCH  22  23
ATOM     23  C   UNL     1       3.378  -9.865  -3.377  0.00  0.00    +0.093 A 
ATOM     24  C   UNL     1       3.986 -10.518  -2.370  0.00  0.00    +0.043 A 
ATOM     25  C   UNL     1       5.253  -9.915  -2.198  0.00  0.00    +0.041 A 
ATOM     26  C   UNL     1       5.344  -8.931  -3.109  0.00  0.00    +0.195 A 
ATOM     27  O   UNL     1       4.207  -8.908  -3.825  0.00  0.00    -0.469 OA
ENDBRANCH  22  23
BRANCH  22  28
ATOM     28  N   UNL     1       2.015 -10.052  -5.381  0.00  0.00    +0.384 N 
ATOM     29  C   UNL     1       2.948 -11.040  -5.937  0.00  0.00    -0.096 C 
ATOM     30  C   UNL     1       0.666 -10.304  -5.903  0.00  0.00    -0.096 C 
ATOM     31  H   UNL     1       2.311  -9.124  -5.646  0.00  0.00    -0.082 HD
ENDBRANCH  22  28
ENDBRANCH  21  22
ENDBRANCH   4  21
TORSDOF 8
