REMARK  Name = ZINC14165151
REMARK  9 active torsions:
REMARK  status: ('A' for Active; 'I' for Inactive)
REMARK    1  A    between atoms: C_1  and  C_2
REMARK    2  A    between atoms: C_7  and  C_21
REMARK    3  A    between atoms: C_12  and  S_14
REMARK    4  A    between atoms: S_14  and  C_15
REMARK    5  A    between atoms: C_15  and  C_16
REMARK    6  A    between atoms: C_16  and  O_18
REMARK    7  A    between atoms: O_18  and  C_19
REMARK    8  A    between atoms: C_24  and  S_27
REMARK    9  A    between atoms: S_27  and  C_28
REMARK                            x       y       z     vdW  Elec       q    Type
REMARK                         _______ _______ _______ _____ _____    ______ ____
ROOT
ATOM      1  C   UNL     1       3.688   2.146   0.591  0.00  0.00    +0.008 C 
ATOM      2  C   UNL     1       2.363   1.383   0.670  0.00  0.00    -0.001 C 
ATOM      3  C   UNL     1       2.490   0.051  -0.073  0.00  0.00    +0.055 C 
ATOM      4  C   UNL     1       1.170  -0.681  -0.034  0.00  0.00    +0.020 C 
ATOM      5  C   UNL     1       0.002  -0.004   0.002  0.00  0.00    +0.041 C 
ATOM      6  C   UNL     1      -1.336  -0.710   0.036  0.00  0.00    +0.175 C 
ATOM      7  N   UNL     1      -1.165  -2.118  -0.298  0.00  0.00    -0.220 N 
ATOM      8  C   UNL     1       0.040  -2.739  -0.324  0.00  0.00    +0.219 A 
ATOM      9  N   UNL     1      -0.153  -3.988  -0.649  0.00  0.00    -0.187 NA
ATOM     10  C   UNL     1      -1.463  -4.203  -0.843  0.00  0.00    +0.211 A 
ATOM     11  N   UNL     1      -2.116  -3.079  -0.639  0.00  0.00    -0.141 NA
ATOM     12  N   UNL     1       1.211  -2.054  -0.042  0.00  0.00    -0.287 N 
ATOM     13  C   UNL     1      -0.017   1.403   0.010  0.00  0.00    +0.163 C 
ATOM     14  O   UNL     1      -1.085   1.982   0.018  0.00  0.00    -0.292 OA
ATOM     15  C   UNL     1       1.255   2.204   0.002  0.00  0.00    +0.083 C 
ATOM     16  H   UNL     1       2.035  -2.531   0.144  0.00  0.00    +0.155 HD
ENDROOT
BRANCH   6  17
ATOM     17  C   UNL     1      -1.928  -0.592   1.417  0.00  0.00    -0.018 A 
ATOM     18  C   UNL     1      -1.251  -1.111   2.505  0.00  0.00    +0.007 A 
ATOM     19  C   UNL     1      -1.788  -1.000   3.772  0.00  0.00    +0.015 A 
ATOM     20  C   UNL     1      -3.016  -0.375   3.952  0.00  0.00    +0.008 A 
ATOM     21  C   UNL     1      -3.697   0.141   2.855  0.00  0.00    +0.015 A 
ATOM     22  C   UNL     1      -3.151   0.031   1.592  0.00  0.00    +0.007 A 
BRANCH  20  23
ATOM     23  S   UNL     1      -3.709  -0.236   5.566  0.00  0.00    -0.129 S 
ATOM     24  C   UNL     1      -2.485  -1.037   6.639  0.00  0.00    +0.090 C 
ENDBRANCH  20  23
ENDBRANCH   6  17
BRANCH  10  25
ATOM     25  S   UNL     1      -2.191  -5.742  -1.297  0.00  0.00    -0.073 S 
BRANCH  25  26
ATOM     26  C   UNL     1      -0.779  -6.875  -1.422  0.00  0.00    +0.197 C 
BRANCH  26  27
ATOM     27  C   UNL     1      -1.269  -8.246  -1.810  0.00  0.00    +0.317 C 
ATOM     28  O   UNL     1      -2.449  -8.439  -1.984  0.00  0.00    -0.250 OA
BRANCH  27  29
ATOM     29  O   UNL     1      -0.394  -9.253  -1.962  0.00  0.00    -0.467 OA
ATOM     30  C   UNL     1      -0.937 -10.546  -2.337  0.00  0.00    +0.280 C 
ENDBRANCH  27  29
ENDBRANCH  26  27
ENDBRANCH  25  26
ENDBRANCH  10  25
TORSDOF 6
