REMARK  Name = ZINC08791220
REMARK  4 active torsions:
REMARK  status: ('A' for Active; 'I' for Inactive)
REMARK    1  A    between atoms: C_4  and  C_7
REMARK    2  A    between atoms: C_7  and  N_8
REMARK    3  A    between atoms: C_13  and  C_30
REMARK    4  A    between atoms: C_30  and  C_31
REMARK                            x       y       z     vdW  Elec       q    Type
REMARK                         _______ _______ _______ _____ _____    ______ ____
ROOT
ATOM      1  N   UNL     1       6.625   1.730  -0.535  0.00  0.00    -0.237 N 
ATOM      2  C   UNL     1       6.159   2.948  -0.237  0.00  0.00    +0.224 C 
ATOM      3  O   UNL     1       6.123   3.432   0.874  0.00  0.00    -0.275 OA
ATOM      4  C   UNL     1       5.683   3.627  -1.501  0.00  0.00    +0.073 C 
ATOM      5  C   UNL     1       4.147   3.775  -1.454  0.00  0.00    -0.053 C 
ATOM      6  C   UNL     1       4.551   2.165  -3.098  0.00  0.00    +0.050 C 
ATOM      7  C   UNL     1       5.947   2.562  -2.602  0.00  0.00    +0.088 C 
ATOM      8  C   UNL     1       6.556   1.411  -1.832  0.00  0.00    +0.225 C 
ATOM      9  O   UNL     1       6.925   0.362  -2.316  0.00  0.00    -0.275 OA
ATOM     10  C   UNL     1       4.487   0.708  -3.456  0.00  0.00    -0.026 A 
ATOM     11  C   UNL     1       4.704  -0.453  -2.747  0.00  0.00    +0.004 A 
ATOM     12  C   UNL     1       4.565  -1.681  -3.369  0.00  0.00    +0.002 A 
ATOM     13  C   UNL     1       4.208  -1.741  -4.703  0.00  0.00    +0.022 A 
ATOM     14  C   UNL     1       3.988  -0.580  -5.418  0.00  0.00    +0.062 A 
ATOM     15  C   UNL     1       4.125   0.661  -4.798  0.00  0.00    +0.054 A 
ATOM     16  N   UNL     1       3.959   1.955  -5.300  0.00  0.00    -0.285 N 
ATOM     17  C   UNL     1       4.191   2.895  -4.364  0.00  0.00    +0.211 C 
ATOM     18  O   UNL     1       4.123   4.097  -4.512  0.00  0.00    -0.277 OA
ATOM     19 CL   UNL     1       3.538  -0.667  -7.092  0.00  0.00    -0.082 Cl
ATOM     20  H   UNL     1       3.706   2.152  -6.215  0.00  0.00    +0.155 HD
ATOM     21  N   UNL     1       3.650   2.517  -2.014  0.00  0.00    +0.394 N 
ATOM     22  H   UNL     1       2.695   2.640  -2.371  0.00  0.00    -0.083 HD
ATOM     23  H   UNL     1       3.655   1.782  -1.296  0.00  0.00    -0.083 HD
ENDROOT
BRANCH   1  24
ATOM     24  C   UNL     1       7.165   0.819   0.477  0.00  0.00    +0.151 C 
BRANCH  24  28
ATOM     25  C   UNL     1      11.366   1.477   0.888  0.00  0.00    +0.000 A 
ATOM     26  C   UNL     1      10.475   2.188   1.671  0.00  0.00    +0.000 A 
ATOM     27  C   UNL     1       9.116   1.975   1.537  0.00  0.00    +0.005 A 
ATOM     28  C   UNL     1       8.647   1.051   0.622  0.00  0.00    -0.030 A 
ATOM     29  C   UNL     1       9.538   0.336  -0.156  0.00  0.00    +0.005 A 
ATOM     30  C   UNL     1      10.898   0.553  -0.026  0.00  0.00    +0.000 A 
ENDBRANCH  24  28
ENDBRANCH   1  24
BRANCH   5  31
ATOM     31  C   UNL     1       3.676   3.969  -0.011  0.00  0.00    +0.022 C 
BRANCH  31  32
ATOM     32  C   UNL     1       2.186   4.197   0.004  0.00  0.00    -0.024 A 
ATOM     33  C   UNL     1       1.560   5.385   0.016  0.00  0.00    +0.087 A 
ATOM     34  N   UNL     1       0.205   5.198   0.028  0.00  0.00    -0.360 N 
ATOM     35  H   UNL     1      -0.455   5.909   0.038  0.00  0.00    +0.165 HD
ATOM     36  C   UNL     1      -0.082   3.852   0.024  0.00  0.00    +0.047 A 
ATOM     37  C   UNL     1       1.147   3.166   0.008  0.00  0.00    +0.003 A 
ATOM     38  C   UNL     1       1.165   1.770   0.000  0.00  0.00    +0.010 A 
ATOM     39  C   UNL     1      -0.013   1.076   0.008  0.00  0.00    +0.001 A 
ATOM     40  C   UNL     1      -1.227   1.748   0.017  0.00  0.00    +0.002 A 
ATOM     41  C   UNL     1      -1.268   3.125   0.031  0.00  0.00    +0.026 A 
ENDBRANCH  31  32
ENDBRANCH   5  31
TORSDOF 4
