REMARK  Name = ZINC40302375
REMARK  7 active torsions:
REMARK  status: ('A' for Active; 'I' for Inactive)
REMARK    1  A    between atoms: C_1  and  C_2
REMARK    2  A    between atoms: C_2  and  C_4
REMARK    3  A    between atoms: C_2  and  N_7
REMARK    4  A    between atoms: C_4  and  C_5
REMARK    5  A    between atoms: C_4  and  C_6
REMARK    6  A    between atoms: C_8  and  C_10
REMARK    7  A    between atoms: C_14  and  N_19
REMARK                            x       y       z     vdW  Elec       q    Type
REMARK                         _______ _______ _______ _____ _____    ______ ____
ROOT
ATOM      1  C   UNL     1       0.762  -1.120   3.546  0.00  0.00    +0.190 A 
ATOM      2  C   UNL     1       0.201  -1.309   4.769  0.00  0.00    +0.063 A 
ATOM      3  C   UNL     1       1.273  -1.797   5.636  0.00  0.00    +0.023 A 
ATOM      4  C   UNL     1       1.342  -2.170   6.980  0.00  0.00    +0.034 A 
ATOM      5  C   UNL     1       2.545  -2.600   7.507  0.00  0.00    +0.025 A 
ATOM      6  C   UNL     1       3.681  -2.660   6.701  0.00  0.00    +0.026 A 
ATOM      7  C   UNL     1       3.622  -2.294   5.375  0.00  0.00    +0.048 A 
ATOM      8  C   UNL     1       2.421  -1.859   4.825  0.00  0.00    +0.136 A 
ATOM      9  O   UNL     1       2.069  -1.453   3.588  0.00  0.00    -0.450 OA
ENDROOT
BRANCH   1  11
ATOM     10  N   UNL     1       0.711  -0.489   1.189  0.00  0.00    -0.306 N 
ATOM     11  C   UNL     1       0.051  -0.633   2.355  0.00  0.00    +0.280 C 
ATOM     12  O   UNL     1      -1.132  -0.360   2.423  0.00  0.00    -0.267 OA
ATOM     13  H   UNL     1       1.654  -0.707   1.135  0.00  0.00    +0.149 HD
BRANCH  10  15
ATOM     14  C   UNL     1      -0.019   1.526   0.010  0.00  0.00    +0.028 C 
ATOM     15  C   UNL     1       0.002  -0.004   0.002  0.00  0.00    +0.073 C 
BRANCH  15  16
ATOM     16  C   UNL     1       0.718  -0.497  -1.257  0.00  0.00    +0.003 C 
ATOM     17  C   UNL     1      -0.022   0.009  -2.496  0.00  0.00    +0.009 C 
ATOM     18  C   UNL     1       2.154   0.032  -1.268  0.00  0.00    +0.009 C 
ENDBRANCH  15  16
ENDBRANCH  10  15
ENDBRANCH   1  11
BRANCH   5  19
ATOM     19  N   UNL     1       2.624  -2.975   8.853  0.00  0.00    -0.358 N 
ATOM     20  H   UNL     1       1.834  -2.933   9.415  0.00  0.00    +0.142 HD
ATOM     21  H   UNL     1       3.468  -3.276   9.224  0.00  0.00    +0.142 HD
ENDBRANCH   5  19
TORSDOF 4
