REMARK  Name = ZINC60238463
REMARK  4 active torsions:
REMARK  status: ('A' for Active; 'I' for Inactive)
REMARK    1  A    between atoms: N_9  and  C_12
REMARK    2  A    between atoms: C_12  and  C_13
REMARK    3  A    between atoms: N_15  and  C_16
REMARK    4  A    between atoms: C_20  and  C_22
REMARK                            x       y       z     vdW  Elec       q    Type
REMARK                         _______ _______ _______ _____ _____    ______ ____
ROOT
ATOM      1  C   UNL     1       2.702  -4.656  -1.470  0.00  0.00    +0.239 C 
ATOM      2  O   UNL     1       2.609  -3.867  -2.387  0.00  0.00    -0.273 OA
ATOM      3  N   UNL     1       2.829  -5.973  -1.725  0.00  0.00    -0.284 N 
ATOM      4  H   UNL     1       2.970  -6.597  -0.996  0.00  0.00    +0.155 HD
ENDROOT
BRANCH   3   5
ATOM      5  C   UNL     1       2.755  -6.441  -3.042  0.00  0.00    +0.034 A 
ATOM      6  C   UNL     1       2.166  -7.671  -3.311  0.00  0.00    +0.023 A 
ATOM      7  C   UNL     1       2.091  -8.136  -4.609  0.00  0.00    +0.002 A 
ATOM      8  C   UNL     1       2.602  -7.383  -5.648  0.00  0.00    +0.010 A 
ATOM      9  C   UNL     1       3.195  -6.149  -5.387  0.00  0.00    +0.004 A 
ATOM     10  C   UNL     1       3.265  -5.676  -4.079  0.00  0.00    +0.033 A 
BRANCH   9  11
ATOM     11  C   UNL     1       3.745  -5.338  -6.502  0.00  0.00    +0.091 A 
ATOM     12  C   UNL     1       3.661  -5.818  -7.830  0.00  0.00    +0.035 A 
ATOM     13  C   UNL     1       4.177  -5.046  -8.828  0.00  0.00    +0.073 A 
ATOM     14  C   UNL     1       4.766  -3.811  -8.473  0.00  0.00    +0.265 A 
ATOM     15  O   UNL     1       5.240  -3.087  -9.333  0.00  0.00    -0.266 OA
ATOM     16  N   UNL     1       4.798  -3.440  -7.179  0.00  0.00    -0.243 N 
ATOM     17  H   UNL     1       5.203  -2.592  -6.942  0.00  0.00    +0.192 HD
ATOM     18  N   UNL     1       4.303  -4.177  -6.252  0.00  0.00    -0.171 NA
ENDBRANCH   9  11
ENDBRANCH   3   5
BRANCH   1  19
ATOM     19  C   UNL     1       2.677  -4.163  -0.046  0.00  0.00    +0.245 C 
BRANCH  19  28
ATOM     20  C   UNL     1      -0.025   1.366   0.026  0.00  0.00    +0.001 A 
ATOM     21  C   UNL     1       1.159   2.091   0.010  0.00  0.00    +0.002 A 
ATOM     22  C   UNL     1       2.377   1.451  -0.014  0.00  0.00    +0.030 A 
ATOM     23  C   UNL     1       2.427   0.055  -0.022  0.00  0.00    +0.100 A 
ATOM     24  C   UNL     1       1.220  -0.679  -0.005  0.00  0.00    +0.068 A 
ATOM     25  C   UNL     1      -0.003  -0.011   0.019  0.00  0.00    +0.015 A 
ATOM     26  C   UNL     1       1.299  -2.148  -0.013  0.00  0.00    +0.278 A 
ATOM     27  O   UNL     1       0.294  -2.835   0.000  0.00  0.00    -0.265 OA
ATOM     28  N   UNL     1       2.533  -2.705  -0.037  0.00  0.00    -0.201 N 
ATOM     29  N   UNL     1       3.669  -1.891  -0.052  0.00  0.00    -0.062 NA
ATOM     30  N   UNL     1       3.609  -0.609  -0.045  0.00  0.00    -0.131 NA
ENDBRANCH  19  28
ENDBRANCH   1  19
TORSDOF 4
