REMARK  Name = ZINC36514271
REMARK  18 active torsions:
REMARK  status: ('A' for Active; 'I' for Inactive)
REMARK    1  A    between atoms: C_1  and  C_2
REMARK    2  A    between atoms: C_2  and  C_3
REMARK    3  A    between atoms: C_3  and  C_4
REMARK    4  A    between atoms: C_4  and  C_5
REMARK    5  A    between atoms: C_5  and  C_6
REMARK    6  A    between atoms: C_6  and  N_7
REMARK    7  A    between atoms: N_7  and  C_8
REMARK    8  A    between atoms: C_8  and  C_10
REMARK    9  A    between atoms: C_8  and  C_19
REMARK   10  A    between atoms: C_11  and  O_18
REMARK   11  A    between atoms: C_13  and  O_17
REMARK   12  A    between atoms: C_15  and  O_16
REMARK   13  A    between atoms: N_21  and  C_22
REMARK   14  A    between atoms: C_22  and  C_23
REMARK   15  A    between atoms: C_23  and  C_24
REMARK   16  A    between atoms: C_24  and  C_25
REMARK   17  A    between atoms: C_26  and  C_28
REMARK   18  A    between atoms: C_31  and  O_34
REMARK                            x       y       z     vdW  Elec       q    Type
REMARK                         _______ _______ _______ _____ _____    ______ ____
ROOT
ATOM      1  C   UNL     1      -4.882  -3.645  -1.105  0.00  0.00    +0.199 C 
ENDROOT
BRANCH   1   2
ATOM      2  C   UNL     1      -5.079  -5.056  -1.596  0.00  0.00    +0.065 A 
ATOM      3  C   UNL     1      -6.222  -5.390  -2.306  0.00  0.00    +0.129 A 
ATOM      4  C   UNL     1      -6.404  -6.688  -2.758  0.00  0.00    +0.091 A 
ATOM      5  C   UNL     1      -5.441  -7.653  -2.499  0.00  0.00    +0.124 A 
ATOM      6  C   UNL     1      -4.298  -7.319  -1.789  0.00  0.00    +0.091 A 
ATOM      7  C   UNL     1      -4.115  -6.019  -1.341  0.00  0.00    +0.129 A 
BRANCH   7   8
ATOM      8  O   UNL     1      -2.992  -5.691  -0.649  0.00  0.00    -0.506 OA
ATOM      9  H   UNL     1      -3.073  -5.802   0.308  0.00  0.00    +0.292 HD
ENDBRANCH   7   8
BRANCH   3  10
ATOM     10  O   UNL     1      -7.165  -4.444  -2.560  0.00  0.00    -0.506 OA
ATOM     11  H   UNL     1      -7.056  -3.999  -3.412  0.00  0.00    +0.292 HD
ENDBRANCH   3  10
BRANCH   5  12
ATOM     12  O   UNL     1      -5.620  -8.926  -2.940  0.00  0.00    -0.507 OA
ATOM     13  H   UNL     1      -5.262  -9.089  -3.824  0.00  0.00    +0.292 HD
ENDBRANCH   5  12
ENDBRANCH   1   2
BRANCH   1  14
ATOM     14  C   UNL     1      -4.750  -2.716  -2.285  0.00  0.00    +0.238 C 
ATOM     15  O   UNL     1      -3.652  -2.440  -2.719  0.00  0.00    -0.273 OA
ATOM     16  N   UNL     1      -5.852  -2.194  -2.858  0.00  0.00    -0.313 N 
ATOM     17  H   UNL     1      -6.731  -2.415  -2.511  0.00  0.00    +0.149 HD
BRANCH  16  18
ATOM     18  C   UNL     1      -5.724  -1.292  -4.005  0.00  0.00    +0.104 C 
BRANCH  18  19
ATOM     19  C   UNL     1      -7.114  -0.844  -4.461  0.00  0.00    +0.018 C 
BRANCH  19  20
ATOM     20  C   UNL     1      -6.980   0.098  -5.659  0.00  0.00    -0.002 C 
ATOM     21  C   UNL     1      -8.370   0.545  -6.114  0.00  0.00    +0.004 C 
ENDBRANCH  19  20
ENDBRANCH  18  19
ENDBRANCH  16  18
ENDBRANCH   1  14
BRANCH   1  22
ATOM     22  N   UNL     1      -3.667  -3.576  -0.291  0.00  0.00    -0.282 N 
ATOM     23  C   UNL     1      -3.758  -3.505   1.052  0.00  0.00    +0.247 C 
ATOM     24  O   UNL     1      -2.749  -3.513   1.731  0.00  0.00    -0.270 OA
BRANCH  23  25
ATOM     25  C   UNL     1      -5.082  -3.417   1.698  0.00  0.00    +0.037 A 
ATOM     26  C   UNL     1      -6.161  -4.142   1.186  0.00  0.00    +0.016 A 
ATOM     27  C   UNL     1      -7.395  -4.057   1.792  0.00  0.00    +0.046 A 
ATOM     28  C   UNL     1      -7.567  -3.251   2.911  0.00  0.00    +0.117 A 
ATOM     29  C   UNL     1      -6.497  -2.529   3.424  0.00  0.00    +0.046 A 
ATOM     30  C   UNL     1      -5.258  -2.612   2.827  0.00  0.00    +0.016 A 
BRANCH  28  31
ATOM     31  O   UNL     1      -8.785  -3.170   3.505  0.00  0.00    -0.507 OA
ATOM     32  H   UNL     1      -8.929  -3.827   4.199  0.00  0.00    +0.292 HD
ENDBRANCH  28  31
ENDBRANCH  23  25
BRANCH  22  33
ATOM     33  C   UNL     1      -2.351  -3.584  -0.936  0.00  0.00    +0.109 C 
BRANCH  33  34
ATOM     34  C   UNL     1      -1.722  -2.193  -0.830  0.00  0.00    +0.019 C 
BRANCH  34  35
ATOM     35  C   UNL     1      -0.382  -2.182  -1.569  0.00  0.00    +0.002 C 
BRANCH  35  36
ATOM     36  C   UNL     1       0.247  -0.792  -1.463  0.00  0.00    -0.000 C 
BRANCH  36  38
ATOM     37  C   UNL     1       2.216   0.610  -2.095  0.00  0.00    +0.004 C 
ATOM     38  C   UNL     1       1.587  -0.780  -2.201  0.00  0.00    -0.003 C 
ENDBRANCH  36  38
ENDBRANCH  35  36
ENDBRANCH  34  35
ENDBRANCH  33  34
ENDBRANCH  22  33
ENDBRANCH   1  22
TORSDOF 16
