REMARK  Name = ZINC65594446
REMARK  5 active torsions:
REMARK  status: ('A' for Active; 'I' for Inactive)
REMARK    1  A    between atoms: C_1  and  C_2
REMARK    2  A    between atoms: C_4  and  N_8
REMARK    3  A    between atoms: N_5  and  C_7
REMARK    4  A    between atoms: C_9  and  C_11
REMARK    5  A    between atoms: C_14  and  C_16
REMARK                            x       y       z     vdW  Elec       q    Type
REMARK                         _______ _______ _______ _____ _____    ______ ____
ROOT
ATOM      1  N   UNL     1       0.040  -3.240  -1.543  0.00  0.00    -0.270 N 
ATOM      2  C   UNL     1       0.031  -3.097  -2.883  0.00  0.00    +0.222 C 
ATOM      3  O   UNL     1       0.014  -1.988  -3.375  0.00  0.00    -0.275 OA
ATOM      4  H   UNL     1       0.054  -4.126  -1.150  0.00  0.00    +0.156 HD
ENDROOT
BRANCH   1   8
ATOM      5  C   UNL     1      -0.018   1.503   0.010  0.00  0.00    +0.067 C 
ATOM      6  C   UNL     1       0.002  -0.004   0.002  0.00  0.00    +0.062 A 
ATOM      7  C   UNL     1       0.008  -0.816  -1.135  0.00  0.00    +0.068 A 
ATOM      8  C   UNL     1       0.028  -2.113  -0.722  0.00  0.00    +0.123 A 
ATOM      9  N   UNL     1       0.035  -2.110   0.631  0.00  0.00    -0.253 N 
ATOM     10  N   UNL     1       0.023  -0.776   1.058  0.00  0.00    -0.175 NA
ATOM     11  C   UNL     1       0.056  -3.292   1.496  0.00  0.00    +0.174 C 
ENDBRANCH   1   8
BRANCH   2  12
ATOM     12  C   UNL     1       0.044  -4.314  -3.771  0.00  0.00    +0.083 C 
ATOM     13  C   UNL     1       1.308  -4.578  -4.591  0.00  0.00    +0.022 C 
ATOM     14  C   UNL     1       0.035  -4.086  -5.284  0.00  0.00    +0.033 C 
BRANCH  14  15
ATOM     15  C   UNL     1       0.015  -2.661  -5.772  0.00  0.00    -0.030 A 
ATOM     16  C   UNL     1       1.045  -1.801  -5.439  0.00  0.00    +0.005 A 
ATOM     17  C   UNL     1       1.027  -0.494  -5.887  0.00  0.00    +0.000 A 
ATOM     18  C   UNL     1      -0.021  -0.045  -6.669  0.00  0.00    +0.001 A 
ATOM     19  C   UNL     1      -1.051  -0.904  -7.003  0.00  0.00    +0.015 A 
ATOM     20  C   UNL     1      -1.031  -2.214  -6.559  0.00  0.00    +0.021 A 
ATOM     21 BR   UNL     1      -2.436  -3.391  -7.022  0.00  0.00    -0.050 Br
ENDBRANCH  14  15
ENDBRANCH   2  12
TORSDOF 3
