REMARK  Name = ZINC47929337
REMARK  6 active torsions:
REMARK  status: ('A' for Active; 'I' for Inactive)
REMARK    1  A    between atoms: C_1  and  C_2
REMARK    2  A    between atoms: C_5  and  O_9
REMARK    3  A    between atoms: C_7  and  C_8
REMARK    4  A    between atoms: O_9  and  C_10
REMARK    5  A    between atoms: C_10  and  C_11
REMARK    6  A    between atoms: N_13  and  C_14
REMARK                            x       y       z     vdW  Elec       q    Type
REMARK                         _______ _______ _______ _____ _____    ______ ____
ROOT
ATOM      1  C   UNL     1      -0.090  -6.281  -1.111  0.00  0.00    +0.255 C 
ATOM      2  O   UNL     1      -0.230  -6.766  -0.008  0.00  0.00    -0.272 OA
ATOM      3  N   UNL     1       0.084  -7.081  -2.182  0.00  0.00    -0.279 N 
ATOM      4  H   UNL     1       0.123  -6.698  -3.072  0.00  0.00    +0.155 HD
ENDROOT
BRANCH   3   5
ATOM      5  C   UNL     1       0.209  -8.468  -2.009  0.00  0.00    +0.097 A 
ATOM      6  C   UNL     1      -0.657  -9.317  -2.617  0.00  0.00    +0.110 A 
ATOM      7  N   UNL     1      -0.539 -10.660  -2.451  0.00  0.00    -0.365 N 
ATOM      8  C   UNL     1       0.438 -11.195  -1.680  0.00  0.00    +0.086 A 
ATOM      9  C   UNL     1       1.332 -10.403  -1.047  0.00  0.00    +0.070 A 
ATOM     10  C   UNL     1       1.246  -9.001  -1.200  0.00  0.00    +0.203 A 
ATOM     11  O   UNL     1       2.045  -8.262  -0.642  0.00  0.00    -0.286 OA
ATOM     12  H   UNL     1      -1.169 -11.249  -2.895  0.00  0.00    +0.165 HD
ENDBRANCH   3   5
BRANCH   1  13
ATOM     13  C   UNL     1      -0.112  -4.784  -1.284  0.00  0.00    +0.324 C 
BRANCH  13  14
ATOM     14  O   UNL     1      -0.308  -4.161  -0.013  0.00  0.00    -0.483 OA
BRANCH  14  19
ATOM     15  C   UNL     1      -0.493   1.468   0.072  0.00  0.00    +0.044 C 
ATOM     16  C   UNL     1      -0.443  -0.038   0.050  0.00  0.00    -0.047 A 
ATOM     17  C   UNL     1      -0.255  -0.705  -1.147  0.00  0.00    +0.007 A 
ATOM     18  C   UNL     1      -0.209  -2.085  -1.171  0.00  0.00    +0.046 A 
ATOM     19  C   UNL     1      -0.352  -2.803   0.008  0.00  0.00    +0.121 A 
ATOM     20  C   UNL     1      -0.541  -2.132   1.207  0.00  0.00    +0.049 A 
ATOM     21  C   UNL     1      -0.581  -0.751   1.226  0.00  0.00    -0.044 A 
ATOM     22  C   UNL     1      -0.780  -0.021   2.530  0.00  0.00    +0.044 C 
ENDBRANCH  14  19
ENDBRANCH  13  14
ENDBRANCH   1  13
TORSDOF 4
