REMARK  Name = ZINC04981759
REMARK  7 active torsions:
REMARK  status: ('A' for Active; 'I' for Inactive)
REMARK    1  A    between atoms: C_3  and  C_24
REMARK    2  A    between atoms: C_4  and  N_21
REMARK    3  A    between atoms: C_6  and  N_7
REMARK    4  A    between atoms: N_7  and  C_8
REMARK    5  A    between atoms: C_10  and  O_20
REMARK    6  A    between atoms: C_12  and  O_19
REMARK    7  A    between atoms: C_14  and  O_18
REMARK                            x       y       z     vdW  Elec       q    Type
REMARK                         _______ _______ _______ _____ _____    ______ ____
ROOT
ATOM      1  N   UNL     1      -1.858  -0.135  -3.697  0.00  0.00    -0.317 N 
ATOM      2  H   UNL     1      -2.244   0.755  -3.696  0.00  0.00    +0.149 HD
ENDROOT
BRANCH   1   8
ATOM      3  C   UNL     1      -1.438  -2.223  -4.822  0.00  0.00    +0.024 A 
ATOM      4  C   UNL     1      -1.485  -2.992  -5.963  0.00  0.00    +0.019 A 
ATOM      5  C   UNL     1      -2.001  -2.452  -7.145  0.00  0.00    +0.093 A 
ATOM      6  C   UNL     1      -2.467  -1.133  -7.162  0.00  0.00    +0.142 A 
ATOM      7  C   UNL     1      -2.424  -0.378  -6.026  0.00  0.00    +0.056 A 
ATOM      8  C   UNL     1      -1.905  -0.911  -4.849  0.00  0.00    +0.031 A 
BRANCH   6   9
ATOM      9  N   UNL     1      -3.015  -0.559  -8.412  0.00  0.00    +0.057 N 
ATOM     10  O   UNL     1      -3.537   0.541  -8.399  0.00  0.00    -0.126 OA
ATOM     11  O   UNL     1      -2.944  -1.187  -9.453  0.00  0.00    -0.126 OA
ENDBRANCH   6   9
BRANCH   5  12
ATOM     12  C   UNL     1      -2.054  -3.270  -8.370  0.00  0.00    +0.389 C 
ATOM     13  O   UNL     1      -3.110  -3.425  -8.952  0.00  0.00    -0.241 OA
ATOM     14  O   UNL     1      -0.932  -3.846  -8.844  0.00  0.00    -0.241 OA
ENDBRANCH   5  12
ENDBRANCH   1   8
BRANCH   1  15
ATOM     15  C   UNL     1      -1.225  -0.661  -2.485  0.00  0.00    +0.235 C 
ATOM     16  C   UNL     1      -1.968  -0.138  -1.253  0.00  0.00    +0.192 C 
ATOM     17  C   UNL     1      -1.265  -0.642   0.011  0.00  0.00    +0.178 C 
ATOM     18  C   UNL     1       0.200  -0.194  -0.019  0.00  0.00    +0.171 C 
ATOM     19  C   UNL     1       0.859  -0.715  -1.299  0.00  0.00    +0.196 C 
ATOM     20  O   UNL     1       0.138  -0.233  -2.435  0.00  0.00    -0.354 OA
BRANCH  18  21
ATOM     21  O   UNL     1       0.262   1.234   0.003  0.00  0.00    -0.387 OA
ATOM     22  H   UNL     1       1.161   1.589  -0.019  0.00  0.00    +0.210 HD
ENDBRANCH  18  21
BRANCH  17  23
ATOM     23  O   UNL     1      -1.908  -0.099   1.165  0.00  0.00    -0.386 OA
ATOM     24  H   UNL     1      -1.509  -0.372   2.003  0.00  0.00    +0.210 HD
ENDBRANCH  17  23
BRANCH  16  25
ATOM     25  O   UNL     1      -1.963   1.292  -1.263  0.00  0.00    -0.385 OA
ATOM     26  H   UNL     1      -2.389   1.681  -2.040  0.00  0.00    +0.210 HD
ENDBRANCH  16  25
ENDBRANCH   1  15
TORSDOF 7
