REMARK  Name = ZINC43150530
REMARK  11 active torsions:
REMARK  status: ('A' for Active; 'I' for Inactive)
REMARK    1  A    between atoms: C_1  and  C_2
REMARK    2  A    between atoms: C_4  and  C_25
REMARK    3  A    between atoms: C_5  and  N_9
REMARK    4  A    between atoms: C_6  and  C_8
REMARK    5  A    between atoms: N_12  and  C_13
REMARK    6  A    between atoms: N_12  and  C_14
REMARK    7  A    between atoms: C_14  and  C_15
REMARK    8  A    between atoms: C_17  and  C_21
REMARK    9  A    between atoms: C_18  and  C_20
REMARK   10  A    between atoms: C_21  and  O_23
REMARK   11  A    between atoms: O_23  and  C_24
REMARK                            x       y       z     vdW  Elec       q    Type
REMARK                         _______ _______ _______ _____ _____    ______ ____
ROOT
ATOM      1  N   UNL     1      -0.514  -4.104   0.151  0.00  0.00    -0.269 N 
ATOM      2  C   UNL     1      -0.607  -4.670   1.371  0.00  0.00    +0.307 C 
ATOM      3  O   UNL     1      -0.386  -4.009   2.367  0.00  0.00    -0.252 OA
ATOM      4  N   UNL     1      -0.947  -5.970   1.486  0.00  0.00    -0.281 N 
ATOM      5  C   UNL     1      -1.213  -6.766   0.286  0.00  0.00    +0.134 C 
ATOM      6  H   UNL     1      -0.612  -4.649  -0.645  0.00  0.00    +0.156 HD
ENDROOT
BRANCH   1  11
ATOM      7  C   UNL     1       0.455   1.466  -0.324  0.00  0.00    +0.044 C 
ATOM      8  C   UNL     1       0.198  -0.014  -0.198  0.00  0.00    -0.050 A 
ATOM      9  C   UNL     1       1.088  -0.812   0.497  0.00  0.00    +0.008 A 
ATOM     10  C   UNL     1       0.855  -2.168   0.614  0.00  0.00    -0.029 A 
ATOM     11  C   UNL     1      -0.275  -2.730   0.034  0.00  0.00    +0.041 A 
ATOM     12  C   UNL     1      -1.167  -1.926  -0.662  0.00  0.00    -0.029 A 
ATOM     13  C   UNL     1      -0.931  -0.569  -0.771  0.00  0.00    +0.008 A 
ATOM     14  C   UNL     1      -2.394  -2.531  -1.293  0.00  0.00    +0.045 C 
ATOM     15  C   UNL     1       1.826  -3.038   1.371  0.00  0.00    +0.045 C 
ENDBRANCH   1  11
BRANCH   4  16
ATOM     16  C   UNL     1      -1.048  -6.585   2.812  0.00  0.00    +0.183 C 
BRANCH  16  17
ATOM     17  C   UNL     1      -2.455  -6.433   3.329  0.00  0.00    +0.123 A 
ATOM     18  C   UNL     1      -3.454  -7.308   3.138  0.00  0.00    +0.061 A 
ATOM     19  C   UNL     1      -4.626  -6.739   3.821  0.00  0.00    +0.100 A 
ATOM     20  C   UNL     1      -4.200  -5.560   4.360  0.00  0.00    +0.116 A 
ATOM     21  O   UNL     1      -2.908  -5.402   4.061  0.00  0.00    -0.462 OA
ATOM     22  C   UNL     1      -5.043  -4.602   5.162  0.00  0.00    +0.087 C 
BRANCH  19  23
ATOM     23  C   UNL     1      -5.976  -7.321   3.904  0.00  0.00    +0.342 C 
ATOM     24  O   UNL     1      -6.854  -6.734   4.506  0.00  0.00    -0.245 OA
BRANCH  23  25
ATOM     25  O   UNL     1      -6.238  -8.503   3.313  0.00  0.00    -0.464 OA
ATOM     26  C   UNL     1      -7.570  -9.008   3.435  0.00  0.00    +0.280 C 
ENDBRANCH  23  25
ENDBRANCH  19  23
ENDBRANCH  16  17
ENDBRANCH   4  16
TORSDOF 5
