REMARK  Name = ZINC08488050
REMARK  7 active torsions:
REMARK  status: ('A' for Active; 'I' for Inactive)
REMARK    1  A    between atoms: C_1  and  C_2
REMARK    2  A    between atoms: C_5  and  C_9
REMARK    3  A    between atoms: C_7  and  C_8
REMARK    4  A    between atoms: C_9  and  C_11
REMARK    5  A    between atoms: C_11  and  S_12
REMARK    6  A    between atoms: S_12  and  C_13
REMARK    7  A    between atoms: C_17  and  N_19
REMARK                            x       y       z     vdW  Elec       q    Type
REMARK                         _______ _______ _______ _____ _____    ______ ____
ROOT
ATOM      1  S   UNL     1      -5.199   4.268   0.074  0.00  0.00    -0.078 S 
ENDROOT
BRANCH   1   2
ATOM      2  C   UNL     1      -6.549   3.136   0.081  0.00  0.00    +0.192 A 
ATOM      3  N   UNL     1      -6.300   1.835   0.068  0.00  0.00    -0.207 NA
ATOM      4  C   UNL     1      -7.294   0.950   0.078  0.00  0.00    +0.122 A 
ATOM      5  C   UNL     1      -8.608   1.408   0.093  0.00  0.00    +0.086 A 
ATOM      6  C   UNL     1      -8.831   2.782   0.102  0.00  0.00    +0.122 A 
ATOM      7  N   UNL     1      -7.787   3.608   0.096  0.00  0.00    -0.207 NA
ATOM      8  N   UNL     1      -7.025  -0.410   0.070  0.00  0.00    -0.343 N 
ATOM      9  H   UNL     1      -7.755  -1.049   0.074  0.00  0.00    +0.144 HD
ATOM     10  H   UNL     1      -6.106  -0.722   0.059  0.00  0.00    +0.144 HD
BRANCH   6  11
ATOM     11  N   UNL     1     -10.123   3.284   0.117  0.00  0.00    -0.343 N 
ATOM     12  H   UNL     1     -10.271   4.243   0.123  0.00  0.00    +0.144 HD
ATOM     13  H   UNL     1     -10.879   2.677   0.121  0.00  0.00    +0.144 HD
ENDBRANCH   6  11
ENDBRANCH   1   2
BRANCH   1  14
ATOM     14  C   UNL     1      -3.813   3.104   0.055  0.00  0.00    +0.157 C 
BRANCH  14  15
ATOM     15  C   UNL     1      -2.514   3.870   0.046  0.00  0.00    +0.173 C 
ATOM     16  O   UNL     1      -2.526   5.082   0.052  0.00  0.00    -0.291 OA
BRANCH  15  21
ATOM     17  C   UNL     1       2.490   1.041  -0.016  0.00  0.00    +0.044 C 
ATOM     18  C   UNL     1       1.178   1.782   0.000  0.00  0.00    -0.047 A 
ATOM     19  C   UNL     1      -0.013   1.076   0.008  0.00  0.00    +0.004 A 
ATOM     20  C   UNL     1      -1.217   1.747   0.017  0.00  0.00    +0.011 A 
ATOM     21  C   UNL     1      -1.234   3.146   0.031  0.00  0.00    +0.019 A 
ATOM     22  C   UNL     1      -0.027   3.852   0.022  0.00  0.00    +0.015 A 
ATOM     23  C   UNL     1       1.169   3.166   0.007  0.00  0.00    -0.047 A 
ATOM     24  C   UNL     1       2.471   3.925  -0.001  0.00  0.00    +0.044 C 
ENDBRANCH  15  21
ENDBRANCH  14  15
ENDBRANCH   1  14
TORSDOF 5
