REMARK  Name = ZINC46671313
REMARK  9 active torsions:
REMARK  status: ('A' for Active; 'I' for Inactive)
REMARK    1  A    between atoms: C_1  and  C_2
REMARK    2  A    between atoms: C_7  and  C_8
REMARK    3  A    between atoms: C_8  and  C_10
REMARK    4  A    between atoms: C_8  and  N_29
REMARK    5  A    between atoms: C_10  and  C_11
REMARK    6  A    between atoms: N_13  and  C_14
REMARK    7  A    between atoms: C_14  and  C_15
REMARK    8  A    between atoms: N_18  and  C_22
REMARK    9  A    between atoms: C_22  and  C_23
REMARK                            x       y       z     vdW  Elec       q    Type
REMARK                         _______ _______ _______ _____ _____    ______ ____
ROOT
ATOM      1  C   UNL     1       1.128   1.536   4.147  0.00  0.00    +0.215 C 
ATOM      2  O   UNL     1       0.004   1.711   4.566  0.00  0.00    -0.276 OA
ATOM      3  N   UNL     1       2.170   2.161   4.731  0.00  0.00    -0.313 N 
ATOM      4  H   UNL     1       3.069   2.022   4.396  0.00  0.00    +0.149 HD
ENDROOT
BRANCH   1   5
ATOM      5  C   UNL     1       1.361   0.620   2.973  0.00  0.00    +0.123 C 
BRANCH   5   6
ATOM      6  C   UNL     1       0.024   0.044   2.503  0.00  0.00    +0.114 C 
BRANCH   6  13
ATOM      7  C   UNL     1      -2.230  -0.709   0.860  0.00  0.00    +0.044 C 
ATOM      8  C   UNL     1      -0.838  -1.133   0.469  0.00  0.00    -0.045 A 
ATOM      9  C   UNL     1      -0.639  -1.879  -0.678  0.00  0.00    +0.004 A 
ATOM     10  C   UNL     1       0.638  -2.268  -1.036  0.00  0.00    +0.000 A 
ATOM     11  C   UNL     1       1.716  -1.913  -0.247  0.00  0.00    +0.000 A 
ATOM     12  C   UNL     1       1.517  -1.167   0.900  0.00  0.00    +0.006 A 
ATOM     13  C   UNL     1       0.241  -0.774   1.255  0.00  0.00    -0.024 A 
ENDBRANCH   6  13
BRANCH   6  14
ATOM     14  N   UNL     1      -0.537  -0.808   3.554  0.00  0.00    -0.292 N 
ATOM     15  C   UNL     1       0.102  -1.937   3.920  0.00  0.00    +0.298 C 
ATOM     16  O   UNL     1       1.190  -2.201   3.444  0.00  0.00    -0.253 OA
ATOM     17  N   UNL     1      -0.464  -2.773   4.812  0.00  0.00    -0.313 N 
ATOM     18  H   UNL     1      -1.369  -0.560   3.987  0.00  0.00    +0.151 HD
ATOM     19  H   UNL     1      -1.331  -2.563   5.191  0.00  0.00    +0.146 HD
ATOM     20  H   UNL     1      -0.003  -3.586   5.075  0.00  0.00    +0.146 HD
ENDBRANCH   6  14
ENDBRANCH   5   6
ENDBRANCH   1   5
BRANCH   3  21
ATOM     21  C   UNL     1       1.943   3.052   5.872  0.00  0.00    +0.137 C 
BRANCH  21  22
ATOM     22  C   UNL     1       3.280   3.628   6.343  0.00  0.00    +0.149 C 
ATOM     23  C   UNL     1       3.045   4.557   7.537  0.00  0.00    +0.118 C 
ATOM     24  N   UNL     1       4.339   5.047   8.032  0.00  0.00    -0.293 NA
ATOM     25  C   UNL     1       5.203   3.926   8.429  0.00  0.00    +0.113 C 
ATOM     26  C   UNL     1       5.417   3.003   7.226  0.00  0.00    +0.175 C 
ATOM     27  O   UNL     1       4.147   2.562   6.737  0.00  0.00    -0.372 OA
BRANCH  24  28
ATOM     28  C   UNL     1       4.154   5.988   9.145  0.00  0.00    +0.119 C 
BRANCH  28  29
ATOM     29  C   UNL     1       5.469   6.653   9.464  0.00  0.00    -0.033 A 
ATOM     30  C   UNL     1       6.326   6.082  10.386  0.00  0.00    +0.005 A 
ATOM     31  C   UNL     1       7.531   6.692  10.679  0.00  0.00    +0.000 A 
ATOM     32  C   UNL     1       7.880   7.872  10.049  0.00  0.00    +0.000 A 
ATOM     33  C   UNL     1       7.023   8.442   9.126  0.00  0.00    +0.000 A 
ATOM     34  C   UNL     1       5.819   7.830   8.830  0.00  0.00    +0.005 A 
ENDBRANCH  28  29
ENDBRANCH  24  28
ENDBRANCH  21  22
ENDBRANCH   3  21
TORSDOF 8
