REMARK  Name = ZINC04860658
REMARK  9 active torsions:
REMARK  status: ('A' for Active; 'I' for Inactive)
REMARK    1  A    between atoms: C_1  and  C_2
REMARK    2  A    between atoms: C_2  and  C_3
REMARK    3  A    between atoms: C_6  and  C_8
REMARK    4  A    between atoms: C_6  and  O_12
REMARK    5  A    between atoms: C_13  and  C_15
REMARK    6  A    between atoms: C_15  and  O_16
REMARK    7  A    between atoms: O_16  and  C_17
REMARK    8  A    between atoms: C_20  and  C_24
REMARK    9  A    between atoms: C_21  and  C_23
REMARK                            x       y       z     vdW  Elec       q    Type
REMARK                         _______ _______ _______ _____ _____    ______ ____
ROOT
ATOM      1  C   UNL     1      -0.015   1.266   0.009  0.00  0.00    +0.042 C 
ATOM      2  N   UNL     1       0.002  -0.004   0.002  0.00  0.00    -0.183 NA
ATOM      3  N   UNL     1       1.278  -0.564  -0.013  0.00  0.00    -0.149 N 
ATOM      4  C   UNL     1       2.271   0.523  -0.017  0.00  0.00    +0.256 C 
ATOM      5  C   UNL     1       1.401   1.796  -0.002  0.00  0.00    +0.118 C 
ATOM      6  C   UNL     1       1.557  -1.883  -0.023  0.00  0.00    +0.275 C 
ATOM      7  O   UNL     1       2.710  -2.259  -0.035  0.00  0.00    -0.270 OA
ENDROOT
BRANCH   4   8
ATOM      8  C   UNL     1       3.153   0.453   1.231  0.00  0.00    +0.438 C 
ATOM      9  F   UNL     1       3.850  -0.760   1.242  0.00  0.00    -0.166 F 
ATOM     10  F   UNL     1       4.064   1.514   1.219  0.00  0.00    -0.166 F 
ATOM     11  F   UNL     1       2.351   0.539   2.374  0.00  0.00    -0.166 F 
ENDBRANCH   4   8
BRANCH   1  13
ATOM     12  C   UNL     1      -2.494   1.212   0.021  0.00  0.00    +0.010 C 
ATOM     13  C   UNL     1      -1.259   2.116   0.020  0.00  0.00    +0.049 C 
ENDBRANCH   1  13
BRANCH   4  14
ATOM     14  O   UNL     1       3.070   0.472  -1.200  0.00  0.00    -0.363 OA
ATOM     15  H   UNL     1       3.582  -0.343  -1.295  0.00  0.00    +0.212 HD
ENDBRANCH   4  14
BRANCH   6  16
ATOM     16  C   UNL     1       0.436  -2.890  -0.018  0.00  0.00    +0.326 C 
BRANCH  16  17
ATOM     17  O   UNL     1       0.982  -4.211  -0.030  0.00  0.00    -0.483 OA
BRANCH  17  18
ATOM     18  C   UNL     1       0.099  -5.244  -0.028  0.00  0.00    +0.121 A 
ATOM     19  C   UNL     1      -1.266  -4.991  -0.014  0.00  0.00    +0.046 A 
ATOM     20  C   UNL     1      -2.161  -6.043  -0.012  0.00  0.00    +0.007 A 
ATOM     21  C   UNL     1      -1.699  -7.346  -0.022  0.00  0.00    -0.047 A 
ATOM     22  C   UNL     1      -0.340  -7.600  -0.037  0.00  0.00    -0.044 A 
ATOM     23  C   UNL     1       0.560  -6.552  -0.045  0.00  0.00    +0.049 A 
ATOM     24  C   UNL     1       0.160  -9.022  -0.049  0.00  0.00    +0.044 C 
ATOM     25  C   UNL     1      -2.678  -8.492  -0.019  0.00  0.00    +0.044 C 
ENDBRANCH  17  18
ENDBRANCH  16  17
ENDBRANCH   6  16
TORSDOF 6
