REMARK  Name = ZINC60163835
REMARK  7 active torsions:
REMARK  status: ('A' for Active; 'I' for Inactive)
REMARK    1  A    between atoms: C_1  and  C_2
REMARK    2  A    between atoms: C_2  and  C_4
REMARK    3  A    between atoms: C_2  and  N_13
REMARK    4  A    between atoms: N_6  and  C_7
REMARK    5  A    between atoms: C_7  and  C_8
REMARK    6  A    between atoms: C_14  and  C_16
REMARK    7  A    between atoms: C_16  and  N_17
REMARK                            x       y       z     vdW  Elec       q    Type
REMARK                         _______ _______ _______ _____ _____    ______ ____
ROOT
ATOM      1  C   UNL     1       0.780  -1.133   3.576  0.00  0.00    +0.213 C 
ENDROOT
BRANCH   1   2
ATOM      2  N   UNL     1      -0.150  -1.201   4.706  0.00  0.00    -0.215 N 
ATOM      3  C   UNL     1      -0.378  -0.183   5.565  0.00  0.00    +0.251 C 
ATOM      4  O   UNL     1       0.127   0.919   5.550  0.00  0.00    -0.272 OA
ATOM      5  C   UNL     1      -1.393  -0.711   6.544  0.00  0.00    +0.138 C 
ATOM      6  C   UNL     1      -2.672   0.137   6.529  0.00  0.00    +0.045 C 
ATOM      7  C   UNL     1      -2.432   1.108   7.707  0.00  0.00    +0.038 C 
ATOM      8  C   UNL     1      -1.477   0.384   8.632  0.00  0.00    -0.042 A 
ATOM      9  C   UNL     1      -0.877  -0.667   7.957  0.00  0.00    -0.012 A 
ATOM     10  C   UNL     1       0.040  -1.470   8.614  0.00  0.00    +0.006 A 
ATOM     11  C   UNL     1       0.357  -1.228   9.936  0.00  0.00    +0.000 A 
ATOM     12  C   UNL     1      -0.241  -0.179  10.609  0.00  0.00    +0.000 A 
ATOM     13  C   UNL     1      -1.156   0.624   9.956  0.00  0.00    +0.004 A 
ATOM     14  N   UNL     1      -1.655  -2.081   6.103  0.00  0.00    -0.281 N 
ATOM     15  C   UNL     1      -0.884  -2.278   5.014  0.00  0.00    +0.310 C 
ATOM     16  O   UNL     1      -0.857  -3.317   4.384  0.00  0.00    -0.252 OA
ATOM     17  H   UNL     1      -2.263  -2.718   6.509  0.00  0.00    +0.152 HD
ENDBRANCH   1   2
BRANCH   1  19
ATOM     18  N   UNL     1       0.711  -0.489   1.189  0.00  0.00    -0.303 N 
ATOM     19  C   UNL     1       0.051  -0.633   2.355  0.00  0.00    +0.232 C 
ATOM     20  O   UNL     1      -1.129  -0.361   2.423  0.00  0.00    -0.274 OA
ATOM     21  H   UNL     1       1.654  -0.707   1.135  0.00  0.00    +0.149 HD
BRANCH  18  23
ATOM     22  C   UNL     1      -0.019   1.526   0.010  0.00  0.00    +0.038 C 
ATOM     23  C   UNL     1       0.002  -0.004   0.002  0.00  0.00    +0.156 C 
BRANCH  23  24
ATOM     24  C   UNL     1       0.707  -0.490  -1.238  0.00  0.00    +0.233 C 
ATOM     25  O   UNL     1       1.704  -1.174  -1.140  0.00  0.00    -0.274 OA
ATOM     26  N   UNL     1       0.231  -0.164  -2.456  0.00  0.00    -0.307 N 
ATOM     27  H   UNL     1      -0.566   0.383  -2.534  0.00  0.00    +0.149 HD
BRANCH  26  28
ATOM     28  C   UNL     1       0.917  -0.637  -3.661  0.00  0.00    +0.178 C 
BRANCH  28  29
ATOM     29  C   UNL     1       0.188  -0.137  -4.882  0.00  0.00    +0.122 A 
ATOM     30  C   UNL     1       0.429   1.020  -5.524  0.00  0.00    +0.046 A 
ATOM     31  C   UNL     1      -0.479   1.086  -6.605  0.00  0.00    +0.041 A 
ATOM     32  C   UNL     1      -1.221  -0.036  -6.560  0.00  0.00    +0.195 A 
ATOM     33  O   UNL     1      -0.809  -0.775  -5.518  0.00  0.00    -0.466 OA
ENDBRANCH  28  29
ENDBRANCH  26  28
ENDBRANCH  23  24
ENDBRANCH  18  23
ENDBRANCH   1  19
TORSDOF 6
