REMARK  Name = ZINC41634629
REMARK  4 active torsions:
REMARK  status: ('A' for Active; 'I' for Inactive)
REMARK    1  A    between atoms: C_3  and  N_23
REMARK    2  A    between atoms: C_6  and  C_7
REMARK    3  A    between atoms: C_7  and  C_9
REMARK    4  A    between atoms: C_7  and  N_18
REMARK                            x       y       z     vdW  Elec       q    Type
REMARK                         _______ _______ _______ _____ _____    ______ ____
ROOT
ATOM      1  C   UNL     1      -1.293  -0.775   0.010  0.00  0.00    +0.006 C 
ENDROOT
BRANCH   1   2
ATOM      2  C   UNL     1      -1.585  -1.252   1.410  0.00  0.00    +0.050 A 
ATOM      3  C   UNL     1      -2.593  -0.917   2.223  0.00  0.00    +0.282 A 
ATOM      4  N   UNL     1      -2.691  -1.465   3.479  0.00  0.00    -0.170 N 
ATOM      5  C   UNL     1      -1.726  -2.351   3.850  0.00  0.00    +0.199 A 
ATOM      6  S   UNL     1      -0.679  -2.418   2.416  0.00  0.00    -0.050 S 
ATOM      7  N   UNL     1      -1.963  -2.774   5.062  0.00  0.00    -0.208 NA
ATOM      8  C   UNL     1      -3.069  -2.194   5.522  0.00  0.00    +0.246 A 
ATOM      9  N   UNL     1      -3.549  -1.395   4.608  0.00  0.00    -0.150 NA
ATOM     10  O   UNL     1      -3.531  -0.026   1.802  0.00  0.00    -0.265 OA
ENDBRANCH   1   2
BRANCH   1  16
ATOM     11  C   UNL     1      -0.017   1.378   0.010  0.00  0.00    +0.004 A 
ATOM     12  C   UNL     1       1.171   2.086   0.002  0.00  0.00    +0.033 A 
ATOM     13  C   UNL     1       2.377   1.411  -0.013  0.00  0.00    +0.126 A 
ATOM     14  C   UNL     1       2.396   0.029  -0.020  0.00  0.00    +0.033 A 
ATOM     15  C   UNL     1       1.208  -0.679  -0.012  0.00  0.00    +0.004 A 
ATOM     16  C   UNL     1       0.002  -0.004   0.002  0.00  0.00    -0.056 A 
BRANCH  13  17
ATOM     17  N   UNL     1       3.649   2.168  -0.022  0.00  0.00    +0.056 N 
ATOM     18  O   UNL     1       3.633   3.377  -0.016  0.00  0.00    -0.126 OA
ATOM     19  O   UNL     1       4.704   1.578  -0.035  0.00  0.00    -0.126 OA
ENDBRANCH  13  17
ENDBRANCH   1  16
BRANCH   1  20
ATOM     20  N   UNL     1      -1.179  -1.933  -0.887  0.00  0.00    +0.387 N 
ATOM     21  C   UNL     1      -2.475  -2.655  -0.959  0.00  0.00    -0.078 C 
ATOM     22  C   UNL     1      -2.374  -3.434  -2.294  0.00  0.00    -0.020 C 
ATOM     23  C   UNL     1      -1.632  -2.441  -3.218  0.00  0.00    -0.020 C 
ATOM     24  C   UNL     1      -0.892  -1.482  -2.267  0.00  0.00    -0.078 C 
ATOM     25  H   UNL     1      -0.451  -2.553  -0.566  0.00  0.00    -0.080 HD
ENDBRANCH   1  20
TORSDOF 4
