REMARK  Name = ZINC41551612
REMARK  10 active torsions:
REMARK  status: ('A' for Active; 'I' for Inactive)
REMARK    1  A    between atoms: C_1  and  C_2
REMARK    2  A    between atoms: C_3  and  C_14
REMARK    3  A    between atoms: C_4  and  C_13
REMARK    4  A    between atoms: N_5  and  C_7
REMARK    5  A    between atoms: C_14  and  N_15
REMARK    6  A    between atoms: C_16  and  C_18
REMARK    7  A    between atoms: C_27  and  O_29
REMARK    8  A    between atoms: O_29  and  C_30
REMARK    9  A    between atoms: C_30  and  C_31
REMARK   10  A    between atoms: C_30  and  C_32
REMARK                            x       y       z     vdW  Elec       q    Type
REMARK                         _______ _______ _______ _____ _____    ______ ____
ROOT
ATOM      1  N   UNL     1       2.077   1.363  -2.796  0.00  0.00    -0.307 N 
ATOM      2  C   UNL     1       2.345   1.437  -4.115  0.00  0.00    +0.245 C 
ATOM      3  O   UNL     1       1.450   1.667  -4.904  0.00  0.00    -0.270 OA
ATOM      4  H   UNL     1       2.801   1.256  -2.159  0.00  0.00    +0.149 HD
ENDROOT
BRANCH   2   5
ATOM      5  C   UNL     1       3.732   1.238  -4.603  0.00  0.00    +0.054 A 
ATOM      6  C   UNL     1       4.771   1.093  -3.727  0.00  0.00    +0.105 A 
ATOM      7  C   UNL     1       6.084   0.905  -4.224  0.00  0.00    +0.338 A 
ATOM      8  O   UNL     1       7.003   0.776  -3.437  0.00  0.00    -0.245 OA
ATOM      9  O   UNL     1       6.340   0.864  -5.540  0.00  0.00    -0.422 OA
ATOM     10  C   UNL     1       5.359   1.000  -6.458  0.00  0.00    +0.143 A 
ATOM     11  C   UNL     1       4.028   1.185  -6.043  0.00  0.00    +0.030 A 
ATOM     12  C   UNL     1       3.010   1.320  -6.991  0.00  0.00    +0.016 A 
ATOM     13  C   UNL     1       3.311   1.268  -8.322  0.00  0.00    +0.046 A 
ATOM     14  C   UNL     1       4.626   1.079  -8.741  0.00  0.00    +0.124 A 
ATOM     15  C   UNL     1       5.649   0.954  -7.814  0.00  0.00    +0.092 A 
BRANCH  14  16
ATOM     16  O   UNL     1       4.910   1.028 -10.067  0.00  0.00    -0.489 OA
BRANCH  16  17
ATOM     17  C   UNL     1       3.808   1.130 -10.971  0.00  0.00    +0.167 C 
ATOM     18  C   UNL     1       3.457   2.604 -11.183  0.00  0.00    +0.051 C 
ATOM     19  C   UNL     1       4.187   0.497 -12.311  0.00  0.00    +0.051 C 
ENDBRANCH  16  17
ENDBRANCH  14  16
ENDBRANCH   2   5
BRANCH   1  20
ATOM     20  C   UNL     1       0.692   1.445  -2.324  0.00  0.00    +0.143 C 
BRANCH  20  23
ATOM     21  C   UNL     1       0.875   3.860  -0.281  0.00  0.00    +0.068 C 
ATOM     22  C   UNL     1       0.747   2.403   0.082  0.00  0.00    +0.065 A 
ATOM     23  C   UNL     1       0.667   1.337  -0.821  0.00  0.00    +0.013 A 
ATOM     24  C   UNL     1       0.562   0.193  -0.107  0.00  0.00    +0.047 A 
ATOM     25  N   UNL     1       0.575   0.524   1.204  0.00  0.00    -0.236 N 
ATOM     26  N   UNL     1       0.697   1.916   1.296  0.00  0.00    -0.171 NA
ATOM     27  C   UNL     1       0.451  -1.200  -0.671  0.00  0.00    +0.066 C 
BRANCH  25  28
ATOM     28  C   UNL     1       0.487  -0.369   2.282  0.00  0.00    +0.066 A 
ATOM     29  C   UNL     1       1.145  -1.591   2.228  0.00  0.00    +0.028 A 
ATOM     30  C   UNL     1       1.056  -2.468   3.291  0.00  0.00    +0.002 A 
ATOM     31  C   UNL     1       0.313  -2.131   4.407  0.00  0.00    +0.000 A 
ATOM     32  C   UNL     1      -0.344  -0.916   4.463  0.00  0.00    +0.002 A 
ATOM     33  C   UNL     1      -0.254  -0.031   3.406  0.00  0.00    +0.028 A 
ENDBRANCH  25  28
ENDBRANCH  20  23
ENDBRANCH   1  20
TORSDOF 6
