REMARK  Name = ZINC36494000
REMARK  14 active torsions:
REMARK  status: ('A' for Active; 'I' for Inactive)
REMARK    1  A    between atoms: C_1  and  C_2
REMARK    2  A    between atoms: C_2  and  C_3
REMARK    3  A    between atoms: C_3  and  C_4
REMARK    4  A    between atoms: C_4  and  N_5
REMARK    5  A    between atoms: C_6  and  C_8
REMARK    6  A    between atoms: C_8  and  C_10
REMARK    7  A    between atoms: C_8  and  N_17
REMARK    8  A    between atoms: C_13  and  O_16
REMARK    9  A    between atoms: N_17  and  C_18
REMARK   10  A    between atoms: C_18  and  C_19
REMARK   11  A    between atoms: C_24  and  C_26
REMARK   12  A    between atoms: C_32  and  O_34
REMARK   13  A    between atoms: O_34  and  C_35
REMARK   14  A    between atoms: C_35  and  C_36
REMARK                            x       y       z     vdW  Elec       q    Type
REMARK                         _______ _______ _______ _____ _____    ______ ____
ROOT
ATOM      1  N   UNL     1       2.611  -6.568  -3.641  0.00  0.00    -0.277 N 
ATOM      2  C   UNL     1       3.283  -7.735  -3.700  0.00  0.00    +0.237 C 
ATOM      3  O   UNL     1       4.495  -7.736  -3.730  0.00  0.00    -0.274 OA
ENDROOT
BRANCH   2   4
ATOM      4  C   UNL     1       2.528  -9.039  -3.728  0.00  0.00    +0.165 C 
ATOM      5  C   UNL     1       2.276  -9.469  -5.189  0.00  0.00    +0.033 C 
ATOM      6  C   UNL     1       2.471 -11.007  -5.137  0.00  0.00    +0.021 C 
ATOM      7  C   UNL     1       3.609 -11.142  -4.095  0.00  0.00    +0.112 C 
ATOM      8  N   UNL     1       3.329 -10.095  -3.091  0.00  0.00    -0.256 N 
ATOM      9  C   UNL     1       3.739 -10.102  -1.807  0.00  0.00    +0.404 C 
ATOM     10  O   UNL     1       3.449  -9.181  -1.071  0.00  0.00    -0.226 OA
BRANCH   9  11
ATOM     11  O   UNL     1       4.471 -11.132  -1.341  0.00  0.00    -0.445 OA
BRANCH  11  12
ATOM     12  C   UNL     1       4.872 -11.074   0.030  0.00  0.00    +0.269 C 
BRANCH  12  13
ATOM     13  C   UNL     1       5.677 -12.302   0.369  0.00  0.00    -0.010 A 
ATOM     14  C   UNL     1       5.042 -13.437   0.837  0.00  0.00    +0.007 A 
ATOM     15  C   UNL     1       5.780 -14.564   1.149  0.00  0.00    +0.000 A 
ATOM     16  C   UNL     1       7.154 -14.555   0.993  0.00  0.00    +0.000 A 
ATOM     17  C   UNL     1       7.789 -13.420   0.524  0.00  0.00    +0.000 A 
ATOM     18  C   UNL     1       7.050 -12.295   0.208  0.00  0.00    +0.007 A 
ENDBRANCH  12  13
ENDBRANCH  11  12
ENDBRANCH   9  11
ENDBRANCH   2   4
BRANCH   1  19
ATOM     19  C   UNL     1       3.327  -5.301  -3.810  0.00  0.00    +0.193 C 
BRANCH  19  20
ATOM     20  C   UNL     1       3.084  -4.768  -5.198  0.00  0.00    -0.018 A 
ATOM     21  C   UNL     1       1.799  -4.727  -5.707  0.00  0.00    +0.009 A 
ATOM     22  C   UNL     1       1.574  -4.239  -6.979  0.00  0.00    +0.046 A 
ATOM     23  C   UNL     1       2.638  -3.790  -7.747  0.00  0.00    +0.117 A 
ATOM     24  C   UNL     1       3.927  -3.832  -7.234  0.00  0.00    +0.046 A 
ATOM     25  C   UNL     1       4.146  -4.316  -5.959  0.00  0.00    +0.009 A 
BRANCH  23  26
ATOM     26  O   UNL     1       2.419  -3.310  -8.999  0.00  0.00    -0.507 OA
ATOM     27  H   UNL     1       2.251  -2.358  -9.032  0.00  0.00    +0.292 HD
ENDBRANCH  23  26
ENDBRANCH  19  20
BRANCH  19  29
ATOM     28  N   UNL     1       3.709  -3.585  -2.070  0.00  0.00    -0.313 N 
ATOM     29  C   UNL     1       2.830  -4.304  -2.795  0.00  0.00    +0.238 C 
ATOM     30  O   UNL     1       1.638  -4.150  -2.630  0.00  0.00    -0.273 OA
ATOM     31  H   UNL     1       4.662  -3.708  -2.203  0.00  0.00    +0.149 HD
BRANCH  28  32
ATOM     32  C   UNL     1       3.226  -2.615  -1.084  0.00  0.00    +0.104 C 
BRANCH  32  33
ATOM     33  C   UNL     1       4.420  -1.939  -0.406  0.00  0.00    +0.018 C 
BRANCH  33  35
ATOM     34  C   UNL     1       5.108  -0.251   1.302  0.00  0.00    +0.004 C 
ATOM     35  C   UNL     1       3.915  -0.927   0.624  0.00  0.00    -0.002 C 
ENDBRANCH  33  35
ENDBRANCH  32  33
ENDBRANCH  28  32
ENDBRANCH  19  29
ENDBRANCH   1  19
BRANCH   1  36
ATOM     36  C   UNL     1       1.165  -6.567  -3.409  0.00  0.00    +0.183 C 
BRANCH  36  37
ATOM     37  C   UNL     1       0.890  -6.816  -1.948  0.00  0.00    +0.122 A 
ATOM     38  C   UNL     1       0.079  -6.084  -1.163  0.00  0.00    +0.046 A 
ATOM     39  C   UNL     1       0.117  -6.668   0.124  0.00  0.00    +0.041 A 
ATOM     40  C   UNL     1       0.949  -7.722   0.049  0.00  0.00    +0.195 A 
ATOM     41  O   UNL     1       1.410  -7.810  -1.209  0.00  0.00    -0.466 OA
ENDBRANCH  36  37
ENDBRANCH   1  36
TORSDOF 13
