REMARK  Name = ZINC16322970
REMARK  12 active torsions:
REMARK  status: ('A' for Active; 'I' for Inactive)
REMARK    1  A    between atoms: C_1  and  C_2
REMARK    2  A    between atoms: C_2  and  C_3
REMARK    3  A    between atoms: C_2  and  C_4
REMARK    4  A    between atoms: C_2  and  C_5
REMARK    5  A    between atoms: C_12  and  N_35
REMARK    6  A    between atoms: C_13  and  C_33
REMARK    7  A    between atoms: C_14  and  C_16
REMARK    8  A    between atoms: C_19  and  O_31
REMARK    9  A    between atoms: C_20  and  C_22
REMARK   10  A    between atoms: C_22  and  O_23
REMARK   11  A    between atoms: O_23  and  C_24
REMARK   12  A    between atoms: O_31  and  C_32
REMARK                            x       y       z     vdW  Elec       q    Type
REMARK                         _______ _______ _______ _____ _____    ______ ____
ROOT
ATOM      1  C   UNL     1       0.690  -0.798  -2.058  0.00  0.00    +0.076 A 
ATOM      2  C   UNL     1       0.908  -2.169  -2.090  0.00  0.00    +0.050 A 
ATOM      3  C   UNL     1       1.536  -2.471  -3.266  0.00  0.00    +0.222 A 
ATOM      4  N   UNL     1       1.702  -1.325  -3.944  0.00  0.00    -0.246 N 
ATOM      5  H   UNL     1       2.119  -1.231  -4.815  0.00  0.00    +0.192 HD
ATOM      6  N   UNL     1       1.159  -0.286  -3.171  0.00  0.00    -0.175 NA
ATOM      7  O   UNL     1       1.893  -3.736  -3.601  0.00  0.00    -0.423 OA
ATOM      8  C   UNL     1       1.864  -4.671  -2.630  0.00  0.00    +0.200 C 
ATOM      9  C   UNL     1       1.264  -4.494  -1.432  0.00  0.00    +0.098 C 
ATOM     10  C   UNL     1       0.553  -3.215  -1.065  0.00  0.00    +0.101 C 
ENDROOT
BRANCH  10  11
ATOM     11  C   UNL     1      -0.936  -3.442  -1.064  0.00  0.00    -0.034 A 
ATOM     12  C   UNL     1      -1.603  -3.649  -2.258  0.00  0.00    +0.008 A 
ATOM     13  C   UNL     1      -2.969  -3.857  -2.260  0.00  0.00    +0.046 A 
ATOM     14  C   UNL     1      -3.671  -3.857  -1.064  0.00  0.00    +0.126 A 
ATOM     15  C   UNL     1      -3.000  -3.649   0.132  0.00  0.00    +0.032 A 
ATOM     16  C   UNL     1      -1.633  -3.447   0.130  0.00  0.00    +0.015 A 
BRANCH  14  17
ATOM     17  O   UNL     1      -5.015  -4.061  -1.063  0.00  0.00    -0.495 OA
ATOM     18  C   UNL     1      -5.640  -4.268  -2.332  0.00  0.00    +0.277 C 
ENDBRANCH  14  17
BRANCH  15  19
ATOM     19  C   UNL     1      -3.760  -3.649   1.434  0.00  0.00    +0.268 C 
BRANCH  19  20
ATOM     20  O   UNL     1      -2.854  -3.416   2.514  0.00  0.00    -0.486 OA
BRANCH  20  21
ATOM     21  C   UNL     1      -3.382  -3.385   3.766  0.00  0.00    +0.139 A 
ATOM     22  C   UNL     1      -4.743  -3.581   3.951  0.00  0.00    +0.047 A 
ATOM     23  C   UNL     1      -5.277  -3.550   5.225  0.00  0.00    +0.004 A 
ATOM     24  C   UNL     1      -4.457  -3.323   6.315  0.00  0.00    +0.002 A 
ATOM     25  C   UNL     1      -3.101  -3.127   6.134  0.00  0.00    +0.023 A 
ATOM     26  C   UNL     1      -2.560  -3.163   4.862  0.00  0.00    +0.083 A 
ATOM     27 CL   UNL     1      -0.856  -2.924   4.636  0.00  0.00    -0.080 Cl
ENDBRANCH  20  21
ENDBRANCH  19  20
ENDBRANCH  15  19
ENDBRANCH  10  11
BRANCH   1  29
ATOM     28  C   UNL     1      -1.462  -0.391  -0.896  0.00  0.00    +0.017 C 
ATOM     29  C   UNL     1       0.025  -0.033  -0.943  0.00  0.00    +0.007 C 
ATOM     30  C   UNL     1       0.181   1.469  -1.191  0.00  0.00    +0.017 C 
ATOM     31  C   UNL     1       0.681  -0.401   0.389  0.00  0.00    +0.017 C 
ENDBRANCH   1  29
BRANCH   8  32
ATOM     32  N   UNL     1       2.481  -5.874  -2.872  0.00  0.00    -0.328 N 
ATOM     33  H   UNL     1       2.920  -6.031  -3.723  0.00  0.00    +0.145 HD
ATOM     34  H   UNL     1       2.477  -6.566  -2.193  0.00  0.00    +0.145 HD
ENDBRANCH   8  32
BRANCH   9  35
ATOM     35  C   UNL     1       1.304  -5.560  -0.477  0.00  0.00    +0.101 C 
ATOM     36  N   UNL     1       1.335  -6.406   0.281  0.00  0.00    -0.191 NA
ENDBRANCH   9  35
TORSDOF 8
