REMARK  Name = ZINC24143591
REMARK  8 active torsions:
REMARK  status: ('A' for Active; 'I' for Inactive)
REMARK    1  A    between atoms: C_1  and  C_2
REMARK    2  A    between atoms: C_2  and  C_4
REMARK    3  A    between atoms: C_2  and  N_30
REMARK    4  A    between atoms: C_7  and  S_16
REMARK    5  A    between atoms: N_8  and  C_9
REMARK    6  A    between atoms: S_16  and  C_17
REMARK    7  A    between atoms: C_17  and  C_18
REMARK    8  A    between atoms: C_24  and  C_27
REMARK                            x       y       z     vdW  Elec       q    Type
REMARK                         _______ _______ _______ _____ _____    ______ ____
ROOT
ATOM      1  C   UNL     1      -1.650   4.904  -7.571  0.00  0.00    +0.125 A 
ATOM      2  N   UNL     1      -2.576   4.302  -6.880  0.00  0.00    -0.135 NA
ATOM      3  N   UNL     1      -2.076   3.816  -5.800  0.00  0.00    -0.122 NA
ATOM      4  C   UNL     1      -0.794   4.090  -5.738  0.00  0.00    +0.197 A 
ATOM      5  N   UNL     1      -0.479   4.792  -6.870  0.00  0.00    -0.275 N 
ENDROOT
BRANCH   5   6
ATOM      6  C   UNL     1       0.780   5.291  -7.235  0.00  0.00    +0.050 A 
ATOM      7  C   UNL     1       0.983   6.661  -7.332  0.00  0.00    +0.029 A 
ATOM      8  C   UNL     1       2.224   7.151  -7.686  0.00  0.00    +0.040 A 
ATOM      9  C   UNL     1       3.264   6.277  -7.956  0.00  0.00    +0.124 A 
ATOM     10  C   UNL     1       3.061   4.910  -7.866  0.00  0.00    +0.040 A 
ATOM     11  C   UNL     1       1.823   4.416  -7.506  0.00  0.00    +0.029 A 
ATOM     12  F   UNL     1       4.476   6.758  -8.307  0.00  0.00    -0.205 F 
ENDBRANCH   5   6
BRANCH   1  14
ATOM     13  C   UNL     1      -2.540   6.936  -8.680  0.00  0.00    -0.005 C 
ATOM     14  C   UNL     1      -1.834   5.597  -8.898  0.00  0.00    -0.002 C 
BRANCH  14  15
ATOM     15  N   UNL     1      -2.647   4.752  -9.782  0.00  0.00    +0.386 N 
ATOM     16  C   UNL     1      -2.048   3.419  -9.934  0.00  0.00    -0.078 C 
ATOM     17  C   UNL     1      -2.992   2.524 -10.740  0.00  0.00    -0.019 C 
ATOM     18  C   UNL     1      -3.236   3.154 -12.114  0.00  0.00    -0.004 C 
ATOM     19  C   UNL     1      -3.814   4.559 -11.927  0.00  0.00    -0.019 C 
ATOM     20  C   UNL     1      -2.847   5.396 -11.087  0.00  0.00    -0.078 C 
ATOM     21  H   UNL     1      -3.635   4.624  -9.316  0.00  0.00    -0.081 HD
ENDBRANCH  14  15
ENDBRANCH   1  14
BRANCH   4  22
ATOM     22  S   UNL     1       0.314   3.634  -4.446  0.00  0.00    -0.076 S 
BRANCH  22  23
ATOM     23  C   UNL     1      -0.827   2.757  -3.349  0.00  0.00    +0.173 C 
BRANCH  23  24
ATOM     24  C   UNL     1      -0.078   2.261  -2.138  0.00  0.00    +0.226 C 
ATOM     25  O   UNL     1       1.110   2.480  -2.029  0.00  0.00    -0.275 OA
ATOM     26  N   UNL     1      -0.729   1.575  -1.178  0.00  0.00    -0.300 N 
ATOM     27  C   UNL     1      -2.168   1.303  -1.297  0.00  0.00    +0.108 C 
ATOM     28  C   UNL     1      -2.869   1.797  -0.028  0.00  0.00    +0.020 C 
ATOM     29  C   UNL     1      -2.208   1.161   1.197  0.00  0.00    +0.016 C 
ATOM     30  C   UNL     1      -0.736   1.583   1.264  0.00  0.00    +0.092 C 
ATOM     31  C   UNL     1      -0.013   1.086   0.008  0.00  0.00    +0.120 C 
BRANCH  30  32
ATOM     32  C   UNL     1      -0.091   0.982   2.486  0.00  0.00    +0.215 C 
ATOM     33  O   UNL     1      -0.743   0.287   3.236  0.00  0.00    -0.276 OA
ATOM     34  N   UNL     1       1.211   1.216   2.746  0.00  0.00    -0.329 N 
ATOM     35  H   UNL     1       1.682   0.778   3.638  0.00  0.00    +0.145 HD
ATOM     36  H   UNL     1       1.802   1.847   2.065  0.00  0.00    +0.145 HD
ENDBRANCH  30  32
ENDBRANCH  23  24
ENDBRANCH  22  23
ENDBRANCH   4  22
TORSDOF 7
