REMARK  Name = ZINC63398529
REMARK  8 active torsions:
REMARK  status: ('A' for Active; 'I' for Inactive)
REMARK    1  A    between atoms: C_1  and  O_2
REMARK    2  A    between atoms: O_2  and  C_3
REMARK    3  A    between atoms: C_6  and  C_13
REMARK    4  A    between atoms: C_14  and  C_15
REMARK    5  A    between atoms: C_14  and  C_17
REMARK    6  A    between atoms: N_19  and  C_20
REMARK    7  A    between atoms: C_20  and  C_21
REMARK    8  A    between atoms: C_21  and  C_22
REMARK                            x       y       z     vdW  Elec       q    Type
REMARK                         _______ _______ _______ _____ _____    ______ ____
ROOT
ATOM      1  C   UNL     1       2.592  -2.426   4.320  0.00  0.00    +0.032 C 
ATOM      2  C   UNL     1       3.242  -1.634   5.248  0.00  0.00    +0.114 C 
ENDROOT
BRANCH   1   6
ATOM      3  C   UNL     1       0.737  -0.632   0.965  0.00  0.00    +0.128 A 
ATOM      4  C   UNL     1       1.894  -0.110   1.510  0.00  0.00    +0.047 A 
ATOM      5  C   UNL     1       2.506  -0.689   2.604  0.00  0.00    +0.012 A 
ATOM      6  C   UNL     1       1.965  -1.833   3.200  0.00  0.00    -0.016 A 
ATOM      7  C   UNL     1       0.737  -2.406   2.641  0.00  0.00    -0.007 A 
ATOM      8  C   UNL     1       0.137  -1.782   1.523  0.00  0.00    +0.024 A 
ATOM      9  C   UNL     1      -1.042  -2.322   0.986  0.00  0.00    +0.012 A 
ATOM     10  C   UNL     1      -1.593  -3.433   1.550  0.00  0.00    +0.001 A 
ATOM     11  C   UNL     1      -1.003  -4.042   2.654  0.00  0.00    +0.001 A 
ATOM     12  C   UNL     1       0.150  -3.549   3.192  0.00  0.00    +0.009 A 
BRANCH   3  14
ATOM     13  C   UNL     1       0.826   1.128  -0.626  0.00  0.00    +0.277 C 
ATOM     14  O   UNL     1       0.170  -0.032  -0.109  0.00  0.00    -0.495 OA
ENDBRANCH   3  14
ENDBRANCH   1   6
BRANCH   2  15
ATOM     15  C   UNL     1       4.019  -2.256   6.329  0.00  0.00    +0.254 C 
ATOM     16  O   UNL     1       4.091  -3.468   6.407  0.00  0.00    -0.269 OA
ATOM     17  N   UNL     1       4.653  -1.484   7.234  0.00  0.00    -0.310 N 
ATOM     18  H   UNL     1       4.596  -0.518   7.172  0.00  0.00    +0.149 HD
BRANCH  17  19
ATOM     19  C   UNL     1       5.428  -2.105   8.311  0.00  0.00    +0.109 C 
BRANCH  19  20
ATOM     20  C   UNL     1       6.041  -1.014   9.192  0.00  0.00    +0.052 C 
BRANCH  20  21
ATOM     21  C   UNL     1       6.838  -1.652  10.300  0.00  0.00    -0.040 C 
ATOM     22  C   UNL     1       8.169  -1.894  10.309  0.00  0.00    -0.001 A 
ATOM     23  C   UNL     1       9.231  -1.647   9.327  0.00  0.00    +0.010 A 
ATOM     24  C   UNL     1      10.499  -2.009   9.627  0.00  0.00    +0.001 A 
ATOM     25  C   UNL     1      10.823  -2.613  10.850  0.00  0.00    +0.002 A 
ATOM     26  C   UNL     1       9.902  -2.873  11.802  0.00  0.00    +0.026 A 
ATOM     27  C   UNL     1       8.537  -2.533  11.593  0.00  0.00    +0.043 A 
ATOM     28  N   UNL     1       7.476  -2.681  12.348  0.00  0.00    -0.380 N 
ATOM     29  C   UNL     1       6.313  -2.145  11.630  0.00  0.00    +0.144 C 
ATOM     30  H   UNL     1       7.462  -3.074  13.234  0.00  0.00    +0.160 HD
ENDBRANCH  20  21
ENDBRANCH  19  20
ENDBRANCH  17  19
ENDBRANCH   2  15
BRANCH   2  31
ATOM     31  C   UNL     1       3.158  -0.207   5.157  0.00  0.00    +0.104 C 
ATOM     32  N   UNL     1       3.091   0.924   5.084  0.00  0.00    -0.191 NA
ENDBRANCH   2  31
TORSDOF 7
