REMARK  Name = ZINC25113757
REMARK  9 active torsions:
REMARK  status: ('A' for Active; 'I' for Inactive)
REMARK    1  A    between atoms: C_1  and  C_2
REMARK    2  A    between atoms: C_3  and  N_9
REMARK    3  A    between atoms: C_10  and  C_12
REMARK    4  A    between atoms: C_12  and  O_13
REMARK    5  A    between atoms: O_13  and  C_14
REMARK    6  A    between atoms: C_14  and  C_16
REMARK    7  A    between atoms: C_19  and  C_21
REMARK    8  A    between atoms: C_21  and  O_22
REMARK    9  A    between atoms: O_22  and  C_23
REMARK                            x       y       z     vdW  Elec       q    Type
REMARK                         _______ _______ _______ _____ _____    ______ ____
ROOT
ATOM      1  C   UNL     1      -1.580   7.452  -0.363  0.00  0.00    +0.375 C 
ATOM      2  O   UNL     1      -0.622   8.200  -0.382  0.00  0.00    -0.241 OA
ENDROOT
BRANCH   1   3
ATOM      3  C   UNL     1      -2.937   7.997  -0.448  0.00  0.00    +0.212 A 
ATOM      4  C   UNL     1      -3.266   9.319  -0.552  0.00  0.00    +0.057 A 
ATOM      5  C   UNL     1      -4.667   9.383  -0.606  0.00  0.00    +0.049 A 
ATOM      6  C   UNL     1      -5.126   8.114  -0.533  0.00  0.00    +0.143 A 
ATOM      7  O   UNL     1      -4.081   7.281  -0.444  0.00  0.00    -0.450 OA
BRANCH   6   8
ATOM      8  C   UNL     1      -6.576   7.702  -0.555  0.00  0.00    +0.303 C 
BRANCH   8   9
ATOM      9  O   UNL     1      -6.988   7.479  -1.905  0.00  0.00    -0.484 OA
BRANCH   9  10
ATOM     10  C   UNL     1      -8.278   7.099  -2.102  0.00  0.00    +0.121 A 
ATOM     11  C   UNL     1      -9.128   6.939  -1.018  0.00  0.00    +0.048 A 
ATOM     12  C   UNL     1     -10.441   6.559  -1.220  0.00  0.00    +0.042 A 
ATOM     13  C   UNL     1     -10.905   6.326  -2.503  0.00  0.00    +0.124 A 
ATOM     14  C   UNL     1     -10.056   6.479  -3.586  0.00  0.00    +0.042 A 
ATOM     15  C   UNL     1      -8.744   6.865  -3.388  0.00  0.00    +0.048 A 
ATOM     16  F   UNL     1     -12.187   5.949  -2.699  0.00  0.00    -0.205 F 
ENDBRANCH   9  10
ENDBRANCH   8   9
ENDBRANCH   6   8
ENDBRANCH   1   3
BRANCH   1  17
ATOM     17  O   UNL     1      -1.394   6.119  -0.263  0.00  0.00    -0.450 OA
BRANCH  17  18
ATOM     18  C   UNL     1      -0.022   5.650  -0.183  0.00  0.00    +0.328 C 
BRANCH  18  20
ATOM     19  N   UNL     1       1.161   3.486   0.010  0.00  0.00    -0.282 N 
ATOM     20  C   UNL     1      -0.011   4.147  -0.077  0.00  0.00    +0.255 C 
ATOM     21  O   UNL     1      -1.056   3.531  -0.071  0.00  0.00    -0.272 OA
ATOM     22  H   UNL     1       2.103   4.046   0.095  0.00  0.00    +0.155 HD
BRANCH  19  25
ATOM     23  C   UNL     1       3.359   2.153   1.228  0.00  0.00    +0.047 C 
ATOM     24  C   UNL     1       2.232   1.396   0.575  0.00  0.00    -0.011 A 
ATOM     25  C   UNL     1       1.178   2.087  -0.009  0.00  0.00    +0.038 A 
ATOM     26  C   UNL     1       0.141   1.387  -0.611  0.00  0.00    +0.023 A 
ATOM     27  C   UNL     1       0.160   0.005  -0.628  0.00  0.00    +0.003 A 
ATOM     28  C   UNL     1       1.210  -0.680  -0.047  0.00  0.00    +0.020 A 
ATOM     29  C   UNL     1       2.246   0.015   0.554  0.00  0.00    +0.046 A 
ATOM     30 CL   UNL     1       3.563  -0.850   1.283  0.00  0.00    -0.083 Cl
ENDBRANCH  19  25
ENDBRANCH  18  20
ENDBRANCH  17  18
ENDBRANCH   1  17
TORSDOF 8
