REMARK  Name = ZINC63993544
REMARK  9 active torsions:
REMARK  status: ('A' for Active; 'I' for Inactive)
REMARK    1  A    between atoms: C_1  and  O_2
REMARK    2  A    between atoms: O_2  and  C_3
REMARK    3  A    between atoms: C_7  and  C_11
REMARK    4  A    between atoms: C_8  and  O_9
REMARK    5  A    between atoms: O_9  and  C_10
REMARK    6  A    between atoms: N_16  and  C_28
REMARK    7  A    between atoms: N_21  and  C_24
REMARK    8  A    between atoms: C_24  and  C_25
REMARK    9  A    between atoms: C_28  and  C_29
REMARK                            x       y       z     vdW  Elec       q    Type
REMARK                         _______ _______ _______ _____ _____    ______ ____
ROOT
ATOM      1  C   UNL     1       1.521  -4.935  -1.512  0.00  0.00    +0.131 C 
ATOM      2  C   UNL     1       3.003  -5.186  -1.641  0.00  0.00    -0.007 C 
ATOM      3  C   UNL     1       3.470  -5.775  -2.710  0.00  0.00    -0.038 C 
ATOM      4  C   UNL     1       4.954  -5.999  -2.879  0.00  0.00    +0.117 C 
ATOM      5  N   UNL     1       5.358  -5.466  -4.190  0.00  0.00    -0.291 NA
ATOM      6  C   UNL     1       4.554  -6.052  -5.270  0.00  0.00    +0.087 C 
ATOM      7  C   UNL     1       3.088  -5.644  -5.113  0.00  0.00    +0.042 C 
ATOM      8  C   UNL     1       2.539  -6.225  -3.808  0.00  0.00    +0.104 C 
ATOM      9  N   UNL     1       1.111  -5.917  -3.741  0.00  0.00    -0.294 N 
ATOM     10  C   UNL     1       0.603  -5.311  -2.649  0.00  0.00    +0.227 C 
ATOM     11  O   UNL     1      -0.584  -5.071  -2.581  0.00  0.00    -0.275 OA
ENDROOT
BRANCH   1  16
ATOM     12  C   UNL     1       0.633  -1.676   0.197  0.00  0.00    +0.162 A 
ATOM     13  C   UNL     1       0.991  -0.754  -0.773  0.00  0.00    +0.049 A 
ATOM     14  C   UNL     1       1.519  -1.187  -1.976  0.00  0.00    +0.004 A 
ATOM     15  C   UNL     1       1.690  -2.538  -2.213  0.00  0.00    +0.008 A 
ATOM     16  C   UNL     1       1.334  -3.463  -1.250  0.00  0.00    +0.014 A 
ATOM     17  C   UNL     1       0.810  -3.036  -0.040  0.00  0.00    +0.166 A 
BRANCH  12  19
ATOM     18  C   UNL     1      -0.040   0.158   1.554  0.00  0.00    +0.277 C 
ATOM     19  O   UNL     1       0.114  -1.252   1.381  0.00  0.00    -0.491 OA
ENDBRANCH  12  19
BRANCH  17  20
ATOM     20  O   UNL     1       0.465  -3.944   0.912  0.00  0.00    -0.491 OA
ATOM     21  C   UNL     1      -0.873  -4.445   0.875  0.00  0.00    +0.277 C 
ENDBRANCH  17  20
ENDBRANCH   1  16
BRANCH   9  22
ATOM     22  C   UNL     1       0.233  -6.267  -4.860  0.00  0.00    +0.112 C 
BRANCH  22  23
ATOM     23  C   UNL     1      -0.323  -7.677  -4.652  0.00  0.00    +0.006 C 
ATOM     24  C   UNL     1       0.065  -8.748  -5.674  0.00  0.00    +0.005 C 
ATOM     25  C   UNL     1      -1.357  -8.185  -5.658  0.00  0.00    +0.005 C 
ENDBRANCH  22  23
ENDBRANCH   9  22
BRANCH   5  26
ATOM     26  C   UNL     1       6.792  -5.678  -4.426  0.00  0.00    +0.157 C 
BRANCH  26  27
ATOM     27  C   UNL     1       7.587  -4.692  -3.609  0.00  0.00    +0.099 A 
ATOM     28  N   UNL     1       7.156  -3.512  -3.193  0.00  0.00    -0.349 N 
ATOM     29  C   UNL     1       8.148  -2.923  -2.494  0.00  0.00    +0.101 A 
ATOM     30  C   UNL     1       9.197  -3.769  -2.492  0.00  0.00    +0.101 A 
ATOM     31  N   UNL     1       8.829  -4.867  -3.186  0.00  0.00    -0.349 N 
ATOM     32  H   UNL     1       9.380  -5.648  -3.349  0.00  0.00    +0.166 HD
ATOM     33  H   UNL     1       6.278  -3.136  -3.361  0.00  0.00    +0.166 HD
ENDBRANCH  26  27
ENDBRANCH   5  26
TORSDOF 7
