REMARK  Name = ZINC32492990
REMARK  8 active torsions:
REMARK  status: ('A' for Active; 'I' for Inactive)
REMARK    1  A    between atoms: C_1  and  N_2
REMARK    2  A    between atoms: N_11  and  C_29
REMARK    3  A    between atoms: N_17  and  C_20
REMARK    4  A    between atoms: C_20  and  C_21
REMARK    5  A    between atoms: C_22  and  C_23
REMARK    6  A    between atoms: C_29  and  C_30
REMARK    7  A    between atoms: C_30  and  O_31
REMARK    8  A    between atoms: O_31  and  C_32
REMARK                            x       y       z     vdW  Elec       q    Type
REMARK                         _______ _______ _______ _____ _____    ______ ____
ROOT
ATOM      1  C   UNL     1       0.019   1.235  -2.272  0.00  0.00    +0.155 C 
ATOM      2  N   UNL     1      -0.050   1.250  -0.809  0.00  0.00    -0.280 N 
ATOM      3  C   UNL     1      -1.236   0.929  -0.168  0.00  0.00    +0.170 A 
ATOM      4  C   UNL     1      -1.273   0.950   1.222  0.00  0.00    +0.153 A 
ATOM      5  C   UNL     1      -0.111   1.294   1.935  0.00  0.00    +0.280 A 
ATOM      6  O   UNL     1      -0.121   1.318   3.154  0.00  0.00    -0.265 OA
ATOM      7  N   UNL     1       1.015   1.596   1.256  0.00  0.00    -0.273 N 
ATOM      8  H   UNL     1       1.818   1.834   1.745  0.00  0.00    +0.173 HD
ATOM      9  C   UNL     1       1.042   1.569  -0.087  0.00  0.00    +0.331 A 
ATOM     10  O   UNL     1       2.075   1.843  -0.666  0.00  0.00    -0.246 OA
ATOM     11  N   UNL     1      -2.566   0.593   1.584  0.00  0.00    -0.304 N 
ATOM     12  C   UNL     1      -3.249   0.374   0.429  0.00  0.00    +0.201 A 
ATOM     13  N   UNL     1      -2.449   0.577  -0.598  0.00  0.00    -0.196 NA
ATOM     14  N   UNL     1      -4.570  -0.001   0.346  0.00  0.00    -0.304 N 
ATOM     15  C   UNL     1      -4.962  -1.415   0.442  0.00  0.00    +0.089 C 
ATOM     16  C   UNL     1      -5.882  -1.746  -0.739  0.00  0.00    -0.059 C 
ATOM     17  N   UNL     1      -7.008  -0.804  -0.758  0.00  0.00    +0.384 N 
ATOM     18  C   UNL     1      -6.518   0.557  -1.008  0.00  0.00    -0.059 C 
ATOM     19  C   UNL     1      -5.631   1.002   0.165  0.00  0.00    +0.089 C 
ATOM     20  H   UNL     1      -7.483  -0.832   0.131  0.00  0.00    -0.081 HD
ENDROOT
BRANCH  17  21
ATOM     21  C   UNL     1      -7.946  -1.188  -1.822  0.00  0.00    -0.051 C 
BRANCH  21  22
ATOM     22  C   UNL     1      -9.162  -0.299  -1.765  0.00  0.00    -0.045 C 
ATOM     23  C   UNL     1      -9.561   0.349  -2.850  0.00  0.00    +0.002 C 
BRANCH  23  24
ATOM     24  C   UNL     1      -8.934   0.058  -4.157  0.00  0.00    -0.025 A 
ATOM     25  C   UNL     1      -8.638  -1.258  -4.514  0.00  0.00    +0.008 A 
ATOM     26  C   UNL     1      -8.053  -1.523  -5.736  0.00  0.00    +0.001 A 
ATOM     27  C   UNL     1      -7.759  -0.488  -6.605  0.00  0.00    +0.000 A 
ATOM     28  C   UNL     1      -8.050   0.819  -6.256  0.00  0.00    +0.001 A 
ATOM     29  C   UNL     1      -8.641   1.097  -5.041  0.00  0.00    +0.008 A 
ENDBRANCH  23  24
ENDBRANCH  21  22
ENDBRANCH  17  21
BRANCH  11  30
ATOM     30  C   UNL     1      -3.091   0.475   2.946  0.00  0.00    +0.153 C 
BRANCH  30  31
ATOM     31  C   UNL     1      -3.553   1.849   3.435  0.00  0.00    +0.181 C 
BRANCH  31  32
ATOM     32  O   UNL     1      -4.066   1.734   4.764  0.00  0.00    -0.381 OA
ATOM     33  C   UNL     1      -4.527   2.968   5.318  0.00  0.00    +0.194 C 
ENDBRANCH  31  32
ENDBRANCH  30  31
ENDBRANCH  11  30
TORSDOF 6
