REMARK  Name = ZINC66393167
REMARK  6 active torsions:
REMARK  status: ('A' for Active; 'I' for Inactive)
REMARK    1  A    between atoms: C_3  and  C_9
REMARK    2  A    between atoms: C_9  and  C_11
REMARK    3  A    between atoms: C_9  and  N_13
REMARK    4  A    between atoms: C_14  and  C_16
REMARK    5  A    between atoms: C_19  and  N_25
REMARK    6  A    between atoms: C_20  and  N_22
REMARK                            x       y       z     vdW  Elec       q    Type
REMARK                         _______ _______ _______ _____ _____    ______ ____
ROOT
ATOM      1  N   UNL     1       3.439   3.586   0.435  0.00  0.00    -0.292 N 
ATOM      2  C   UNL     1       4.401   4.126   1.210  0.00  0.00    +0.245 C 
ATOM      3  O   UNL     1       5.412   3.496   1.452  0.00  0.00    -0.270 OA
ATOM      4  H   UNL     1       2.632   4.089   0.242  0.00  0.00    +0.151 HD
ENDROOT
BRANCH   2   5
ATOM      5  C   UNL     1       4.226   5.482   1.765  0.00  0.00    +0.039 A 
ATOM      6  C   UNL     1       3.061   6.205   1.493  0.00  0.00    +0.015 A 
ATOM      7  C   UNL     1       2.901   7.469   2.012  0.00  0.00    +0.026 A 
ATOM      8  C   UNL     1       3.897   8.028   2.808  0.00  0.00    +0.055 A 
ATOM      9  C   UNL     1       5.058   7.311   3.080  0.00  0.00    +0.147 A 
ATOM     10  C   UNL     1       5.222   6.043   2.569  0.00  0.00    +0.047 A 
BRANCH   9  11
ATOM     11  N   UNL     1       6.116   7.909   3.926  0.00  0.00    +0.058 N 
ATOM     12  O   UNL     1       7.280   7.708   3.670  0.00  0.00    -0.126 OA
ATOM     13  O   UNL     1       5.815   8.598   4.873  0.00  0.00    -0.126 OA
ENDBRANCH   9  11
BRANCH   8  14
ATOM     14  N   UNL     1       3.732   9.306   3.331  0.00  0.00    -0.356 N 
ATOM     15  H   UNL     1       2.881   9.762   3.238  0.00  0.00    +0.142 HD
ATOM     16  H   UNL     1       4.468   9.741   3.788  0.00  0.00    +0.142 HD
ENDBRANCH   8  14
ENDBRANCH   2   5
BRANCH   1  17
ATOM     17  C   UNL     1       3.613   2.240  -0.116  0.00  0.00    +0.208 C 
BRANCH  17  20
ATOM     18  C   UNL     1      -0.068   1.892  -0.880  0.00  0.00    +0.002 A 
ATOM     19  C   UNL     1       1.171   2.449  -0.625  0.00  0.00    +0.008 A 
ATOM     20  C   UNL     1       2.262   1.632  -0.392  0.00  0.00    +0.006 A 
ATOM     21  C   UNL     1       2.114   0.257  -0.414  0.00  0.00    +0.065 A 
ATOM     22  C   UNL     1       0.872  -0.301  -0.669  0.00  0.00    +0.060 A 
ATOM     23  C   UNL     1      -0.218   0.518  -0.902  0.00  0.00    +0.021 A 
ATOM     24 CL   UNL     1       0.684  -2.026  -0.698  0.00  0.00    -0.082 Cl
ATOM     25 CL   UNL     1       3.483  -0.769  -0.123  0.00  0.00    -0.082 Cl
ENDBRANCH  17  20
BRANCH  17  26
ATOM     26  C   UNL     1       4.382   2.318  -1.369  0.00  0.00    +0.090 C 
ATOM     27  N   UNL     1       4.975   2.378  -2.335  0.00  0.00    -0.194 NA
ENDBRANCH  17  26
ENDBRANCH   1  17
TORSDOF 6
