REMARK  Name = ZINC16241302
REMARK  11 active torsions:
REMARK  status: ('A' for Active; 'I' for Inactive)
REMARK    1  A    between atoms: C_1  and  C_2
REMARK    2  A    between atoms: C_5  and  N_9
REMARK    3  A    between atoms: C_6  and  C_8
REMARK    4  A    between atoms: N_9  and  C_10
REMARK    5  A    between atoms: C_10  and  N_12
REMARK    6  A    between atoms: N_12  and  C_13
REMARK    7  A    between atoms: C_13  and  C_14
REMARK    8  A    between atoms: C_14  and  C_16
REMARK    9  A    between atoms: C_14  and  N_24
REMARK   10  A    between atoms: C_21  and  O_22
REMARK   11  A    between atoms: O_22  and  C_23
REMARK                            x       y       z     vdW  Elec       q    Type
REMARK                         _______ _______ _______ _____ _____    ______ ____
ROOT
ATOM      1  C   UNL     1       0.143  -6.831  -2.078  0.00  0.00    +0.092 C 
ENDROOT
BRANCH   1   2
ATOM      2  N   UNL     1       1.339  -6.355  -2.776  0.00  0.00    -0.328 N 
ATOM      3  H   UNL     1       2.048  -6.977  -3.003  0.00  0.00    +0.148 HD
BRANCH   2   4
ATOM      4  C   UNL     1       1.456  -5.053  -3.103  0.00  0.00    +0.134 C 
ATOM      5  S   UNL     1       0.205  -3.954  -2.702  0.00  0.00    -0.019 S 
BRANCH   4   6
ATOM      6  N   UNL     1       2.557  -4.615  -3.745  0.00  0.00    -0.297 N 
ATOM      7  H   UNL     1       3.235  -5.246  -4.030  0.00  0.00    +0.154 HD
BRANCH   6  12
ATOM      8  C   UNL     1       3.221   0.923  -4.779  0.00  0.00    +0.044 C 
ATOM      9  C   UNL     1       3.045  -0.548  -4.505  0.00  0.00    -0.050 A 
ATOM     10  C   UNL     1       1.837  -1.162  -4.782  0.00  0.00    +0.005 A 
ATOM     11  C   UNL     1       1.672  -2.510  -4.532  0.00  0.00    +0.024 A 
ATOM     12  C   UNL     1       2.721  -3.249  -4.000  0.00  0.00    +0.036 A 
ATOM     13  C   UNL     1       3.932  -2.630  -3.723  0.00  0.00    -0.029 A 
ATOM     14  C   UNL     1       4.093  -1.282  -3.981  0.00  0.00    +0.008 A 
ATOM     15  C   UNL     1       5.073  -3.428  -3.146  0.00  0.00    +0.045 C 
ENDBRANCH   6  12
ENDBRANCH   4   6
ENDBRANCH   2   4
ENDBRANCH   1   2
BRANCH   1  16
ATOM     16  C   UNL     1       0.317  -8.307  -1.715  0.00  0.00    -0.017 C 
BRANCH  16  17
ATOM     17  C   UNL     1       0.373  -9.131  -2.976  0.00  0.00    -0.018 A 
ATOM     18  C   UNL     1       1.591  -9.556  -3.471  0.00  0.00    +0.005 A 
ATOM     19  C   UNL     1       1.643 -10.311  -4.628  0.00  0.00    +0.000 A 
ATOM     20  C   UNL     1       0.476 -10.643  -5.292  0.00  0.00    +0.004 A 
ATOM     21  C   UNL     1      -0.744 -10.221  -4.801  0.00  0.00    +0.046 A 
ATOM     22  C   UNL     1      -0.799  -9.468  -3.638  0.00  0.00    +0.122 A 
BRANCH  22  23
ATOM     23  O   UNL     1      -1.998  -9.056  -3.150  0.00  0.00    -0.495 OA
ATOM     24  C   UNL     1      -3.163  -9.440  -3.883  0.00  0.00    +0.277 C 
ENDBRANCH  22  23
ENDBRANCH  16  17
BRANCH  16  25
ATOM     25  N   UNL     1       1.565  -8.482  -0.961  0.00  0.00    +0.385 N 
ATOM     26  C   UNL     1       1.726  -9.903  -0.587  0.00  0.00    -0.078 C 
ATOM     27  C   UNL     1       2.379  -9.872   0.817  0.00  0.00    -0.020 C 
ATOM     28  C   UNL     1       1.679  -8.646   1.461  0.00  0.00    -0.020 C 
ATOM     29  C   UNL     1       1.516  -7.675   0.272  0.00  0.00    -0.078 C 
ATOM     30  H   UNL     1       2.349  -8.191  -1.526  0.00  0.00    -0.081 HD
ENDBRANCH  16  25
ENDBRANCH   1  16
TORSDOF 8
