REMARK  Name = ZINC19732747
REMARK  9 active torsions:
REMARK  status: ('A' for Active; 'I' for Inactive)
REMARK    1  A    between atoms: C_1  and  C_2
REMARK    2  A    between atoms: C_4  and  S_8
REMARK    3  A    between atoms: S_8  and  C_9
REMARK    4  A    between atoms: C_9  and  C_10
REMARK    5  A    between atoms: C_10  and  N_11
REMARK    6  A    between atoms: C_12  and  C_14
REMARK    7  A    between atoms: C_14  and  C_15
REMARK    8  A    between atoms: N_22  and  C_23
REMARK    9  A    between atoms: C_23  and  C_24
REMARK                            x       y       z     vdW  Elec       q    Type
REMARK                         _______ _______ _______ _____ _____    ______ ____
ROOT
ATOM      1  C   UNL     1       0.348  -0.615  -1.362  0.00  0.00    +0.028 C 
ATOM      2  C   UNL     1       0.122  -2.080  -1.607  0.00  0.00    +0.200 C 
ATOM      3  O   UNL     1       0.584  -2.580  -2.611  0.00  0.00    -0.278 OA
ATOM      4  N   UNL     1      -0.567  -2.856  -0.764  0.00  0.00    -0.318 N 
ATOM      5  C   UNL     1      -1.132  -2.362   0.488  0.00  0.00    +0.085 C 
ATOM      6  C   UNL     1      -1.219  -0.835   0.458  0.00  0.00    -0.059 C 
ATOM      7  N   UNL     1       0.088  -0.295   0.048  0.00  0.00    +0.389 N 
ATOM      8  H   UNL     1      -0.700  -3.910  -1.049  0.00  0.00    +0.149 HD
ATOM      9  H   UNL     1       0.870  -0.767   0.661  0.00  0.00    -0.081 HD
ENDROOT
BRANCH   1  10
ATOM     10  C   UNL     1       1.797  -0.261  -1.704  0.00  0.00    +0.089 C 
BRANCH  10  12
ATOM     11  N   UNL     1       4.060  -0.948  -0.981  0.00  0.00    -0.315 N 
ATOM     12  C   UNL     1       2.728  -1.016  -0.791  0.00  0.00    +0.212 C 
ATOM     13  O   UNL     1       2.278  -1.684   0.115  0.00  0.00    -0.276 OA
ATOM     14  H   UNL     1       4.468  -0.341  -1.803  0.00  0.00    +0.149 HD
BRANCH  11  15
ATOM     15  C   UNL     1       4.965  -1.681  -0.093  0.00  0.00    +0.115 C 
BRANCH  15  16
ATOM     16  C   UNL     1       6.413  -1.436  -0.524  0.00  0.00    +0.096 C 
BRANCH  16  17
ATOM     17  S   UNL     1       7.531  -2.342   0.573  0.00  0.00    -0.085 S 
BRANCH  17  21
ATOM     18  C   UNL     1      11.170  -0.170  -2.537  0.00  0.00    +0.090 C 
ATOM     19  C   UNL     1      10.566  -0.988  -1.424  0.00  0.00    +0.149 A 
ATOM     20  N   UNL     1       9.262  -1.105  -1.171  0.00  0.00    -0.206 NA
ATOM     21  C   UNL     1       9.082  -1.893  -0.131  0.00  0.00    +0.184 A 
ATOM     22  N   UNL     1      10.298  -2.290   0.303  0.00  0.00    -0.254 N 
ATOM     23  H   UNL     1      10.380  -2.954   1.175  0.00  0.00    +0.191 HD
ATOM     24  N   UNL     1      11.237  -1.694  -0.555  0.00  0.00    -0.157 NA
ENDBRANCH  17  21
ENDBRANCH  16  17
ENDBRANCH  15  16
ENDBRANCH  11  15
ENDBRANCH  10  12
ENDBRANCH   1  10
BRANCH   7  25
ATOM     25  C   UNL     1       0.156   1.153   0.280  0.00  0.00    -0.074 C 
BRANCH  25  26
ATOM     26  C   UNL     1      -1.223   1.773   0.042  0.00  0.00    -0.028 C 
ATOM     27  C   UNL     1      -1.626   1.573  -1.421  0.00  0.00    +0.002 C 
ATOM     28  C   UNL     1      -3.004   2.193  -1.659  0.00  0.00    +0.000 C 
ATOM     29  C   UNL     1      -2.952   3.689  -1.345  0.00  0.00    +0.000 C 
ATOM     30  C   UNL     1      -2.549   3.889   0.118  0.00  0.00    +0.000 C 
ATOM     31  C   UNL     1      -1.171   3.270   0.356  0.00  0.00    +0.002 C 
ENDBRANCH  25  26
ENDBRANCH   7  25
TORSDOF 8
