REMARK  Name = ZINC65670103
REMARK  4 active torsions:
REMARK  status: ('A' for Active; 'I' for Inactive)
REMARK    1  A    between atoms: C_1  and  C_2
REMARK    2  A    between atoms: C_2  and  C_3
REMARK    3  A    between atoms: C_2  and  N_15
REMARK    4  A    between atoms: C_16  and  C_18
REMARK                            x       y       z     vdW  Elec       q    Type
REMARK                         _______ _______ _______ _____ _____    ______ ____
ROOT
ATOM      1  C   UNL     1      -0.019   1.526   0.010  0.00  0.00    +0.033 C 
ATOM      2  C   UNL     1       0.002  -0.004   0.002  0.00  0.00    +0.100 C 
ENDROOT
BRANCH   2   3
ATOM      3  C   UNL     1       0.707  -0.490  -1.238  0.00  0.00    -0.025 A 
ATOM      4  C   UNL     1       2.091  -0.510  -1.281  0.00  0.00    +0.007 A 
ATOM      5  C   UNL     1       2.747  -0.953  -2.413  0.00  0.00    +0.028 A 
ATOM      6  C   UNL     1       2.015  -1.381  -3.510  0.00  0.00    +0.067 A 
ATOM      7  C   UNL     1       0.620  -1.361  -3.467  0.00  0.00    +0.067 A 
ATOM      8  C   UNL     1      -0.029  -0.919  -2.324  0.00  0.00    +0.033 A 
ATOM      9  N   UNL     1       0.172  -1.841  -4.696  0.00  0.00    -0.306 N 
ATOM     10  H   UNL     1      -0.755  -1.943  -4.962  0.00  0.00    +0.170 HD
ATOM     11  C   UNL     1       1.246  -2.139  -5.451  0.00  0.00    +0.325 A 
ATOM     12  O   UNL     1       1.205  -2.582  -6.584  0.00  0.00    -0.247 OA
ATOM     13  N   UNL     1       2.373  -1.872  -4.764  0.00  0.00    -0.306 N 
ATOM     14  H   UNL     1       3.278  -2.000  -5.087  0.00  0.00    +0.170 HD
ENDBRANCH   2   3
BRANCH   2  15
ATOM     15  N   UNL     1       0.711  -0.489   1.189  0.00  0.00    -0.305 N 
ATOM     16  C   UNL     1       0.051  -0.633   2.355  0.00  0.00    +0.247 C 
ATOM     17  O   UNL     1      -1.131  -0.361   2.423  0.00  0.00    -0.270 OA
ATOM     18  H   UNL     1       1.654  -0.707   1.135  0.00  0.00    +0.150 HD
BRANCH  16  19
ATOM     19  C   UNL     1       0.766  -1.123   3.553  0.00  0.00    +0.074 A 
ATOM     20  C   UNL     1       2.129  -1.435   3.490  0.00  0.00    +0.032 A 
ATOM     21  C   UNL     1       2.752  -1.889   4.640  0.00  0.00    +0.037 A 
ATOM     22  C   UNL     1       2.014  -2.019   5.804  0.00  0.00    +0.127 A 
ATOM     23  N   UNL     1       0.731  -1.718   5.834  0.00  0.00    -0.242 NA
ATOM     24  C   UNL     1       0.094  -1.277   4.768  0.00  0.00    +0.141 A 
ATOM     25 CL   UNL     1      -1.595  -0.890   4.872  0.00  0.00    -0.061 Cl
ATOM     26 BR   UNL     1       4.591  -2.328   4.620  0.00  0.00    -0.049 Br
ENDBRANCH  16  19
ENDBRANCH   2  15
TORSDOF 3
