REMARK  Name = ZINC49015599
REMARK  7 active torsions:
REMARK  status: ('A' for Active; 'I' for Inactive)
REMARK    1  A    between atoms: C_1  and  C_2
REMARK    2  A    between atoms: C_7  and  N_10
REMARK    3  A    between atoms: N_10  and  C_11
REMARK    4  A    between atoms: N_10  and  S_12
REMARK    5  A    between atoms: S_12  and  C_15
REMARK    6  A    between atoms: C_18  and  C_20
REMARK    7  A    between atoms: C_20  and  N_21
REMARK                            x       y       z     vdW  Elec       q    Type
REMARK                         _______ _______ _______ _____ _____    ______ ____
ROOT
ATOM      1  S   UNL     1       2.829  -3.459   2.250  0.00  0.00    +0.067 S 
ATOM      2  O   UNL     1       2.956  -4.213   3.448  0.00  0.00    -0.152 OA
ATOM      3  O   UNL     1       2.744  -4.070   0.970  0.00  0.00    -0.152 OA
ENDROOT
BRANCH   1   4
ATOM      4  C   UNL     1       4.209  -2.365   2.195  0.00  0.00    +0.143 A 
ATOM      5  C   UNL     1       4.971  -1.900   3.215  0.00  0.00    +0.036 A 
ATOM      6  C   UNL     1       6.016  -1.040   2.933  0.00  0.00    +0.011 A 
ATOM      7  C   UNL     1       6.249  -0.688   1.645  0.00  0.00    -0.026 A 
ATOM      8  S   UNL     1       4.972  -1.588   0.780  0.00  0.00    -0.075 S 
BRANCH   7   9
ATOM      9  C   UNL     1       7.313   0.222   1.087  0.00  0.00    -0.043 C 
BRANCH   9  10
ATOM     10  N   UNL     1       8.510  -0.566   0.764  0.00  0.00    +0.381 N 
ATOM     11  H   UNL     1       8.855  -1.012   1.600  0.00  0.00    -0.090 HD
ATOM     12  H   UNL     1       8.276  -1.268   0.079  0.00  0.00    -0.090 HD
ATOM     13  H   UNL     1       9.222   0.044   0.390  0.00  0.00    -0.090 HD
ENDBRANCH   9  10
ENDBRANCH   7   9
ENDBRANCH   1   4
BRANCH   1  14
ATOM     14  N   UNL     1       1.471  -2.526   2.420  0.00  0.00    -0.176 NA
ATOM     15  C   UNL     1       0.979  -2.186   3.757  0.00  0.00    +0.132 C 
BRANCH  14  21
ATOM     16  C   UNL     1      -0.019   1.526   0.010  0.00  0.00    +0.007 C 
ATOM     17  C   UNL     1       0.002  -0.004   0.002  0.00  0.00    -0.013 C 
ATOM     18  C   UNL     1      -1.433  -0.534   0.013  0.00  0.00    +0.003 C 
ATOM     19  C   UNL     1      -1.413  -2.063   0.004  0.00  0.00    +0.002 C 
ATOM     20  C   UNL     1      -0.673  -2.570   1.244  0.00  0.00    +0.020 C 
ATOM     21  C   UNL     1       0.763  -2.041   1.233  0.00  0.00    +0.080 C 
ATOM     22  C   UNL     1       0.742  -0.511   1.242  0.00  0.00    +0.024 C 
ENDBRANCH  14  21
ENDBRANCH   1  14
TORSDOF 5
