REMARK  Name = ZINC36492617
REMARK  10 active torsions:
REMARK  status: ('A' for Active; 'I' for Inactive)
REMARK    1  A    between atoms: C_3  and  N_36
REMARK    2  A    between atoms: C_6  and  C_7
REMARK    3  A    between atoms: N_9  and  C_10
REMARK    4  A    between atoms: N_9  and  C_16
REMARK    5  A    between atoms: C_16  and  C_18
REMARK    6  A    between atoms: C_16  and  C_27
REMARK    7  A    between atoms: C_19  and  O_26
REMARK    8  A    between atoms: C_21  and  O_25
REMARK    9  A    between atoms: C_23  and  O_24
REMARK   10  A    between atoms: N_29  and  C_30
REMARK                            x       y       z     vdW  Elec       q    Type
REMARK                         _______ _______ _______ _____ _____    ______ ____
ROOT
ATOM      1  C   UNL     1      -2.515  -2.892  -0.475  0.00  0.00    +0.200 C 
ENDROOT
BRANCH   1   2
ATOM      2  C   UNL     1      -2.396  -3.909   0.630  0.00  0.00    +0.065 A 
ATOM      3  C   UNL     1      -2.284  -5.257   0.323  0.00  0.00    +0.129 A 
ATOM      4  C   UNL     1      -2.174  -6.193   1.340  0.00  0.00    +0.091 A 
ATOM      5  C   UNL     1      -2.176  -5.782   2.664  0.00  0.00    +0.124 A 
ATOM      6  C   UNL     1      -2.287  -4.434   2.971  0.00  0.00    +0.091 A 
ATOM      7  C   UNL     1      -2.393  -3.498   1.954  0.00  0.00    +0.129 A 
BRANCH   7   8
ATOM      8  O   UNL     1      -2.497  -2.177   2.255  0.00  0.00    -0.506 OA
ATOM      9  H   UNL     1      -3.407  -1.870   2.368  0.00  0.00    +0.292 HD
ENDBRANCH   7   8
BRANCH   5  10
ATOM     10  O   UNL     1      -2.069  -6.700   3.661  0.00  0.00    -0.507 OA
ATOM     11  H   UNL     1      -1.159  -6.888   3.927  0.00  0.00    +0.292 HD
ENDBRANCH   5  10
BRANCH   3  12
ATOM     12  O   UNL     1      -2.282  -5.660  -0.975  0.00  0.00    -0.506 OA
ATOM     13  H   UNL     1      -1.398  -5.785  -1.347  0.00  0.00    +0.292 HD
ENDBRANCH   3  12
ENDBRANCH   1   2
BRANCH   1  14
ATOM     14  C   UNL     1      -2.306  -3.568  -1.805  0.00  0.00    +0.239 C 
ATOM     15  O   UNL     1      -1.220  -3.528  -2.342  0.00  0.00    -0.273 OA
ATOM     16  N   UNL     1      -3.327  -4.218  -2.399  0.00  0.00    -0.311 N 
ATOM     17  H   UNL     1      -4.213  -4.191  -2.005  0.00  0.00    +0.149 HD
BRANCH  16  18
ATOM     18  C   UNL     1      -3.099  -4.965  -3.638  0.00  0.00    +0.073 C 
ATOM     19  C   UNL     1      -3.203  -4.014  -4.833  0.00  0.00    +0.022 C 
ATOM     20  C   UNL     1      -2.964  -4.793  -6.127  0.00  0.00    +0.002 C 
ATOM     21  C   UNL     1      -4.017  -5.896  -6.260  0.00  0.00    +0.000 C 
ATOM     22  C   UNL     1      -3.913  -6.847  -5.066  0.00  0.00    +0.002 C 
ATOM     23  C   UNL     1      -4.151  -6.067  -3.771  0.00  0.00    +0.022 C 
ENDBRANCH  16  18
ENDBRANCH   1  14
BRANCH   1  26
ATOM     24  C   UNL     1      -1.871  -0.558  -0.202  0.00  0.00    +0.248 C 
ATOM     25  O   UNL     1      -3.046  -0.268  -0.096  0.00  0.00    -0.270 OA
ATOM     26  N   UNL     1      -1.501  -1.851  -0.292  0.00  0.00    -0.279 N 
BRANCH  24  32
ATOM     27  C   UNL     1      -1.231   1.848  -0.303  0.00  0.00    +0.015 A 
ATOM     28  C   UNL     1      -0.270   2.837  -0.331  0.00  0.00    +0.033 A 
ATOM     29  C   UNL     1       1.072   2.504  -0.290  0.00  0.00    +0.126 A 
ATOM     30  C   UNL     1       1.460   1.177  -0.221  0.00  0.00    +0.033 A 
ATOM     31  C   UNL     1       0.509   0.178  -0.193  0.00  0.00    +0.015 A 
ATOM     32  C   UNL     1      -0.846   0.508  -0.233  0.00  0.00    +0.037 A 
BRANCH  29  33
ATOM     33  N   UNL     1       2.098   3.571  -0.321  0.00  0.00    +0.056 N 
ATOM     34  O   UNL     1       1.762   4.730  -0.381  0.00  0.00    -0.126 OA
ATOM     35  O   UNL     1       3.272   3.282  -0.285  0.00  0.00    -0.126 OA
ENDBRANCH  29  33
ENDBRANCH  24  32
BRANCH  26  36
ATOM     36  C   UNL     1      -0.084  -2.215  -0.206  0.00  0.00    +0.077 C 
ATOM     37  C   UNL     1       0.629  -1.796  -1.494  0.00  0.00    +0.022 C 
ATOM     38  C   UNL     1       2.108  -2.177  -1.404  0.00  0.00    +0.002 C 
ATOM     39  C   UNL     1       2.235  -3.691  -1.220  0.00  0.00    +0.000 C 
ATOM     40  C   UNL     1       1.522  -4.110   0.067  0.00  0.00    +0.002 C 
ATOM     41  C   UNL     1       0.043  -3.729  -0.022  0.00  0.00    +0.022 C 
ENDBRANCH  26  36
ENDBRANCH   1  26
TORSDOF 10
