REMARK  Name = ZINC44377823
REMARK  9 active torsions:
REMARK  status: ('A' for Active; 'I' for Inactive)
REMARK    1  A    between atoms: C_1  and  C_2
REMARK    2  A    between atoms: C_2  and  C_3
REMARK    3  A    between atoms: C_2  and  C_4
REMARK    4  A    between atoms: C_7  and  C_10
REMARK    5  A    between atoms: C_15  and  C_19
REMARK    6  A    between atoms: C_15  and  C_20
REMARK    7  A    between atoms: C_24  and  C_29
REMARK    8  A    between atoms: C_29  and  C_31
REMARK    9  A    between atoms: C_31  and  C_32
REMARK                            x       y       z     vdW  Elec       q    Type
REMARK                         _______ _______ _______ _____ _____    ______ ____
ROOT
ATOM      1  C   UNL     1       2.797  -1.919   4.683  0.00  0.00    +0.136 C 
ATOM      2  C   UNL     1       3.189  -3.358   4.450  0.00  0.00    +0.036 C 
ATOM      3  C   UNL     1       2.659  -4.429   5.066  0.00  0.00    +0.017 C 
ATOM      4  C   UNL     1       3.152  -5.829   4.741  0.00  0.00    +0.058 C 
ATOM      5  C   UNL     1       3.597  -5.901   3.281  0.00  0.00    -0.023 C 
ATOM      6  C   UNL     1       4.722  -4.876   3.086  0.00  0.00    +0.086 C 
ATOM      7  C   UNL     1       4.208  -3.525   3.482  0.00  0.00    +0.163 C 
ATOM      8  O   UNL     1       4.683  -2.538   2.955  0.00  0.00    -0.292 OA
ATOM      9  C   UNL     1       4.115  -7.305   2.966  0.00  0.00    +0.011 C 
ATOM     10  C   UNL     1       2.421  -5.562   2.363  0.00  0.00    +0.011 C 
ATOM     11  N   UNL     1       1.686  -4.373   6.011  0.00  0.00    -0.316 N 
ATOM     12  C   UNL     1       0.526  -3.611   5.914  0.00  0.00    +0.053 A 
ATOM     13  C   UNL     1      -0.725  -4.184   5.844  0.00  0.00    +0.036 A 
ATOM     14  C   UNL     1      -1.856  -3.355   5.796  0.00  0.00    +0.020 A 
ATOM     15  C   UNL     1      -1.704  -1.963   5.823  0.00  0.00    +0.013 A 
ATOM     16  C   UNL     1      -0.446  -1.403   5.875  0.00  0.00    +0.025 A 
ATOM     17  C   UNL     1       0.673  -2.228   5.900  0.00  0.00    +0.049 A 
ATOM     18  N   UNL     1       1.954  -1.707   5.840  0.00  0.00    -0.331 N 
ATOM     19  H   UNL     1       1.808  -4.904   6.813  0.00  0.00    +0.152 HD
ATOM     20  H   UNL     1       2.290  -1.187   6.586  0.00  0.00    +0.147 HD
ENDROOT
BRANCH   1  24
ATOM     21  C   UNL     1       0.731  -0.503   1.223  0.00  0.00    -0.045 A 
ATOM     22  C   UNL     1       1.955   0.040   1.568  0.00  0.00    +0.004 A 
ATOM     23  C   UNL     1       2.623  -0.418   2.688  0.00  0.00    +0.006 A 
ATOM     24  C   UNL     1       2.068  -1.419   3.463  0.00  0.00    -0.023 A 
ATOM     25  C   UNL     1       0.844  -1.961   3.118  0.00  0.00    +0.006 A 
ATOM     26  C   UNL     1       0.174  -1.500   2.001  0.00  0.00    +0.004 A 
BRANCH  21  28
ATOM     27  C   UNL     1      -0.281   1.492   0.153  0.00  0.00    +0.012 C 
ATOM     28  C   UNL     1       0.003  -0.004   0.002  0.00  0.00    +0.013 C 
ATOM     29  C   UNL     1       0.868  -0.236  -1.239  0.00  0.00    +0.012 C 
ENDBRANCH  21  28
ENDBRANCH   1  24
BRANCH  14  30
ATOM     30  C   UNL     1      -3.197  -3.946   5.718  0.00  0.00    +0.174 C 
ATOM     31  O   UNL     1      -3.328  -5.152   5.694  0.00  0.00    -0.291 OA
BRANCH  30  32
ATOM     32  C   UNL     1      -4.411  -3.055   5.666  0.00  0.00    +0.204 C 
BRANCH  32  33
ATOM     33  C   UNL     1      -5.654  -3.904   5.589  0.00  0.00    +0.363 C 
ATOM     34  O   UNL     1      -5.563  -5.119   5.577  0.00  0.00    -0.246 OA
ATOM     35  O   UNL     1      -6.752  -3.374   5.539  0.00  0.00    -0.246 OA
ENDBRANCH  32  33
ENDBRANCH  30  32
ENDBRANCH  14  30
TORSDOF 5
