REMARK  Name = ZINC09238227
REMARK  6 active torsions:
REMARK  status: ('A' for Active; 'I' for Inactive)
REMARK    1  A    between atoms: C_1  and  C_2
REMARK    2  A    between atoms: N_4  and  C_5
REMARK    3  A    between atoms: C_8  and  N_11
REMARK    4  A    between atoms: N_11  and  C_12
REMARK    5  A    between atoms: N_15  and  C_20
REMARK    6  A    between atoms: C_31  and  C_33
REMARK                            x       y       z     vdW  Elec       q    Type
REMARK                         _______ _______ _______ _____ _____    ______ ____
ROOT
ATOM      1  C   UNL     1       0.881   2.001  -0.020  0.00  0.00    +0.075 A 
ATOM      2  C   UNL     1       0.832   3.407  -0.136  0.00  0.00    +0.157 A 
ATOM      3  N   UNL     1       1.931   4.099  -0.239  0.00  0.00    -0.174 NA
ATOM      4  N   UNL     1       3.182   3.472  -0.236  0.00  0.00    -0.221 N 
ATOM      5  C   UNL     1       3.276   2.132  -0.128  0.00  0.00    +0.288 A 
ATOM      6  O   UNL     1       4.371   1.592  -0.127  0.00  0.00    -0.265 OA
ATOM      7  C   UNL     1       2.109   1.363  -0.010  0.00  0.00    +0.129 A 
ATOM      8 CL   UNL     1       2.203  -0.364   0.138  0.00  0.00    -0.076 Cl
ENDROOT
BRANCH   4   9
ATOM      9  C   UNL     1       4.399   4.279  -0.353  0.00  0.00    +0.081 C 
ATOM     10  C   UNL     1       5.310   4.004   0.845  0.00  0.00    +0.034 C 
ATOM     11  C   UNL     1       6.581   4.846   0.722  0.00  0.00    -0.008 C 
ATOM     12  C   UNL     1       6.209   6.330   0.695  0.00  0.00    +0.007 C 
ATOM     13  C   UNL     1       5.298   6.606  -0.503  0.00  0.00    -0.008 C 
ATOM     14  C   UNL     1       4.027   5.763  -0.381  0.00  0.00    +0.034 C 
ATOM     15  C   UNL     1       6.030   6.240  -1.795  0.00  0.00    +0.008 C 
ATOM     16  C   UNL     1       6.402   4.756  -1.768  0.00  0.00    +0.006 C 
ATOM     17  C   UNL     1       7.314   4.481  -0.570  0.00  0.00    +0.008 C 
ATOM     18  C   UNL     1       5.131   3.913  -1.646  0.00  0.00    +0.133 C 
BRANCH  18  19
ATOM     19  C   UNL     1       4.233   4.184  -2.826  0.00  0.00    +0.362 C 
ATOM     20  O   UNL     1       3.091   4.536  -2.647  0.00  0.00    -0.246 OA
ATOM     21  O   UNL     1       4.703   4.035  -4.074  0.00  0.00    -0.246 OA
ENDBRANCH  18  19
ENDBRANCH   4   9
BRANCH   1  22
ATOM     22  N   UNL     1      -0.288   1.267   0.089  0.00  0.00    -0.312 N 
ATOM     23  H   UNL     1      -0.503   0.595  -0.576  0.00  0.00    +0.152 HD
BRANCH  22  27
ATOM     24  C   UNL     1      -2.894   1.961   3.268  0.00  0.00    +0.033 A 
ATOM     25  C   UNL     1      -3.158   0.940   2.365  0.00  0.00    +0.025 A 
ATOM     26  C   UNL     1      -2.295   0.710   1.312  0.00  0.00    +0.025 A 
ATOM     27  C   UNL     1      -1.163   1.500   1.156  0.00  0.00    +0.031 A 
ATOM     28  C   UNL     1      -0.897   2.518   2.063  0.00  0.00    +0.025 A 
ATOM     29  C   UNL     1      -1.763   2.751   3.113  0.00  0.00    +0.025 A 
BRANCH  24  33
ATOM     30  C   UNL     1      -5.446   1.422   5.984  0.00  0.00    +0.109 C 
ATOM     31  C   UNL     1      -4.406   1.161   4.925  0.00  0.00    +0.214 C 
ATOM     32  O   UNL     1      -4.140   0.023   4.603  0.00  0.00    -0.276 OA
ATOM     33  N   UNL     1      -3.771   2.194   4.336  0.00  0.00    -0.286 N 
ATOM     34  H   UNL     1      -3.921   3.099   4.652  0.00  0.00    +0.155 HD
ENDBRANCH  24  33
ENDBRANCH  22  27
ENDBRANCH   1  22
TORSDOF 5
