REMARK  Name = ZINC37286009
REMARK  3 active torsions:
REMARK  status: ('A' for Active; 'I' for Inactive)
REMARK    1  A    between atoms: C_4  and  C_10
REMARK    2  A    between atoms: C_6  and  N_7
REMARK    3  A    between atoms: N_12  and  C_13
REMARK                            x       y       z     vdW  Elec       q    Type
REMARK                         _______ _______ _______ _____ _____    ______ ____
ROOT
ATOM      1  C   UNL     1       3.695  -0.686  -0.038  0.00  0.00    +0.245 C 
ATOM      2  O   UNL     1       4.738  -0.061  -0.046  0.00  0.00    -0.270 OA
ATOM      3  N   UNL     1       3.716  -2.033  -0.046  0.00  0.00    -0.310 N 
ATOM      4  H   UNL     1       2.884  -2.532  -0.040  0.00  0.00    +0.149 HD
ENDROOT
BRANCH   3   5
ATOM      5  C   UNL     1       4.996  -2.746  -0.063  0.00  0.00    +0.060 C 
ATOM      6  C   UNL     1       5.517  -2.899   1.368  0.00  0.00    -0.056 C 
ATOM      7  N   UNL     1       5.662  -4.318   1.700  0.00  0.00    +0.381 N 
ATOM      8  C   UNL     1       4.367  -4.999   1.629  0.00  0.00    -0.078 C 
ATOM      9  C   UNL     1       3.808  -4.916   0.207  0.00  0.00    -0.014 C 
ATOM     10  C   UNL     1       4.801  -4.140  -0.673  0.00  0.00    +0.004 C 
ATOM     11  C   UNL     1       6.148  -4.874  -0.644  0.00  0.00    -0.014 C 
ATOM     12  C   UNL     1       6.631  -4.960   0.809  0.00  0.00    -0.078 C 
ATOM     13  H   UNL     1       6.002  -4.391   2.647  0.00  0.00    -0.082 HD
ENDBRANCH   3   5
BRANCH   1  17
ATOM     14  C   UNL     1      -0.017   1.379   0.010  0.00  0.00    +0.034 A 
ATOM     15  C   UNL     1       1.168   2.094   0.002  0.00  0.00    +0.017 A 
ATOM     16  C   UNL     1       2.378   1.429  -0.013  0.00  0.00    +0.026 A 
ATOM     17  C   UNL     1       2.404   0.033  -0.021  0.00  0.00    +0.052 A 
ATOM     18  C   UNL     1       1.204  -0.681  -0.013  0.00  0.00    +0.046 A 
ATOM     19  C   UNL     1       0.002  -0.004   0.002  0.00  0.00    +0.127 A 
ATOM     20  I   UNL     1       4.171   2.513  -0.026  0.00  0.00    -0.043 I 
BRANCH  19  21
ATOM     21  N   UNL     1      -1.271  -0.760   0.011  0.00  0.00    +0.056 N 
ATOM     22  O   UNL     1      -2.325  -0.168   0.024  0.00  0.00    -0.126 OA
ATOM     23  O   UNL     1      -1.256  -1.969   0.004  0.00  0.00    -0.126 OA
ENDBRANCH  19  21
ENDBRANCH   1  17
TORSDOF 3
