REMARK  Name = ZINC64230954
REMARK  9 active torsions:
REMARK  status: ('A' for Active; 'I' for Inactive)
REMARK    1  A    between atoms: C_1  and  C_2
REMARK    2  A    between atoms: C_4  and  C_37
REMARK    3  A    between atoms: C_8  and  C_12
REMARK    4  A    between atoms: C_12  and  C_13
REMARK    5  A    between atoms: N_15  and  N_16
REMARK    6  A    between atoms: C_17  and  C_18
REMARK    7  A    between atoms: C_19  and  C_35
REMARK    8  A    between atoms: N_21  and  C_29
REMARK    9  A    between atoms: C_22  and  N_24
REMARK                            x       y       z     vdW  Elec       q    Type
REMARK                         _______ _______ _______ _____ _____    ______ ____
ROOT
ATOM      1  N   UNL     1      -5.114  -9.622   8.682  0.00  0.00    -0.188 NA
ATOM      2  C   UNL     1      -6.077  -8.892   9.166  0.00  0.00    +0.138 C 
ENDROOT
BRANCH   2   3
ATOM      3  C   UNL     1      -7.165  -8.447   8.297  0.00  0.00    +0.026 C 
ATOM      4  C   UNL     1      -7.368  -8.814   7.023  0.00  0.00    +0.027 C 
ATOM      5  N   UNL     1      -8.481  -8.212   6.495  0.00  0.00    -0.266 N 
ATOM      6  N   UNL     1      -9.091  -7.381   7.444  0.00  0.00    -0.231 N 
ATOM      7  C   UNL     1      -8.278  -7.491   8.667  0.00  0.00    +0.197 C 
ATOM      8  C   UNL     1      -6.481  -9.768   6.265  0.00  0.00    +0.062 C 
ATOM      9  H   UNL     1      -8.802  -8.343   5.590  0.00  0.00    +0.170 HD
BRANCH   6  10
ATOM     10  C   UNL     1     -10.242  -6.609   7.268  0.00  0.00    +0.050 A 
ATOM     11  C   UNL     1     -10.655  -5.737   8.267  0.00  0.00    +0.025 A 
ATOM     12  C   UNL     1     -11.794  -4.976   8.090  0.00  0.00    +0.002 A 
ATOM     13  C   UNL     1     -12.522  -5.081   6.919  0.00  0.00    +0.000 A 
ATOM     14  C   UNL     1     -12.114  -5.948   5.922  0.00  0.00    +0.002 A 
ATOM     15  C   UNL     1     -10.973  -6.708   6.091  0.00  0.00    +0.025 A 
ENDBRANCH   6  10
BRANCH   7  16
ATOM     16  N   UNL     1      -7.727  -6.179   9.032  0.00  0.00    -0.279 NA
ATOM     17  C   UNL     1      -7.038  -6.238  10.347  0.00  0.00    +0.086 C 
ATOM     18  C   UNL     1      -6.109  -4.998  10.316  0.00  0.00    +0.017 C 
ATOM     19  C   UNL     1      -5.637  -4.956   8.844  0.00  0.00    +0.017 C 
ATOM     20  C   UNL     1      -6.700  -5.746   8.058  0.00  0.00    +0.086 C 
ENDBRANCH   7  16
ENDBRANCH   2   3
BRANCH   1  23
ATOM     21  C   UNL     1      -3.075 -10.805   9.015  0.00  0.00    +0.239 C 
ATOM     22  O   UNL     1      -3.081 -11.117   7.842  0.00  0.00    -0.274 OA
ATOM     23  N   UNL     1      -4.072 -10.049   9.516  0.00  0.00    -0.207 N 
ATOM     24  H   UNL     1      -4.068  -9.799  10.453  0.00  0.00    +0.177 HD
BRANCH  21  25
ATOM     25  C   UNL     1      -1.954 -11.264   9.911  0.00  0.00    +0.171 C 
BRANCH  25  32
ATOM     26  C   UNL     1       4.236 -14.274   7.406  0.00  0.00    +0.024 C 
ATOM     27  C   UNL     1       2.904 -14.831   7.914  0.00  0.00    +0.076 C 
ATOM     28  C   UNL     1       1.754 -14.343   7.063  0.00  0.00    -0.045 C 
ATOM     29  C   UNL     1       0.811 -13.596   7.656  0.00  0.00    +0.071 C 
ATOM     30  C   UNL     1       0.970 -13.307   9.098  0.00  0.00    +0.111 C 
ATOM     31  N   UNL     1       0.082 -12.582   9.734  0.00  0.00    -0.227 NA
ATOM     32  C   UNL     1      -0.978 -12.088   9.112  0.00  0.00    +0.132 C 
ATOM     33  N   UNL     1      -1.222 -12.278   7.838  0.00  0.00    -0.161 NA
ATOM     34  C   UNL     1      -0.418 -12.995   7.046  0.00  0.00    +0.271 C 
ATOM     35  O   UNL     1      -0.675 -13.152   5.865  0.00  0.00    -0.268 OA
ATOM     36  S   UNL     1       2.479 -14.124   9.558  0.00  0.00    -0.098 S 
ATOM     37  C   UNL     1       1.669 -14.684   5.598  0.00  0.00    +0.041 C 
ENDBRANCH  25  32
ENDBRANCH  21  25
ENDBRANCH   1  23
TORSDOF 6
