REMARK  Name = ZINC44924353
REMARK  6 active torsions:
REMARK  status: ('A' for Active; 'I' for Inactive)
REMARK    1  A    between atoms: C_1  and  C_2
REMARK    2  A    between atoms: C_3  and  N_17
REMARK    3  A    between atoms: C_4  and  N_8
REMARK    4  A    between atoms: N_5  and  C_7
REMARK    5  A    between atoms: N_8  and  C_9
REMARK    6  A    between atoms: C_9  and  C_16
REMARK                            x       y       z     vdW  Elec       q    Type
REMARK                         _______ _______ _______ _____ _____    ______ ____
ROOT
ATOM      1  C   UNL     1      -3.165  -0.007   1.817  0.00  0.00    +0.069 C 
ATOM      2  C   UNL     1      -2.179  -1.055   1.366  0.00  0.00    +0.082 A 
ATOM      3  C   UNL     1      -1.650  -1.179   0.077  0.00  0.00    +0.087 A 
ATOM      4  C   UNL     1      -0.798  -2.244   0.076  0.00  0.00    +0.138 A 
ATOM      5  N   UNL     1      -0.800  -2.768   1.332  0.00  0.00    -0.252 N 
ATOM      6  N   UNL     1      -1.669  -1.999   2.116  0.00  0.00    -0.173 NA
ATOM      7  C   UNL     1      -0.026  -3.927   1.785  0.00  0.00    +0.174 C 
ENDROOT
BRANCH   3   8
ATOM      8  N   UNL     1      -1.945  -0.347  -1.028  0.00  0.00    -0.354 N 
ATOM      9  H   UNL     1      -2.567   0.390  -0.928  0.00  0.00    +0.142 HD
ATOM     10  H   UNL     1      -1.525  -0.515  -1.887  0.00  0.00    +0.142 HD
ENDBRANCH   3   8
BRANCH   4  11
ATOM     11  N   UNL     1      -0.060  -2.712  -1.014  0.00  0.00    -0.321 N 
ATOM     12  H   UNL     1       0.206  -2.100  -1.718  0.00  0.00    +0.148 HD
BRANCH  11  13
ATOM     13  C   UNL     1       0.310  -4.128  -1.094  0.00  0.00    +0.051 C 
ATOM     14  C   UNL     1      -0.831  -4.966  -0.520  0.00  0.00    +0.049 C 
ATOM     15  C   UNL     1      -1.834  -5.350  -1.644  0.00  0.00    +0.168 C 
ATOM     16  S   UNL     1      -0.645  -5.699  -3.013  0.00  0.00    -0.029 S 
ATOM     17  O   UNL     1      -0.119  -7.009  -2.852  0.00  0.00    -0.174 OA
ATOM     18  O   UNL     1      -1.234  -5.325  -4.250  0.00  0.00    -0.174 OA
ATOM     19  C   UNL     1       0.647  -4.468  -2.559  0.00  0.00    +0.191 C 
ATOM     20  C   UNL     1       1.559  -4.355  -0.239  0.00  0.00    +0.033 C 
ENDBRANCH  11  13
ENDBRANCH   4  11
TORSDOF 3
