REMARK  Name = ZINC36498748
REMARK  4 active torsions:
REMARK  status: ('A' for Active; 'I' for Inactive)
REMARK    1  A    between atoms: C_1  and  C_2
REMARK    2  A    between atoms: N_14  and  N_15
REMARK    3  A    between atoms: C_22  and  C_29
REMARK    4  A    between atoms: C_25  and  O_28
REMARK                            x       y       z     vdW  Elec       q    Type
REMARK                         _______ _______ _______ _____ _____    ______ ____
ROOT
ATOM      1  C   UNL     1      -0.107   1.405   0.105  0.00  0.00    +0.018 C 
ATOM      2  C   UNL     1       0.004  -0.116   0.039  0.00  0.00    +0.011 C 
ATOM      3  C   UNL     1      -1.351  -0.774   0.061  0.00  0.00    +0.013 C 
ATOM      4  C   UNL     1      -1.926  -0.838   1.480  0.00  0.00    +0.005 C 
ATOM      5  C   UNL     1      -1.119  -0.055   2.498  0.00  0.00    +0.003 C 
ATOM      6  C   UNL     1       0.353  -0.475   2.523  0.00  0.00    +0.001 C 
ATOM      7  C   UNL     1       0.895  -0.708   1.150  0.00  0.00    +0.005 C 
ATOM      8  C   UNL     1       2.260  -0.095   0.805  0.00  0.00    +0.010 C 
ATOM      9  C   UNL     1       2.279  -0.176  -0.747  0.00  0.00    +0.053 C 
ATOM     10  C   UNL     1       0.844  -0.436  -1.188  0.00  0.00    +0.043 C 
ATOM     11  N   UNL     1       0.423  -0.832  -2.321  0.00  0.00    -0.187 NA
ATOM     12  C   UNL     1       1.115   0.604   3.301  0.00  0.00    +0.031 C 
ATOM     13  C   UNL     1       0.513   0.666   4.681  0.00  0.00    -0.027 C 
ATOM     14  C   UNL     1      -0.705   0.306   4.941  0.00  0.00    -0.065 C 
ATOM     15  C   UNL     1      -1.687  -0.189   3.908  0.00  0.00    -0.008 C 
ATOM     16  C   UNL     1      -2.068  -1.623   4.250  0.00  0.00    +0.014 C 
ATOM     17  C   UNL     1      -1.512  -2.003   5.623  0.00  0.00    +0.032 C 
ATOM     18  C   UNL     1      -1.867  -0.975   6.691  0.00  0.00    +0.119 C 
ATOM     19  C   UNL     1      -1.212   0.376   6.372  0.00  0.00    +0.062 C 
ATOM     20  C   UNL     1      -2.946   0.682   3.981  0.00  0.00    +0.016 C 
ENDROOT
BRANCH  11  21
ATOM     21  N   UNL     1      -0.952  -0.841  -2.594  0.00  0.00    -0.191 N 
ATOM     22  C   UNL     1      -1.406  -1.371  -3.747  0.00  0.00    +0.317 C 
ATOM     23  O   UNL     1      -2.599  -1.379  -3.984  0.00  0.00    -0.251 OA
ATOM     24  N   UNL     1      -0.538  -1.891  -4.638  0.00  0.00    -0.312 N 
ATOM     25  H   UNL     1      -1.576  -0.467  -1.953  0.00  0.00    +0.179 HD
ATOM     26  H   UNL     1       0.413  -1.885  -4.449  0.00  0.00    +0.147 HD
ATOM     27  H   UNL     1      -0.866  -2.273  -5.468  0.00  0.00    +0.147 HD
ENDBRANCH  11  21
BRANCH  18  28
ATOM     28  O   UNL     1      -3.285  -0.820   6.765  0.00  0.00    -0.391 OA
ATOM     29  H   UNL     1      -3.577  -0.178   7.427  0.00  0.00    +0.210 HD
ENDBRANCH  18  28
TORSDOF 2
