REMARK  Name = ZINC42873324
REMARK  6 active torsions:
REMARK  status: ('A' for Active; 'I' for Inactive)
REMARK    1  A    between atoms: C_1  and  C_2
REMARK    2  A    between atoms: C_2  and  O_3
REMARK    3  A    between atoms: O_3  and  C_4
REMARK    4  A    between atoms: N_9  and  C_11
REMARK    5  A    between atoms: C_12  and  N_17
REMARK    6  A    between atoms: C_14  and  C_16
REMARK                            x       y       z     vdW  Elec       q    Type
REMARK                         _______ _______ _______ _____ _____    ______ ____
ROOT
ATOM      1  C   UNL     1      -3.023  -4.611   1.759  0.00  0.00    +0.161 A 
ATOM      2  C   UNL     1      -4.201  -4.884   2.375  0.00  0.00    +0.136 A 
ATOM      3  N   UNL     1      -3.911  -5.719   3.427  0.00  0.00    -0.330 N 
ATOM      4  C   UNL     1      -2.566  -5.926   3.414  0.00  0.00    +0.107 A 
ATOM      5  N   UNL     1      -2.049  -5.266   2.413  0.00  0.00    -0.216 NA
ATOM      6  C   UNL     1      -1.800  -6.781   4.390  0.00  0.00    +0.086 C 
ATOM      7  H   UNL     1      -4.545  -6.091   4.059  0.00  0.00    +0.168 HD
ENDROOT
BRANCH   1  12
ATOM      8  C   UNL     1      -1.363  -1.954   0.015  0.00  0.00    +0.136 C 
ATOM      9  C   UNL     1      -1.477  -2.425  -1.437  0.00  0.00    +0.035 C 
ATOM     10  C   UNL     1      -1.613  -3.949  -1.471  0.00  0.00    +0.021 C 
ATOM     11  C   UNL     1      -2.888  -4.361  -0.728  0.00  0.00    +0.107 C 
ATOM     12  N   UNL     1      -2.852  -3.788   0.625  0.00  0.00    -0.310 N 
ATOM     13  C   UNL     1      -2.634  -2.343   0.776  0.00  0.00    +0.138 C 
BRANCH   8  14
ATOM     14  O   UNL     1      -1.205  -0.534   0.044  0.00  0.00    -0.375 OA
BRANCH  14  16
ATOM     15  C   UNL     1       0.204   1.429   0.038  0.00  0.00    +0.034 C 
ATOM     16  C   UNL     1       0.156  -0.100   0.002  0.00  0.00    +0.157 C 
ENDBRANCH  14  16
ENDBRANCH   8  14
ENDBRANCH   1  12
BRANCH   2  17
ATOM     17  N   UNL     1      -5.467  -4.406   2.011  0.00  0.00    -0.342 N 
ATOM     18  H   UNL     1      -5.574  -3.885   1.199  0.00  0.00    +0.144 HD
ATOM     19  H   UNL     1      -6.237  -4.596   2.570  0.00  0.00    +0.144 HD
ENDBRANCH   2  17
TORSDOF 4
