REMARK  Name = ZINC37115624
REMARK  7 active torsions:
REMARK  status: ('A' for Active; 'I' for Inactive)
REMARK    1  A    between atoms: C_1  and  C_2
REMARK    2  A    between atoms: C_5  and  N_7
REMARK    3  A    between atoms: N_7  and  S_8
REMARK    4  A    between atoms: S_8  and  C_11
REMARK    5  A    between atoms: C_14  and  N_20
REMARK    6  A    between atoms: C_15  and  N_17
REMARK    7  A    between atoms: N_20  and  N_21
REMARK                            x       y       z     vdW  Elec       q    Type
REMARK                         _______ _______ _______ _____ _____    ______ ____
ROOT
ATOM      1  C   UNL     1       0.747  -6.776  -0.127  0.00  0.00    +0.113 A 
ATOM      2  C   UNL     1       1.365  -7.235  -1.276  0.00  0.00    +0.031 A 
ATOM      3  C   UNL     1       2.324  -8.226  -1.198  0.00  0.00    +0.028 A 
ATOM      4  C   UNL     1       2.667  -8.761   0.038  0.00  0.00    +0.071 A 
ATOM      5  C   UNL     1       2.045  -8.297   1.189  0.00  0.00    +0.150 A 
ATOM      6  C   UNL     1       1.091  -7.303   1.104  0.00  0.00    +0.063 A 
ENDROOT
BRANCH   1   7
ATOM      7  S   UNL     1      -0.475  -5.511  -0.232  0.00  0.00    +0.094 S 
ATOM      8  O   UNL     1      -1.289  -5.636   0.926  0.00  0.00    -0.148 OA
ATOM      9  O   UNL     1      -1.008  -5.570  -1.548  0.00  0.00    -0.148 OA
BRANCH   7  10
ATOM     10  N   UNL     1       0.311  -4.059  -0.105  0.00  0.00    -0.070 NA
BRANCH  10  15
ATOM     11  C   UNL     1      -1.699   1.024  -0.196  0.00  0.00    +0.053 C 
ATOM     12  C   UNL     1      -1.399  -0.453  -0.201  0.00  0.00    +0.008 A 
ATOM     13  C   UNL     1      -2.243  -1.505  -0.325  0.00  0.00    +0.124 A 
ATOM     14  N   UNL     1      -1.707  -2.712  -0.297  0.00  0.00    -0.230 NA
ATOM     15  C   UNL     1      -0.408  -2.875  -0.155  0.00  0.00    +0.202 A 
ATOM     16  S   UNL     1       0.167  -1.297  -0.055  0.00  0.00    -0.054 S 
ENDBRANCH  10  15
ENDBRANCH   7  10
ENDBRANCH   1   7
BRANCH   5  17
ATOM     17  N   UNL     1       2.408  -8.865   2.507  0.00  0.00    +0.058 N 
ATOM     18  O   UNL     1       2.656 -10.044   2.610  0.00  0.00    -0.126 OA
ATOM     19  O   UNL     1       2.456  -8.150   3.481  0.00  0.00    -0.126 OA
ENDBRANCH   5  17
BRANCH   4  20
ATOM     20  N   UNL     1       3.636  -9.764   0.121  0.00  0.00    -0.281 N 
ATOM     21  H   UNL     1       3.933 -10.081   0.988  0.00  0.00    +0.166 HD
BRANCH  20  22
ATOM     22  N   UNL     1       4.166 -10.298  -1.019  0.00  0.00    -0.256 NA
ATOM     23  H   UNL     1       4.565  -9.579  -1.604  0.00  0.00    +0.140 HD
ATOM     24  H   UNL     1       4.850 -11.007  -0.802  0.00  0.00    +0.140 HD
ENDBRANCH  20  22
ENDBRANCH   4  20
TORSDOF 6
