REMARK  Name = ZINC04189573
REMARK  8 active torsions:
REMARK  status: ('A' for Active; 'I' for Inactive)
REMARK    1  A    between atoms: C_1  and  C_2
REMARK    2  A    between atoms: C_7  and  C_17
REMARK    3  A    between atoms: C_20  and  O_24
REMARK    4  A    between atoms: C_21  and  O_23
REMARK    5  A    between atoms: O_24  and  C_25
REMARK    6  A    between atoms: C_28  and  C_30
REMARK    7  A    between atoms: C_30  and  O_32
REMARK    8  A    between atoms: O_32  and  C_33
REMARK                            x       y       z     vdW  Elec       q    Type
REMARK                         _______ _______ _______ _____ _____    ______ ____
ROOT
ATOM      1  C   UNL     1      -2.462   2.189   4.042  0.00  0.00    +0.009 C 
ATOM      2  C   UNL     1      -3.445   3.348   4.218  0.00  0.00    +0.013 C 
ATOM      3  C   UNL     1      -4.646   3.152   3.295  0.00  0.00    +0.055 C 
ATOM      4  C   UNL     1      -4.189   3.109   1.846  0.00  0.00    +0.017 C 
ATOM      5  C   UNL     1      -3.117   3.815   1.449  0.00  0.00    +0.037 C 
ATOM      6  C   UNL     1      -2.559   3.864   0.046  0.00  0.00    +0.136 C 
ATOM      7  N   UNL     1      -3.421   3.278  -0.959  0.00  0.00    -0.331 N 
ATOM      8  C   UNL     1      -3.721   1.921  -0.944  0.00  0.00    +0.049 A 
ATOM      9  C   UNL     1      -3.265   1.069  -1.938  0.00  0.00    +0.025 A 
ATOM     10  C   UNL     1      -3.517  -0.288  -1.839  0.00  0.00    +0.002 A 
ATOM     11  C   UNL     1      -4.219  -0.795  -0.760  0.00  0.00    +0.002 A 
ATOM     12  C   UNL     1      -4.696   0.056   0.223  0.00  0.00    +0.025 A 
ATOM     13  C   UNL     1      -4.461   1.415   0.114  0.00  0.00    +0.052 A 
ATOM     14  N   UNL     1      -4.954   2.333   1.036  0.00  0.00    -0.316 N 
ATOM     15  C   UNL     1      -2.397   4.603   2.378  0.00  0.00    +0.177 C 
ATOM     16  O   UNL     1      -1.444   5.247   1.986  0.00  0.00    -0.291 OA
ATOM     17  C   UNL     1      -2.769   4.669   3.829  0.00  0.00    +0.171 C 
ATOM     18  H   UNL     1      -3.793   3.840  -1.656  0.00  0.00    +0.147 HD
ATOM     19  H   UNL     1      -5.917   2.426   1.104  0.00  0.00    +0.152 HD
ENDROOT
BRANCH   6  20
ATOM     20  C   UNL     1      -1.241   3.133   0.030  0.00  0.00    -0.019 A 
ATOM     21  C   UNL     1      -1.200   1.779   0.307  0.00  0.00    +0.009 A 
ATOM     22  C   UNL     1       0.007   1.106   0.299  0.00  0.00    +0.050 A 
ATOM     23  C   UNL     1       1.178   1.785   0.002  0.00  0.00    +0.161 A 
ATOM     24  C   UNL     1       1.135   3.147  -0.283  0.00  0.00    +0.159 A 
ATOM     25  C   UNL     1      -0.077   3.817  -0.268  0.00  0.00    +0.055 A 
BRANCH  24  26
ATOM     26  O   UNL     1       2.281   3.818  -0.575  0.00  0.00    -0.503 OA
ATOM     27  H   UNL     1       2.501   3.829  -1.517  0.00  0.00    +0.292 HD
ENDBRANCH  24  26
BRANCH  23  28
ATOM     28  O   UNL     1       2.366   1.123  -0.012  0.00  0.00    -0.491 OA
ATOM     29  C   UNL     1       2.333  -0.274   0.289  0.00  0.00    +0.277 C 
ENDBRANCH  23  28
ENDBRANCH   6  20
BRANCH  17  30
ATOM     30  C   UNL     1      -1.529   4.867   4.661  0.00  0.00    +0.318 C 
ATOM     31  O   UNL     1      -1.214   4.039   5.483  0.00  0.00    -0.250 OA
BRANCH  30  32
ATOM     32  O   UNL     1      -0.774   5.964   4.490  0.00  0.00    -0.467 OA
ATOM     33  C   UNL     1       0.406   6.089   5.327  0.00  0.00    +0.280 C 
ENDBRANCH  30  32
ENDBRANCH  17  30
TORSDOF 5
