REMARK  Name = ZINC39561970
REMARK  9 active torsions:
REMARK  status: ('A' for Active; 'I' for Inactive)
REMARK    1  A    between atoms: C_1  and  C_2
REMARK    2  A    between atoms: C_2  and  N_3
REMARK    3  A    between atoms: C_4  and  C_24
REMARK    4  A    between atoms: C_8  and  S_10
REMARK    5  A    between atoms: S_10  and  C_11
REMARK    6  A    between atoms: C_11  and  C_12
REMARK    7  A    between atoms: C_24  and  C_25
REMARK    8  A    between atoms: N_27  and  C_28
REMARK    9  A    between atoms: C_33  and  C_34
REMARK                            x       y       z     vdW  Elec       q    Type
REMARK                         _______ _______ _______ _____ _____    ______ ____
ROOT
ATOM      1  N   UNL     1       0.531  -0.923   0.971  0.00  0.00    -0.261 NA
ATOM      2  C   UNL     1       0.812  -2.376   0.920  0.00  0.00    +0.149 C 
ATOM      3  N   UNL     1       0.527  -2.852   2.300  0.00  0.00    -0.237 NA
ATOM      4  N   UNL     1      -0.646  -2.054   2.690  0.00  0.00    -0.229 NA
ATOM      5  C   UNL     1      -0.398  -0.718   2.102  0.00  0.00    +0.200 C 
ATOM      6  H   UNL     1       0.312  -3.837   2.305  0.00  0.00    +0.142 HD
ATOM      7  H   UNL     1      -1.495  -2.458   2.325  0.00  0.00    +0.143 HD
ENDROOT
BRANCH   1   9
ATOM      8  C   UNL     1       0.986  -0.522  -1.402  0.00  0.00    +0.020 C 
ATOM      9  C   UNL     1      -0.062  -0.457  -0.289  0.00  0.00    +0.085 C 
ENDBRANCH   1   9
BRANCH   5  10
ATOM     10  S   UNL     1      -1.954  -0.003   1.506  0.00  0.00    -0.117 S 
BRANCH  10  11
ATOM     11  C   UNL     1      -2.760   0.611   3.011  0.00  0.00    +0.146 C 
BRANCH  11  12
ATOM     12  C   UNL     1      -4.023   1.345   2.641  0.00  0.00    +0.120 A 
ATOM     13  N   UNL     1      -4.769   1.887   3.639  0.00  0.00    -0.310 N 
ATOM     14  H   UNL     1      -4.481   1.793   4.560  0.00  0.00    +0.170 HD
ATOM     15  C   UNL     1      -5.911   2.557   3.359  0.00  0.00    +0.259 A 
ATOM     16  O   UNL     1      -6.589   3.048   4.243  0.00  0.00    -0.267 OA
ATOM     17  C   UNL     1      -6.301   2.670   1.946  0.00  0.00    +0.065 A 
ATOM     18  C   UNL     1      -7.458   3.338   1.551  0.00  0.00    +0.015 A 
ATOM     19  C   UNL     1      -7.776   3.413   0.213  0.00  0.00    +0.001 A 
ATOM     20  C   UNL     1      -6.954   2.829  -0.742  0.00  0.00    +0.002 A 
ATOM     21  C   UNL     1      -5.807   2.163  -0.373  0.00  0.00    +0.028 A 
ATOM     22  C   UNL     1      -5.463   2.074   0.977  0.00  0.00    +0.078 A 
ATOM     23  N   UNL     1      -4.339   1.433   1.385  0.00  0.00    -0.233 NA
ENDBRANCH  11  12
ENDBRANCH  10  11
ENDBRANCH   5  10
BRANCH   2  24
ATOM     24  C   UNL     1       2.277  -2.627   0.556  0.00  0.00    +0.132 C 
BRANCH  24  25
ATOM     25  C   UNL     1       2.507  -4.107   0.390  0.00  0.00    +0.220 C 
ATOM     26  O   UNL     1       1.590  -4.885   0.548  0.00  0.00    -0.275 OA
ATOM     27  N   UNL     1       3.732  -4.566   0.067  0.00  0.00    -0.285 N 
ATOM     28  H   UNL     1       4.480  -3.951   0.007  0.00  0.00    +0.155 HD
BRANCH  27  29
ATOM     29  C   UNL     1       3.925  -5.929  -0.182  0.00  0.00    +0.036 A 
ATOM     30  C   UNL     1       3.126  -6.872   0.452  0.00  0.00    +0.023 A 
ATOM     31  C   UNL     1       3.320  -8.217   0.204  0.00  0.00    +0.002 A 
ATOM     32  C   UNL     1       4.308  -8.625  -0.673  0.00  0.00    +0.000 A 
ATOM     33  C   UNL     1       5.105  -7.689  -1.305  0.00  0.00    +0.005 A 
ATOM     34  C   UNL     1       4.913  -6.342  -1.067  0.00  0.00    -0.029 A 
ATOM     35  C   UNL     1       5.777  -5.322  -1.761  0.00  0.00    +0.045 C 
ENDBRANCH  27  29
ENDBRANCH  24  25
ENDBRANCH   2  24
TORSDOF 7
