REMARK  Name = ZINC39616222
REMARK  3 active torsions:
REMARK  status: ('A' for Active; 'I' for Inactive)
REMARK    1  A    between atoms: C_6  and  N_7
REMARK    2  A    between atoms: C_8  and  C_10
REMARK    3  A    between atoms: C_10  and  N_11
REMARK                            x       y       z     vdW  Elec       q    Type
REMARK                         _______ _______ _______ _____ _____    ______ ____
ROOT
ATOM      1  N   UNL     1      -1.202  -0.721   0.009  0.00  0.00    -0.284 N 
ATOM      2  C   UNL     1      -2.326  -0.154  -0.471  0.00  0.00    +0.239 C 
ATOM      3  O   UNL     1      -2.279   0.941  -0.991  0.00  0.00    -0.273 OA
ATOM      4  H   UNL     1      -1.225  -1.626   0.356  0.00  0.00    +0.155 HD
ENDROOT
BRANCH   1  10
ATOM      5  C   UNL     1      -0.013   1.373   0.194  0.00  0.00    +0.027 A 
ATOM      6  C   UNL     1       1.173   2.085   0.192  0.00  0.00    +0.051 A 
ATOM      7  C   UNL     1       2.375   1.427   0.004  0.00  0.00    +0.167 A 
ATOM      8  C   UNL     1       2.392   0.045  -0.183  0.00  0.00    +0.169 A 
ATOM      9  C   UNL     1       1.206  -0.666  -0.181  0.00  0.00    +0.073 A 
ATOM     10  C   UNL     1       0.001  -0.002   0.007  0.00  0.00    +0.037 A 
ATOM     11  O   UNL     1       3.694  -0.352  -0.343  0.00  0.00    -0.447 OA
ATOM     12  C   UNL     1       4.372   0.847  -0.743  0.00  0.00    +0.254 C 
ATOM     13  O   UNL     1       3.668   1.882  -0.041  0.00  0.00    -0.448 OA
ATOM     14  C   UNL     1       4.293   1.052  -2.259  0.00  0.00    +0.093 C 
ATOM     15  C   UNL     1       5.652   1.707  -2.620  0.00  0.00    +0.008 C 
ATOM     16  C   UNL     1       6.644   0.989  -1.669  0.00  0.00    +0.008 C 
ATOM     17  C   UNL     1       5.850   0.812  -0.355  0.00  0.00    +0.093 C 
ENDBRANCH   1  10
BRANCH   2  18
ATOM     18  C   UNL     1      -3.642  -0.879  -0.360  0.00  0.00    +0.243 C 
BRANCH  18  19
ATOM     19  N   UNL     1      -4.703  -0.060  -0.951  0.00  0.00    -0.219 N 
ATOM     20  C   UNL     1      -4.991  -0.202  -2.259  0.00  0.00    +0.288 A 
ATOM     21  O   UNL     1      -4.374  -1.004  -2.942  0.00  0.00    -0.265 OA
ATOM     22  C   UNL     1      -6.013   0.586  -2.831  0.00  0.00    +0.126 A 
ATOM     23  C   UNL     1      -6.670   1.468  -2.017  0.00  0.00    +0.084 A 
ATOM     24  C   UNL     1      -6.290   1.536  -0.665  0.00  0.00    +0.154 A 
ATOM     25  N   UNL     1      -5.338   0.772  -0.207  0.00  0.00    -0.175 NA
ATOM     26 CL   UNL     1      -7.939   2.477  -2.637  0.00  0.00    -0.080 Cl
ATOM     27 CL   UNL     1      -6.421   0.441  -4.512  0.00  0.00    -0.076 Cl
ENDBRANCH  18  19
ENDBRANCH   2  18
TORSDOF 3
