REMARK  Name = ZINC42844376
REMARK  8 active torsions:
REMARK  status: ('A' for Active; 'I' for Inactive)
REMARK    1  A    between atoms: C_1  and  C_2
REMARK    2  A    between atoms: C_2  and  C_3
REMARK    3  A    between atoms: C_3  and  C_5
REMARK    4  A    between atoms: C_3  and  N_6
REMARK    5  A    between atoms: N_9  and  N_10
REMARK    6  A    between atoms: C_11  and  C_13
REMARK    7  A    between atoms: C_17  and  S_19
REMARK    8  A    between atoms: S_19  and  N_22
REMARK                            x       y       z     vdW  Elec       q    Type
REMARK                         _______ _______ _______ _____ _____    ______ ____
ROOT
ATOM      1  N   UNL     1      -1.530   0.600  -4.615  0.00  0.00    -0.229 N 
ATOM      2  C   UNL     1      -2.241   0.953  -5.704  0.00  0.00    +0.260 C 
ATOM      3  O   UNL     1      -1.686   1.081  -6.777  0.00  0.00    -0.269 OA
ATOM      4  H   UNL     1      -1.973   0.498  -3.758  0.00  0.00    +0.173 HD
ENDROOT
BRANCH   1   8
ATOM      5  N   UNL     1      -0.055  -0.114  -2.441  0.00  0.00    -0.296 N 
ATOM      6  C   UNL     1       0.561   0.028  -3.631  0.00  0.00    +0.316 C 
ATOM      7  O   UNL     1       1.758  -0.163  -3.722  0.00  0.00    -0.251 OA
ATOM      8  N   UNL     1      -0.150   0.381  -4.720  0.00  0.00    -0.218 N 
ATOM      9  H   UNL     1      -1.010   0.038  -2.368  0.00  0.00    +0.151 HD
ATOM     10  H   UNL     1       0.293   0.483  -5.577  0.00  0.00    +0.174 HD
BRANCH   5  11
ATOM     11  C   UNL     1       0.718  -0.497  -1.257  0.00  0.00    +0.071 C 
ATOM     12  C   UNL     1       0.849  -2.021  -1.205  0.00  0.00    +0.028 C 
BRANCH  11  14
ATOM     13  C   UNL     1      -0.019   1.526   0.010  0.00  0.00    +0.005 C 
ATOM     14  C   UNL     1       0.002  -0.004   0.002  0.00  0.00    +0.019 C 
ENDBRANCH  11  14
ENDBRANCH   5  11
ENDBRANCH   1   8
BRANCH   2  15
ATOM     15  C   UNL     1      -3.697   1.185  -5.593  0.00  0.00    +0.040 A 
ATOM     16  C   UNL     1      -4.337   1.045  -4.360  0.00  0.00    +0.013 A 
ATOM     17  C   UNL     1      -5.696   1.263  -4.263  0.00  0.00    +0.003 A 
ATOM     18  C   UNL     1      -6.424   1.619  -5.384  0.00  0.00    +0.028 A 
ATOM     19  C   UNL     1      -5.796   1.760  -6.609  0.00  0.00    +0.106 A 
ATOM     20  C   UNL     1      -4.437   1.550  -6.718  0.00  0.00    +0.041 A 
BRANCH  19  21
ATOM     21  S   UNL     1      -6.733   2.213  -8.030  0.00  0.00    +0.061 S 
ATOM     22  O   UNL     1      -6.008   1.747  -9.160  0.00  0.00    -0.153 OA
ATOM     23  O   UNL     1      -8.075   1.824  -7.773  0.00  0.00    -0.153 OA
BRANCH  21  24
ATOM     24  N   UNL     1      -6.727   3.867  -8.114  0.00  0.00    -0.177 NA
ATOM     25  C   UNL     1      -7.712   4.760  -7.486  0.00  0.00    +0.109 C 
ATOM     26  C   UNL     1      -7.319   6.206  -7.855  0.00  0.00    +0.018 C 
ATOM     27  C   UNL     1      -6.464   6.019  -9.136  0.00  0.00    +0.018 C 
ATOM     28  C   UNL     1      -5.729   4.688  -8.824  0.00  0.00    +0.109 C 
ENDBRANCH  21  24
ENDBRANCH  19  21
ENDBRANCH   2  15
TORSDOF 6
