REMARK  Name = ZINC66597662
REMARK  5 active torsions:
REMARK  status: ('A' for Active; 'I' for Inactive)
REMARK    1  A    between atoms: C_1  and  C_2
REMARK    2  A    between atoms: C_7  and  N_10
REMARK    3  A    between atoms: C_11  and  C_13
REMARK    4  A    between atoms: C_13  and  N_14
REMARK    5  A    between atoms: N_22  and  C_23
REMARK                            x       y       z     vdW  Elec       q    Type
REMARK                         _______ _______ _______ _____ _____    ______ ____
ROOT
ATOM      1  N   UNL     1      -2.304  -5.649   2.318  0.00  0.00    -0.291 NA
ATOM      2  C   UNL     1      -1.577  -6.600   1.467  0.00  0.00    +0.104 C 
ATOM      3  C   UNL     1      -1.468  -7.947   2.190  0.00  0.00    +0.124 C 
ATOM      4  N   UNL     1      -2.817  -8.374   2.589  0.00  0.00    -0.283 N 
ATOM      5  C   UNL     1      -3.659  -7.421   3.328  0.00  0.00    +0.124 C 
ATOM      6  C   UNL     1      -3.682  -6.095   2.560  0.00  0.00    +0.104 C 
ATOM      7  C   UNL     1      -3.271  -9.606   2.285  0.00  0.00    +0.302 C 
ATOM      8  O   UNL     1      -2.600 -10.348   1.593  0.00  0.00    -0.253 OA
ATOM      9  N   UNL     1      -4.468 -10.017   2.749  0.00  0.00    -0.296 N 
ATOM     10  H   UNL     1      -5.035  -9.402   3.240  0.00  0.00    +0.151 HD
ENDROOT
BRANCH   9  11
ATOM     11  C   UNL     1      -4.913 -11.393   2.511  0.00  0.00    +0.079 C 
ATOM     12  C   UNL     1      -5.590 -11.483   1.140  0.00  0.00    +0.050 C 
ATOM     13  C   UNL     1      -6.121 -12.904   0.934  0.00  0.00    +0.161 C 
ATOM     14  O   UNL     1      -7.026 -13.230   1.991  0.00  0.00    -0.380 OA
ATOM     15  C   UNL     1      -6.436 -13.209   3.292  0.00  0.00    +0.161 C 
ATOM     16  C   UNL     1      -5.918 -11.800   3.593  0.00  0.00    +0.050 C 
ENDBRANCH   9  11
BRANCH   1  17
ATOM     17  C   UNL     1      -2.281  -4.299   1.738  0.00  0.00    +0.180 C 
BRANCH  17  19
ATOM     18  N   UNL     1      -0.603  -2.551   1.241  0.00  0.00    -0.311 N 
ATOM     19  C   UNL     1      -0.867  -3.779   1.732  0.00  0.00    +0.227 C 
ATOM     20  O   UNL     1       0.034  -4.464   2.168  0.00  0.00    -0.274 OA
ATOM     21  H   UNL     1      -1.323  -2.003   0.892  0.00  0.00    +0.149 HD
BRANCH  18  27
ATOM     22  C   UNL     1      -0.002   1.520   0.003  0.00  0.00    +0.007 C 
ATOM     23  C   UNL     1       0.017  -0.010  -0.003  0.00  0.00    -0.012 C 
ATOM     24  C   UNL     1       0.738  -0.506  -1.258  0.00  0.00    +0.003 C 
ATOM     25  C   UNL     1       0.757  -2.036  -1.264  0.00  0.00    +0.002 C 
ATOM     26  C   UNL     1       1.492  -2.542  -0.020  0.00  0.00    +0.022 C 
ATOM     27  C   UNL     1       0.772  -2.045   1.235  0.00  0.00    +0.073 C 
ATOM     28  C   UNL     1       0.752  -0.516   1.241  0.00  0.00    +0.025 C 
ENDBRANCH  18  27
ENDBRANCH  17  19
ENDBRANCH   1  17
TORSDOF 4
