REMARK  Name = ZINC12567436
REMARK  5 active torsions:
REMARK  status: ('A' for Active; 'I' for Inactive)
REMARK    1  A    between atoms: N_11  and  C_12
REMARK    2  A    between atoms: N_15  and  C_18
REMARK    3  A    between atoms: C_18  and  C_19
REMARK    4  A    between atoms: N_24  and  C_27
REMARK    5  A    between atoms: C_27  and  C_28
REMARK                            x       y       z     vdW  Elec       q    Type
REMARK                         _______ _______ _______ _____ _____    ______ ____
ROOT
ATOM      1  C   UNL     1       8.608  -4.792  -0.892  0.00  0.00    +0.019 C 
ENDROOT
BRANCH   1   2
ATOM      2  C   UNL     1       8.945  -3.604  -0.029  0.00  0.00    +0.199 C 
ATOM      3  O   UNL     1      10.053  -3.501   0.454  0.00  0.00    -0.278 OA
ATOM      4  N   UNL     1       8.017  -2.656   0.205  0.00  0.00    -0.301 N 
ATOM      5  C   UNL     1       8.325  -1.488   1.045  0.00  0.00    +0.123 C 
ATOM      6  C   UNL     1       7.234  -1.355   2.113  0.00  0.00    +0.103 C 
ATOM      7  N   UNL     1       5.918  -1.321   1.462  0.00  0.00    -0.295 NA
ATOM      8  C   UNL     1       5.642  -2.578   0.752  0.00  0.00    +0.103 C 
ATOM      9  C   UNL     1       6.668  -2.761  -0.371  0.00  0.00    +0.123 C 
BRANCH   7  10
ATOM     10  C   UNL     1       4.857  -1.022   2.433  0.00  0.00    +0.119 C 
BRANCH  10  11
ATOM     11  C   UNL     1       3.567  -0.754   1.702  0.00  0.00    -0.030 A 
ATOM     12  C   UNL     1       2.701  -1.796   1.426  0.00  0.00    +0.009 A 
ATOM     13  C   UNL     1       1.517  -1.555   0.755  0.00  0.00    +0.050 A 
ATOM     14  C   UNL     1       1.194  -0.268   0.358  0.00  0.00    +0.166 A 
ATOM     15  C   UNL     1       2.066   0.782   0.637  0.00  0.00    +0.167 A 
ATOM     16  C   UNL     1       3.251   0.533   1.310  0.00  0.00    +0.054 A 
ATOM     17  O   UNL     1       1.528   1.938   0.148  0.00  0.00    -0.453 OA
ATOM     18  C   UNL     1       0.134   1.650  -0.069  0.00  0.00    +0.466 C 
ATOM     19  O   UNL     1       0.110   0.230  -0.305  0.00  0.00    -0.453 OA
ENDBRANCH  10  11
ENDBRANCH   7  10
ENDBRANCH   1   2
BRANCH   1  23
ATOM     20  C   UNL     1      11.807  -7.018  -2.651  0.00  0.00    +0.089 C 
ATOM     21  C   UNL     1      12.098  -5.658  -2.011  0.00  0.00    +0.006 C 
ATOM     22  C   UNL     1      10.799  -4.854  -1.921  0.00  0.00    -0.076 C 
ATOM     23  N   UNL     1       9.818  -5.594  -1.116  0.00  0.00    +0.386 N 
ATOM     24  C   UNL     1       9.488  -6.884  -1.736  0.00  0.00    -0.076 C 
ATOM     25  C   UNL     1      10.748  -7.748  -1.821  0.00  0.00    +0.006 C 
ATOM     26  H   UNL     1      10.275  -5.800  -0.137  0.00  0.00    -0.081 HD
BRANCH  20  37
ATOM     27  C   UNL     1      15.297  -9.538  -5.694  0.00  0.00    +0.002 A 
ATOM     28  C   UNL     1      14.170  -8.850  -6.111  0.00  0.00    +0.002 A 
ATOM     29  C   UNL     1      13.348  -8.236  -5.186  0.00  0.00    +0.028 A 
ATOM     30  C   UNL     1      13.650  -8.312  -3.835  0.00  0.00    +0.070 A 
ATOM     31  C   UNL     1      14.786  -9.007  -3.415  0.00  0.00    +0.067 A 
ATOM     32  C   UNL     1      15.607  -9.619  -4.351  0.00  0.00    +0.028 A 
ATOM     33  N   UNL     1      14.827  -8.910  -2.026  0.00  0.00    -0.306 N 
ATOM     34  H   UNL     1      15.642  -9.390  -1.465  0.00  0.00    +0.170 HD
ATOM     35  C   UNL     1      13.767  -8.185  -1.621  0.00  0.00    +0.328 A 
ATOM     36  O   UNL     1      13.508  -7.910  -0.464  0.00  0.00    -0.247 OA
ATOM     37  N   UNL     1      13.036  -7.815  -2.688  0.00  0.00    -0.289 N 
ENDBRANCH  20  37
ENDBRANCH   1  23
TORSDOF 5
