REMARK  Name = ZINC00060405
REMARK  5 active torsions:
REMARK  status: ('A' for Active; 'I' for Inactive)
REMARK    1  A    between atoms: C_3  and  O_20
REMARK    2  A    between atoms: C_4  and  C_8
REMARK    3  A    between atoms: N_9  and  N_10
REMARK    4  A    between atoms: C_11  and  C_13
REMARK    5  A    between atoms: C_13  and  N_14
REMARK                            x       y       z     vdW  Elec       q    Type
REMARK                         _______ _______ _______ _____ _____    ______ ____
ROOT
ATOM      1  N   UNL     1      -2.441  -2.781   0.011  0.00  0.00    -0.205 N 
ATOM      2  C   UNL     1      -2.419  -4.128   0.004  0.00  0.00    +0.254 C 
ATOM      3  O   UNL     1      -1.358  -4.717  -0.010  0.00  0.00    -0.272 OA
ATOM      4  H   UNL     1      -3.289  -2.310   0.022  0.00  0.00    +0.177 HD
ENDROOT
BRANCH   1   6
ATOM      5  C   UNL     1      -1.262  -0.762   0.011  0.00  0.00    +0.142 C 
ATOM      6  N   UNL     1      -1.240  -2.060   0.003  0.00  0.00    -0.188 NA
BRANCH   5  10
ATOM      7  C   UNL     1       2.381   1.423  -0.013  0.00  0.00    +0.019 A 
ATOM      8  C   UNL     1       2.412   0.041  -0.021  0.00  0.00    +0.047 A 
ATOM      9  C   UNL     1       1.230  -0.681  -0.013  0.00  0.00    +0.126 A 
ATOM     10  C   UNL     1       0.002  -0.004   0.002  0.00  0.00    +0.037 A 
ATOM     11  C   UNL     1      -0.017   1.392   0.010  0.00  0.00    +0.028 A 
ATOM     12  C   UNL     1       1.170   2.096   0.002  0.00  0.00    +0.019 A 
ATOM     13 BR   UNL     1       1.144   3.987   0.013  0.00  0.00    -0.050 Br
BRANCH   9  14
ATOM     14  O   UNL     1       1.260  -2.038  -0.021  0.00  0.00    -0.506 OA
ATOM     15  H   UNL     1       1.260  -2.427  -0.906  0.00  0.00    +0.292 HD
ENDBRANCH   9  14
ENDBRANCH   5  10
ENDBRANCH   1   6
BRANCH   2  16
ATOM     16  C   UNL     1      -3.711  -4.904   0.013  0.00  0.00    +0.246 C 
BRANCH  16  17
ATOM     17  N   UNL     1      -3.419  -6.339   0.002  0.00  0.00    -0.205 N 
ATOM     18  C   UNL     1      -3.245  -7.150   1.071  0.00  0.00    +0.233 A 
ATOM     19  N   UNL     1      -3.004  -8.356   0.607  0.00  0.00    -0.093 NA
ATOM     20  N   UNL     1      -3.015  -8.355  -0.677  0.00  0.00    -0.021 NA
ATOM     21  N   UNL     1      -3.266  -7.171  -1.121  0.00  0.00    -0.042 NA
ATOM     22  N   UNL     1      -3.308  -6.779   2.403  0.00  0.00    -0.326 N 
ATOM     23  H   UNL     1      -3.494  -5.858   2.641  0.00  0.00    +0.145 HD
ATOM     24  H   UNL     1      -3.168  -7.441   3.098  0.00  0.00    +0.145 HD
ENDBRANCH  16  17
ENDBRANCH   2  16
TORSDOF 5
