REMARK  Name = ZINC45873291
REMARK  7 active torsions:
REMARK  status: ('A' for Active; 'I' for Inactive)
REMARK    1  A    between atoms: C_1  and  C_2
REMARK    2  A    between atoms: C_5  and  C_11
REMARK    3  A    between atoms: C_7  and  N_8
REMARK    4  A    between atoms: N_13  and  C_14
REMARK    5  A    between atoms: C_17  and  N_20
REMARK    6  A    between atoms: N_23  and  C_24
REMARK    7  A    between atoms: C_24  and  C_25
REMARK                            x       y       z     vdW  Elec       q    Type
REMARK                         _______ _______ _______ _____ _____    ______ ____
ROOT
ATOM      1  C   UNL     1      -1.122  -6.276  -1.695  0.00  0.00    +0.034 A 
ATOM      2  C   UNL     1      -1.018  -7.163  -0.632  0.00  0.00    +0.025 A 
ATOM      3  C   UNL     1      -1.328  -8.496  -0.812  0.00  0.00    +0.025 A 
ATOM      4  C   UNL     1      -1.743  -8.950  -2.057  0.00  0.00    +0.035 A 
ATOM      5  C   UNL     1      -1.846  -8.063  -3.121  0.00  0.00    +0.025 A 
ATOM      6  C   UNL     1      -1.543  -6.729  -2.939  0.00  0.00    +0.025 A 
ENDROOT
BRANCH   4   7
ATOM      7  N   UNL     1      -2.057 -10.303  -2.240  0.00  0.00    -0.269 N 
ATOM      8  C   UNL     1      -1.823 -10.894  -3.429  0.00  0.00    +0.304 C 
ATOM      9  O   UNL     1      -1.249 -10.283  -4.309  0.00  0.00    -0.253 OA
ATOM     10  N   UNL     1      -2.224 -12.163  -3.641  0.00  0.00    -0.296 N 
ATOM     11  H   UNL     1      -2.442 -10.815  -1.512  0.00  0.00    +0.156 HD
ATOM     12  H   UNL     1      -2.682 -12.651  -2.938  0.00  0.00    +0.151 HD
BRANCH  10  13
ATOM     13  C   UNL     1      -1.970 -12.806  -4.933  0.00  0.00    +0.132 C 
BRANCH  13  14
ATOM     14  C   UNL     1      -2.514 -14.211  -4.911  0.00  0.00    -0.016 C 
ATOM     15  C   UNL     1      -3.364 -14.598  -5.829  0.00  0.00    +0.005 C 
ENDBRANCH  13  14
ENDBRANCH  10  13
ENDBRANCH   4   7
BRANCH   1  18
ATOM     16  C   UNL     1      -1.521  -3.974  -2.149  0.00  0.00    +0.248 C 
ATOM     17  O   UNL     1      -2.493  -4.285  -2.811  0.00  0.00    -0.270 OA
ATOM     18  N   UNL     1      -0.808  -4.924  -1.512  0.00  0.00    -0.282 N 
ATOM     19  H   UNL     1      -0.077  -4.670  -0.927  0.00  0.00    +0.155 HD
BRANCH  16  24
ATOM     20  C   UNL     1       0.032   1.552  -1.738  0.00  0.00    +0.046 C 
ATOM     21  C   UNL     1      -0.375   0.105  -1.846  0.00  0.00    -0.020 A 
ATOM     22  C   UNL     1       0.360  -0.868  -1.190  0.00  0.00    +0.006 A 
ATOM     23  C   UNL     1      -0.007  -2.194  -1.284  0.00  0.00    +0.013 A 
ATOM     24  C   UNL     1      -1.122  -2.554  -2.043  0.00  0.00    +0.039 A 
ATOM     25  C   UNL     1      -1.859  -1.569  -2.702  0.00  0.00    +0.046 A 
ATOM     26  C   UNL     1      -1.484  -0.245  -2.595  0.00  0.00    +0.130 A 
BRANCH  26  27
ATOM     27  N   UNL     1      -2.267   0.803  -3.288  0.00  0.00    +0.057 N 
ATOM     28  O   UNL     1      -2.441   1.876  -2.760  0.00  0.00    -0.126 OA
ATOM     29  O   UNL     1      -2.732   0.585  -4.383  0.00  0.00    -0.126 OA
ENDBRANCH  26  27
ENDBRANCH  16  24
ENDBRANCH   1  18
TORSDOF 6
