REMARK  Name = ZINC01030562
REMARK  8 active torsions:
REMARK  status: ('A' for Active; 'I' for Inactive)
REMARK    1  A    between atoms: C_1  and  C_2
REMARK    2  A    between atoms: C_2  and  C_3
REMARK    3  A    between atoms: C_2  and  N_4
REMARK    4  A    between atoms: C_5  and  N_13
REMARK    5  A    between atoms: C_7  and  C_11
REMARK    6  A    between atoms: C_7  and  C_12
REMARK    7  A    between atoms: N_13  and  O_24
REMARK    8  A    between atoms: N_16  and  C_17
REMARK                            x       y       z     vdW  Elec       q    Type
REMARK                         _______ _______ _______ _____ _____    ______ ____
ROOT
ATOM      1  N   UNL     1       0.381  -2.084   1.119  0.00  0.00    -0.145 N 
ATOM      2  C   UNL     1       0.023  -3.383   1.083  0.00  0.00    +0.331 C 
ATOM      3  O   UNL     1      -0.825  -3.758   0.297  0.00  0.00    -0.250 OA
ATOM      4  N   UNL     1       0.605  -4.265   1.919  0.00  0.00    -0.268 N 
ATOM      5  H   UNL     1       1.231  -3.955   2.592  0.00  0.00    +0.156 HD
ENDROOT
BRANCH   1   7
ATOM      6  N   UNL     1      -0.834  -0.071   0.859  0.00  0.00    -0.295 N 
ATOM      7  C   UNL     1      -0.178  -1.143   0.145  0.00  0.00    +0.210 C 
ATOM      8  C   UNL     1       0.955  -0.655  -0.780  0.00  0.00    +0.054 C 
ATOM      9  S   UNL     1       0.889   1.153  -0.483  0.00  0.00    -0.093 S 
ATOM     10  C   UNL     1      -0.449   1.202   0.692  0.00  0.00    +0.111 C 
ATOM     11  S   UNL     1      -1.112   2.589   1.446  0.00  0.00    -0.028 S 
ATOM     12  C   UNL     1       2.305  -1.235  -0.352  0.00  0.00    +0.026 C 
ATOM     13  C   UNL     1       0.654  -0.985  -2.243  0.00  0.00    +0.026 C 
BRANCH   6  15
ATOM     14  C   UNL     1      -1.589   0.139   3.175  0.00  0.00    +0.028 C 
ATOM     15  C   UNL     1      -1.932  -0.381   1.778  0.00  0.00    +0.070 C 
ATOM     16  C   UNL     1      -3.215   0.291   1.284  0.00  0.00    +0.028 C 
ENDBRANCH   6  15
ENDBRANCH   1   7
BRANCH   4  17
ATOM     17  C   UNL     1       0.307  -5.629   1.815  0.00  0.00    +0.036 A 
ATOM     18  C   UNL     1       0.028  -6.187   0.575  0.00  0.00    +0.023 A 
ATOM     19  C   UNL     1      -0.261  -7.534   0.474  0.00  0.00    +0.003 A 
ATOM     20  C   UNL     1      -0.283  -8.325   1.608  0.00  0.00    +0.020 A 
ATOM     21  C   UNL     1      -0.010  -7.771   2.847  0.00  0.00    +0.043 A 
ATOM     22  C   UNL     1       0.285  -6.424   2.953  0.00  0.00    +0.043 A 
ATOM     23 CL   UNL     1      -0.039  -8.767   4.268  0.00  0.00    -0.083 Cl
ENDBRANCH   4  17
BRANCH   1  24
ATOM     24  O   UNL     1       1.298  -1.629   2.097  0.00  0.00    -0.290 OA
ATOM     25  H   UNL     1       1.671  -2.333   2.645  0.00  0.00    +0.242 HD
ENDBRANCH   1  24
TORSDOF 4
