REMARK  Name = ZINC64414881
REMARK  9 active torsions:
REMARK  status: ('A' for Active; 'I' for Inactive)
REMARK    1  A    between atoms: C_1  and  C_2
REMARK    2  A    between atoms: C_4  and  S_9
REMARK    3  A    between atoms: C_5  and  C_8
REMARK    4  A    between atoms: S_9  and  N_12
REMARK    5  A    between atoms: N_12  and  C_13
REMARK    6  A    between atoms: C_13  and  C_14
REMARK    7  A    between atoms: C_14  and  C_15
REMARK    8  A    between atoms: N_21  and  S_22
REMARK    9  A    between atoms: S_22  and  C_25
REMARK                            x       y       z     vdW  Elec       q    Type
REMARK                         _______ _______ _______ _____ _____    ______ ____
ROOT
ATOM      1  C   UNL     1      -2.742  -3.432  -4.151  0.00  0.00    +0.037 C 
ENDROOT
BRANCH   1   2
ATOM      2  C   UNL     1      -2.592  -4.929  -3.877  0.00  0.00    +0.081 C 
ATOM      3  C   UNL     1      -2.615  -5.699  -5.201  0.00  0.00    +0.021 C 
ATOM      4  C   UNL     1      -2.604  -7.202  -4.914  0.00  0.00    +0.003 C 
ATOM      5  C   UNL     1      -3.854  -7.579  -4.115  0.00  0.00    +0.017 C 
ATOM      6  C   UNL     1      -3.845  -6.831  -2.778  0.00  0.00    +0.110 C 
ATOM      7  N   UNL     1      -3.707  -5.391  -3.039  0.00  0.00    -0.173 NA
BRANCH   7   8
ATOM      8  S   UNL     1      -4.790  -4.311  -2.405  0.00  0.00    +0.067 S 
ATOM      9  O   UNL     1      -5.515  -5.005  -1.399  0.00  0.00    -0.152 OA
ATOM     10  O   UNL     1      -4.065  -3.119  -2.136  0.00  0.00    -0.152 OA
BRANCH   8  11
ATOM     11  C   UNL     1      -5.944  -3.921  -3.679  0.00  0.00    +0.143 A 
ATOM     12  C   UNL     1      -7.119  -4.527  -3.981  0.00  0.00    +0.036 A 
ATOM     13  C   UNL     1      -7.869  -4.044  -5.037  0.00  0.00    +0.010 A 
ATOM     14  C   UNL     1      -7.409  -2.980  -5.739  0.00  0.00    +0.047 A 
ATOM     15  S   UNL     1      -5.872  -2.622  -4.902  0.00  0.00    -0.077 S 
ENDBRANCH   8  11
ENDBRANCH   7   8
ENDBRANCH   1   2
BRANCH   1  16
ATOM     16  C   UNL     1      -1.634  -2.973  -5.100  0.00  0.00    +0.107 C 
BRANCH  16  17
ATOM     17  N   UNL     1      -1.701  -1.519  -5.263  0.00  0.00    -0.190 NA
ATOM     18  H   UNL     1      -2.494  -1.036  -4.984  0.00  0.00    +0.148 HD
BRANCH  17  19
ATOM     19  S   UNL     1      -0.422  -0.700  -5.924  0.00  0.00    +0.058 S 
ATOM     20  O   UNL     1       0.742  -1.147  -5.243  0.00  0.00    -0.153 OA
ATOM     21  O   UNL     1      -0.799   0.670  -5.972  0.00  0.00    -0.153 OA
BRANCH  19  24
ATOM     22  C   UNL     1      -1.086   0.635  -9.048  0.00  0.00    +0.041 C 
ATOM     23  C   UNL     1      -1.140  -0.871  -8.781  0.00  0.00    +0.176 C 
ATOM     24  C   UNL     1      -0.267  -1.238  -7.595  0.00  0.00    +0.131 C 
ATOM     25  C   UNL     1       0.647  -2.063  -8.111  0.00  0.00    +0.084 C 
ATOM     26  N   UNL     1       0.441  -2.239  -9.435  0.00  0.00    -0.157 NA
ATOM     27  N   UNL     1      -0.527  -1.619  -9.893  0.00  0.00    -0.178 NA
ATOM     28  C   UNL     1       1.757  -2.711  -7.325  0.00  0.00    +0.069 C 
ENDBRANCH  19  24
ENDBRANCH  17  19
ENDBRANCH  16  17
ENDBRANCH   1  16
TORSDOF 7
