REMARK  Name = ZINC36635366
REMARK  7 active torsions:
REMARK  status: ('A' for Active; 'I' for Inactive)
REMARK    1  A    between atoms: C_1  and  C_2
REMARK    2  A    between atoms: C_2  and  O_3
REMARK    3  A    between atoms: O_3  and  C_4
REMARK    4  A    between atoms: C_9  and  N_10
REMARK    5  A    between atoms: N_10  and  C_11
REMARK    6  A    between atoms: N_16  and  C_19
REMARK    7  A    between atoms: C_23  and  C_25
REMARK                            x       y       z     vdW  Elec       q    Type
REMARK                         _______ _______ _______ _____ _____    ______ ____
ROOT
ATOM      1  C   UNL     1      -5.165  -2.013  -0.005  0.00  0.00    +0.167 C 
ATOM      2  C   UNL     1      -6.348  -1.284   0.663  0.00  0.00    +0.128 C 
ATOM      3  C   UNL     1      -7.345  -1.118  -0.463  0.00  0.00    +0.228 C 
ATOM      4  O   UNL     1      -8.430  -0.586  -0.368  0.00  0.00    -0.275 OA
ATOM      5  N   UNL     1      -6.838  -1.652  -1.581  0.00  0.00    -0.209 N 
ATOM      6  C   UNL     1      -5.615  -2.187  -1.439  0.00  0.00    +0.247 C 
ATOM      7  O   UNL     1      -4.973  -2.722  -2.317  0.00  0.00    -0.273 OA
ENDROOT
BRANCH   5   8
ATOM      8  C   UNL     1      -7.529  -1.654  -2.801  0.00  0.00    +0.044 A 
ATOM      9  C   UNL     1      -7.976  -2.851  -3.345  0.00  0.00    +0.024 A 
ATOM     10  C   UNL     1      -8.656  -2.850  -4.547  0.00  0.00    +0.002 A 
ATOM     11  C   UNL     1      -8.892  -1.658  -5.209  0.00  0.00    +0.003 A 
ATOM     12  C   UNL     1      -8.448  -0.465  -4.670  0.00  0.00    -0.049 A 
ATOM     13  C   UNL     1      -7.772  -0.459  -3.465  0.00  0.00    +0.027 A 
ATOM     14  C   UNL     1      -8.707   0.831  -5.394  0.00  0.00    +0.044 C 
ENDBRANCH   5   8
BRANCH   1  15
ATOM     15  N   UNL     1      -3.952  -1.195   0.059  0.00  0.00    -0.330 N 
ATOM     16  H   UNL     1      -4.020  -0.233   0.165  0.00  0.00    +0.147 HD
BRANCH  15  22
ATOM     17  C   UNL     1      -1.538  -1.024   0.027  0.00  0.00    +0.141 A 
ATOM     18  C   UNL     1      -0.295  -1.630  -0.058  0.00  0.00    +0.047 A 
ATOM     19  C   UNL     1      -0.203  -3.001  -0.210  0.00  0.00    +0.004 A 
ATOM     20  C   UNL     1      -1.349  -3.772  -0.276  0.00  0.00    +0.002 A 
ATOM     21  C   UNL     1      -2.593  -3.175  -0.191  0.00  0.00    +0.026 A 
ATOM     22  C   UNL     1      -2.693  -1.801  -0.033  0.00  0.00    +0.070 A 
BRANCH  17  23
ATOM     23  O   UNL     1      -1.631   0.325   0.176  0.00  0.00    -0.490 OA
BRANCH  23  25
ATOM     24  C   UNL     1      -0.708   2.547   0.399  0.00  0.00    +0.048 C 
ATOM     25  C   UNL     1      -0.405   1.057   0.230  0.00  0.00    +0.226 C 
ENDBRANCH  23  25
ENDBRANCH  17  23
ENDBRANCH  15  22
ENDBRANCH   1  15
TORSDOF 5
