REMARK  Name = ZINC07607146
REMARK  10 active torsions:
REMARK  status: ('A' for Active; 'I' for Inactive)
REMARK    1  A    between atoms: C_1  and  C_2
REMARK    2  A    between atoms: C_2  and  O_3
REMARK    3  A    between atoms: O_3  and  C_4
REMARK    4  A    between atoms: C_4  and  C_6
REMARK    5  A    between atoms: C_7  and  C_13
REMARK    6  A    between atoms: C_13  and  N_52
REMARK    7  A    between atoms: C_14  and  C_16
REMARK    8  A    between atoms: C_14  and  C_22
REMARK    9  A    between atoms: C_14  and  N_52
REMARK   10  A    between atoms: C_25  and  C_28
REMARK                            x       y       z     vdW  Elec       q    Type
REMARK                         _______ _______ _______ _____ _____    ______ ____
ROOT
ATOM      1  N   UNL     1       4.438  -0.081  -1.484  0.00  0.00    +0.390 N 
ATOM      2  H   UNL     1       4.525   0.943  -1.489  0.00  0.00    -0.084 HD
ATOM      3  H   UNL     1       3.850  -0.378  -2.272  0.00  0.00    -0.084 HD
ENDROOT
BRANCH   1   4
ATOM      4  C   UNL     1       3.811  -0.511  -0.220  0.00  0.00    -0.029 C 
BRANCH   4   6
ATOM      5  C   UNL     1       1.349  -0.668  -0.128  0.00  0.00    +0.069 C 
ATOM      6  C   UNL     1       2.447   0.118  -0.107  0.00  0.00    +0.006 C 
ATOM      7  N   UNL     1       2.340   1.474   0.016  0.00  0.00    -0.274 N 
ATOM      8  C   UNL     1       1.173   2.121   0.123  0.00  0.00    +0.304 C 
ATOM      9  O   UNL     1       1.179   3.332   0.229  0.00  0.00    -0.253 OA
ATOM     10  N   UNL     1      -0.009   1.473   0.118  0.00  0.00    -0.295 N 
ATOM     11  C   UNL     1      -0.003   0.006  -0.010  0.00  0.00    +0.149 C 
ATOM     12  H   UNL     1       3.156   1.998   0.026  0.00  0.00    +0.156 HD
ATOM     13  H   UNL     1      -0.844   1.962   0.193  0.00  0.00    +0.151 HD
BRANCH   5  14
ATOM     14  C   UNL     1       1.458  -2.072  -0.255  0.00  0.00    +0.338 C 
ATOM     15  O   UNL     1       1.264  -2.602  -1.333  0.00  0.00    -0.245 OA
BRANCH  14  16
ATOM     16  O   UNL     1       1.776  -2.825   0.819  0.00  0.00    -0.462 OA
BRANCH  16  18
ATOM     17  C   UNL     1       2.235  -4.917   1.938  0.00  0.00    +0.048 C 
ATOM     18  C   UNL     1       1.868  -4.237   0.617  0.00  0.00    +0.229 C 
ENDBRANCH  16  18
ENDBRANCH  14  16
ENDBRANCH   5  14
ENDBRANCH   4   6
ENDBRANCH   1   4
BRANCH   1  19
ATOM     19  C   UNL     1       5.778  -0.683  -1.623  0.00  0.00    -0.010 C 
BRANCH  19  20
ATOM     20  C   UNL     1       6.136  -0.761  -3.084  0.00  0.00    -0.057 A 
ATOM     21  C   UNL     1       5.806   0.278  -3.933  0.00  0.00    +0.002 A 
ATOM     22  C   UNL     1       6.139   0.208  -5.273  0.00  0.00    +0.003 A 
ATOM     23  C   UNL     1       6.794  -0.905  -5.766  0.00  0.00    -0.050 A 
ATOM     24  C   UNL     1       7.120  -1.946  -4.917  0.00  0.00    +0.003 A 
ATOM     25  C   UNL     1       6.791  -1.875  -3.576  0.00  0.00    +0.002 A 
ATOM     26  C   UNL     1       7.152  -0.984  -7.227  0.00  0.00    +0.044 C 
ENDBRANCH  19  20
BRANCH  19  27
ATOM     27  C   UNL     1       6.789   0.171  -0.902  0.00  0.00    -0.057 A 
ATOM     28  C   UNL     1       6.703   1.549  -0.967  0.00  0.00    +0.002 A 
ATOM     29  C   UNL     1       7.628   2.332  -0.302  0.00  0.00    +0.000 A 
ATOM     30  C   UNL     1       8.646   1.736   0.420  0.00  0.00    +0.000 A 
ATOM     31  C   UNL     1       8.735   0.358   0.480  0.00  0.00    +0.000 A 
ATOM     32  C   UNL     1       7.807  -0.425  -0.180  0.00  0.00    +0.002 A 
ENDBRANCH  19  27
ENDBRANCH   1  19
TORSDOF 8
