REMARK  Name = ZINC02745537
REMARK  7 active torsions:
REMARK  status: ('A' for Active; 'I' for Inactive)
REMARK    1  A    between atoms: C_1  and  O_2
REMARK    2  A    between atoms: O_2  and  C_3
REMARK    3  A    between atoms: C_6  and  N_9
REMARK    4  A    between atoms: C_10  and  C_21
REMARK    5  A    between atoms: C_26  and  O_27
REMARK    6  A    between atoms: O_27  and  C_28
REMARK    7  A    between atoms: C_28  and  C_29
REMARK                            x       y       z     vdW  Elec       q    Type
REMARK                         _______ _______ _______ _____ _____    ______ ____
ROOT
ATOM      1  N   UNL     1      -0.738   1.567  -1.168  0.00  0.00    -0.244 N 
ATOM      2  C   UNL     1       0.100   1.024  -0.098  0.00  0.00    +0.201 C 
ATOM      3  N   UNL     1       1.445   1.606  -0.161  0.00  0.00    -0.321 N 
ATOM      4  C   UNL     1       1.575   2.971  -0.390  0.00  0.00    +0.041 A 
ATOM      5  C   UNL     1       2.654   3.692   0.092  0.00  0.00    +0.024 A 
ATOM      6  C   UNL     1       2.745   5.045  -0.169  0.00  0.00    +0.002 A 
ATOM      7  C   UNL     1       1.765   5.687  -0.911  0.00  0.00    +0.001 A 
ATOM      8  C   UNL     1       0.681   4.984  -1.395  0.00  0.00    +0.015 A 
ATOM      9  C   UNL     1       0.574   3.620  -1.135  0.00  0.00    +0.058 A 
ATOM     10  C   UNL     1      -0.576   2.831  -1.608  0.00  0.00    +0.254 C 
ATOM     11  O   UNL     1      -1.372   3.315  -2.390  0.00  0.00    -0.270 OA
ATOM     12  H   UNL     1       2.230   1.048  -0.046  0.00  0.00    +0.148 HD
ENDROOT
BRANCH   1  16
ATOM     13  C   UNL     1      -3.679  -0.838  -2.885  0.00  0.00    +0.120 A 
ATOM     14  C   UNL     1      -4.026   0.372  -2.303  0.00  0.00    +0.047 A 
ATOM     15  C   UNL     1      -3.053   1.169  -1.734  0.00  0.00    +0.027 A 
ATOM     16  C   UNL     1      -1.726   0.759  -1.745  0.00  0.00    +0.039 A 
ATOM     17  C   UNL     1      -1.379  -0.450  -2.333  0.00  0.00    +0.027 A 
ATOM     18  C   UNL     1      -2.354  -1.249  -2.896  0.00  0.00    +0.047 A 
BRANCH  13  20
ATOM     19  C   UNL     1      -4.210  -2.855  -4.027  0.00  0.00    +0.277 C 
ATOM     20  O   UNL     1      -4.638  -1.622  -3.445  0.00  0.00    -0.495 OA
ENDBRANCH  13  20
ENDBRANCH   1  16
BRANCH   2  21
ATOM     21  C   UNL     1      -0.524   1.352   1.234  0.00  0.00    +0.033 A 
ATOM     22  C   UNL     1      -1.881   1.592   1.322  0.00  0.00    +0.011 A 
ATOM     23  C   UNL     1      -2.454   1.889   2.545  0.00  0.00    +0.001 A 
ATOM     24  C   UNL     1      -1.669   1.956   3.681  0.00  0.00    +0.004 A 
ATOM     25  C   UNL     1      -0.310   1.722   3.597  0.00  0.00    +0.046 A 
ATOM     26  C   UNL     1       0.266   1.420   2.372  0.00  0.00    +0.127 A 
BRANCH  26  27
ATOM     27  O   UNL     1       1.603   1.189   2.288  0.00  0.00    -0.488 OA
BRANCH  27  28
ATOM     28  C   UNL     1       2.354   1.275   3.500  0.00  0.00    +0.256 C 
BRANCH  28  29
ATOM     29  C   UNL     1       3.806   0.991   3.213  0.00  0.00    +0.006 C 
ATOM     30  C   UNL     1       4.737   1.753   3.730  0.00  0.00    +0.007 C 
ENDBRANCH  28  29
ENDBRANCH  27  28
ENDBRANCH  26  27
ENDBRANCH   2  21
TORSDOF 6
