REMARK  Name = ZINC04555653
REMARK  9 active torsions:
REMARK  status: ('A' for Active; 'I' for Inactive)
REMARK    1  A    between atoms: C_1  and  C_2
REMARK    2  A    between atoms: C_2  and  C_3
REMARK    3  A    between atoms: C_2  and  C_4
REMARK    4  A    between atoms: C_7  and  C_10
REMARK    5  A    between atoms: C_13  and  C_24
REMARK    6  A    between atoms: C_19  and  N_23
REMARK    7  A    between atoms: C_20  and  C_21
REMARK    8  A    between atoms: C_24  and  O_25
REMARK    9  A    between atoms: O_25  and  C_26
REMARK                            x       y       z     vdW  Elec       q    Type
REMARK                         _______ _______ _______ _____ _____    ______ ____
ROOT
ATOM      1  C   UNL     1       2.797  -1.919   4.683  0.00  0.00    +0.101 C 
ATOM      2  C   UNL     1       2.085  -1.454   5.927  0.00  0.00    +0.052 A 
ATOM      3  C   UNL     1       2.017  -0.181   6.477  0.00  0.00    +0.096 A 
ATOM      4  N   UNL     1       1.284  -0.245   7.564  0.00  0.00    -0.173 NA
ATOM      5  N   UNL     1       0.862  -1.572   7.736  0.00  0.00    -0.246 N 
ATOM      6  H   UNL     1       0.307  -1.906   8.458  0.00  0.00    +0.192 HD
ATOM      7  C   UNL     1       1.364  -2.298   6.724  0.00  0.00    +0.223 A 
ATOM      8  O   UNL     1       1.235  -3.622   6.460  0.00  0.00    -0.423 OA
ATOM      9  C   UNL     1       2.060  -4.158   5.537  0.00  0.00    +0.200 C 
ATOM     10  C   UNL     1       2.812  -3.427   4.685  0.00  0.00    +0.098 C 
ENDROOT
BRANCH   1  14
ATOM     11  C   UNL     1       0.731  -0.503   1.223  0.00  0.00    -0.045 A 
ATOM     12  C   UNL     1       2.050  -0.148   1.434  0.00  0.00    +0.004 A 
ATOM     13  C   UNL     1       2.719  -0.606   2.554  0.00  0.00    +0.005 A 
ATOM     14  C   UNL     1       2.068  -1.419   3.463  0.00  0.00    -0.035 A 
ATOM     15  C   UNL     1       0.749  -1.773   3.252  0.00  0.00    +0.005 A 
ATOM     16  C   UNL     1       0.079  -1.312   2.135  0.00  0.00    +0.004 A 
BRANCH  11  18
ATOM     17  C   UNL     1      -0.019   1.526   0.010  0.00  0.00    +0.012 C 
ATOM     18  C   UNL     1       0.002  -0.004   0.002  0.00  0.00    +0.013 C 
ATOM     19  C   UNL     1       0.718  -0.497  -1.257  0.00  0.00    +0.012 C 
ENDBRANCH  11  18
ENDBRANCH   1  14
BRANCH   9  20
ATOM     20  N   UNL     1       2.139  -5.527   5.459  0.00  0.00    -0.328 N 
ATOM     21  H   UNL     1       1.611  -6.078   6.056  0.00  0.00    +0.145 HD
ATOM     22  H   UNL     1       2.724  -5.941   4.805  0.00  0.00    +0.145 HD
ENDBRANCH   9  20
BRANCH  10  23
ATOM     23  C   UNL     1       3.656  -4.109   3.749  0.00  0.00    +0.101 C 
ATOM     24  N   UNL     1       4.325  -4.649   3.007  0.00  0.00    -0.191 NA
ENDBRANCH  10  23
BRANCH   3  25
ATOM     25  C   UNL     1       2.671   1.059   5.923  0.00  0.00    +0.217 C 
BRANCH  25  26
ATOM     26  O   UNL     1       1.775   1.707   5.019  0.00  0.00    -0.377 OA
ATOM     27  C   UNL     1       2.301   2.900   4.434  0.00  0.00    +0.194 C 
ENDBRANCH  25  26
ENDBRANCH   3  25
TORSDOF 6
