REMARK  Name = ZINC49177321
REMARK  6 active torsions:
REMARK  status: ('A' for Active; 'I' for Inactive)
REMARK    1  A    between atoms: C_1  and  C_2
REMARK    2  A    between atoms: N_5  and  C_11
REMARK    3  A    between atoms: C_7  and  C_9
REMARK    4  A    between atoms: C_7  and  C_10
REMARK    5  A    between atoms: C_11  and  C_13
REMARK    6  A    between atoms: C_11  and  C_14
REMARK                            x       y       z     vdW  Elec       q    Type
REMARK                         _______ _______ _______ _____ _____    ______ ____
ROOT
ATOM      1  C   UNL     1       1.439  -2.486  -2.440  0.00  0.00    +0.141 C 
ATOM      2  C   UNL     1       2.854  -2.011  -2.103  0.00  0.00    +0.034 C 
ENDROOT
BRANCH   1   6
ATOM      3  C   UNL     1      -0.934   1.487  -0.765  0.00  0.00    +0.039 C 
ATOM      4  C   UNL     1      -0.758  -0.026  -0.621  0.00  0.00    +0.130 C 
ATOM      5  C   UNL     1       0.274  -0.519  -1.639  0.00  0.00    +0.116 C 
ATOM      6  N   UNL     1       0.495  -1.960  -1.445  0.00  0.00    -0.287 NA
ATOM      7  C   UNL     1       0.963  -2.236  -0.078  0.00  0.00    +0.119 C 
ATOM      8  C   UNL     1      -0.076  -1.725   0.923  0.00  0.00    +0.077 C 
ATOM      9  O   UNL     1      -0.303  -0.331   0.700  0.00  0.00    -0.368 OA
ATOM     10  C   UNL     1      -1.387  -2.491   0.735  0.00  0.00    +0.042 C 
ATOM     11  C   UNL     1       0.440  -1.937   2.348  0.00  0.00    +0.042 C 
ENDBRANCH   1   6
BRANCH   1  12
ATOM     12  C   UNL     1       1.398  -3.992  -2.424  0.00  0.00    +0.237 C 
ATOM     13  O   UNL     1       0.812  -4.573  -1.536  0.00  0.00    -0.274 OA
ATOM     14  N   UNL     1       2.012  -4.694  -3.397  0.00  0.00    -0.239 N 
ATOM     15  C   UNL     1       1.976  -6.041  -3.383  0.00  0.00    +0.303 C 
ATOM     16  O   UNL     1       1.388  -6.623  -2.493  0.00  0.00    -0.253 OA
ATOM     17  N   UNL     1       2.590  -6.742  -4.356  0.00  0.00    -0.313 N 
ATOM     18  H   UNL     1       2.481  -4.229  -4.108  0.00  0.00    +0.159 HD
ATOM     19  H   UNL     1       3.059  -6.277  -5.066  0.00  0.00    +0.146 HD
ATOM     20  H   UNL     1       2.564  -7.712  -4.346  0.00  0.00    +0.146 HD
ENDBRANCH   1  12
TORSDOF 2
