REMARK  Name = ZINC22454207
REMARK  4 active torsions:
REMARK  status: ('A' for Active; 'I' for Inactive)
REMARK    1  A    between atoms: C_6  and  S_7
REMARK    2  A    between atoms: S_7  and  C_8
REMARK    3  A    between atoms: C_8  and  C_9
REMARK    4  A    between atoms: C_20  and  C_23
REMARK                            x       y       z     vdW  Elec       q    Type
REMARK                         _______ _______ _______ _____ _____    ______ ____
ROOT
ATOM      1  C   UNL     1      -2.313   4.856   0.039  0.00  0.00    +0.060 A 
ATOM      2  C   UNL     1      -2.696   5.485   1.188  0.00  0.00    +0.094 A 
ATOM      3  C   UNL     1      -3.852   6.287   1.172  0.00  0.00    +0.253 A 
ATOM      4  O   UNL     1      -4.220   6.867   2.179  0.00  0.00    -0.268 OA
ATOM      5  N   UNL     1      -4.549   6.396   0.021  0.00  0.00    -0.295 N 
ATOM      6  H   UNL     1      -5.458   7.014  -0.015  0.00  0.00    +0.172 HD
ATOM      7  C   UNL     1      -4.122   5.740  -1.093  0.00  0.00    +0.198 A 
ATOM      8  N   UNL     1      -3.035   4.996  -1.071  0.00  0.00    -0.220 NA
ATOM      9  N   UNL     1      -4.834   5.857  -2.256  0.00  0.00    -0.301 N 
ATOM     10  C   UNL     1      -6.258   5.577  -2.031  0.00  0.00    +0.108 C 
ATOM     11  C   UNL     1      -7.043   5.857  -3.315  0.00  0.00    +0.032 C 
ATOM     12  C   UNL     1      -6.502   4.972  -4.441  0.00  0.00    +0.078 C 
ATOM     13  C   UNL     1      -5.007   5.248  -4.622  0.00  0.00    +0.032 C 
ATOM     14  C   UNL     1      -4.281   4.986  -3.301  0.00  0.00    +0.108 C 
ENDROOT
BRANCH  12  15
ATOM     15  C   UNL     1      -7.230   5.285  -5.723  0.00  0.00    +0.214 C 
ATOM     16  O   UNL     1      -6.615   5.688  -6.687  0.00  0.00    -0.276 OA
ATOM     17  N   UNL     1      -8.566   5.116  -5.798  0.00  0.00    -0.329 N 
ATOM     18  H   UNL     1      -9.097   5.344  -6.733  0.00  0.00    +0.145 HD
ATOM     19  H   UNL     1      -9.123   4.750  -4.923  0.00  0.00    +0.145 HD
ENDBRANCH  12  15
BRANCH   1  20
ATOM     20  C   UNL     1      -1.075   3.997   0.029  0.00  0.00    +0.130 C 
BRANCH  20  21
ATOM     21  S   UNL     1      -1.554   2.247   0.022  0.00  0.00    -0.119 S 
BRANCH  21  27
ATOM     22  C   UNL     1       1.179   2.094   0.002  0.00  0.00    +0.016 A 
ATOM     23  C   UNL     1       2.381   1.415  -0.012  0.00  0.00    +0.021 A 
ATOM     24  C   UNL     1       2.397   0.032  -0.020  0.00  0.00    +0.041 A 
ATOM     25  C   UNL     1       1.208  -0.677  -0.013  0.00  0.00    +0.021 A 
ATOM     26  C   UNL     1       0.002  -0.004   0.002  0.00  0.00    +0.016 A 
ATOM     27  C   UNL     1      -0.017   1.385   0.010  0.00  0.00    +0.008 A 
ATOM     28 CL   UNL     1       3.911  -0.818  -0.039  0.00  0.00    -0.084 Cl
ENDBRANCH  21  27
ENDBRANCH  20  21
ENDBRANCH   1  20
TORSDOF 4
