REMARK  Name = ZINC54379378
REMARK  4 active torsions:
REMARK  status: ('A' for Active; 'I' for Inactive)
REMARK    1  A    between atoms: C_4  and  N_9
REMARK    2  A    between atoms: C_5  and  C_7
REMARK    3  A    between atoms: C_12  and  C_15
REMARK    4  A    between atoms: C_15  and  C_16
REMARK                            x       y       z     vdW  Elec       q    Type
REMARK                         _______ _______ _______ _____ _____    ______ ____
ROOT
ATOM      1  N   UNL     1       3.580  -0.591  -0.036  0.00  0.00    -0.313 N 
ATOM      2  C   UNL     1       3.633  -2.056   0.060  0.00  0.00    +0.107 C 
ATOM      3  C   UNL     1       4.568  -2.442   1.211  0.00  0.00    +0.023 C 
ATOM      4  C   UNL     1       5.930  -1.776   1.001  0.00  0.00    +0.001 C 
ATOM      5  C   UNL     1       5.762  -0.255   1.004  0.00  0.00    +0.023 C 
ATOM      6  C   UNL     1       4.840   0.155  -0.154  0.00  0.00    +0.107 C 
ENDROOT
BRANCH   1  10
ATOM      7  C   UNL     1       0.009   1.361  -0.045  0.00  0.00    +0.132 A 
ATOM      8  C   UNL     1       0.668   1.085   1.143  0.00  0.00    +0.132 A 
ATOM      9  N   UNL     1       1.827   0.450   1.133  0.00  0.00    -0.236 NA
ATOM     10  C   UNL     1       2.366   0.073  -0.020  0.00  0.00    +0.157 A 
ATOM     11  C   UNL     1       1.698   0.353  -1.225  0.00  0.00    +0.180 A 
ATOM     12  N   UNL     1       0.532   0.993  -1.198  0.00  0.00    -0.240 NA
BRANCH  11  13
ATOM     13  C   UNL     1       2.271  -0.048  -2.475  0.00  0.00    +0.123 C 
ATOM     14  N   UNL     1       2.724  -0.366  -3.466  0.00  0.00    -0.189 NA
ENDBRANCH  11  13
ENDBRANCH   1  10
BRANCH   4  15
ATOM     15  C   UNL     1       6.877  -2.187   2.130  0.00  0.00    +0.099 C 
BRANCH  15  16
ATOM     16  C   UNL     1       8.252  -1.632   1.860  0.00  0.00    +0.211 C 
ATOM     17  O   UNL     1       8.454  -0.973   0.862  0.00  0.00    -0.276 OA
ATOM     18  N   UNL     1       9.256  -1.868   2.727  0.00  0.00    -0.329 N 
ATOM     19  H   UNL     1       9.094  -2.395   3.525  0.00  0.00    +0.145 HD
ATOM     20  H   UNL     1      10.141  -1.511   2.552  0.00  0.00    +0.145 HD
ENDBRANCH  15  16
ENDBRANCH   4  15
TORSDOF 4
