REMARK  Name = ZINC22358427
REMARK  10 active torsions:
REMARK  status: ('A' for Active; 'I' for Inactive)
REMARK    1  A    between atoms: C_1  and  O_2
REMARK    2  A    between atoms: O_2  and  C_3
REMARK    3  A    between atoms: C_3  and  C_4
REMARK    4  A    between atoms: C_4  and  N_5
REMARK    5  A    between atoms: C_6  and  C_8
REMARK    6  A    between atoms: C_12  and  N_13
REMARK    7  A    between atoms: C_14  and  C_16
REMARK    8  A    between atoms: C_16  and  N_17
REMARK    9  A    between atoms: N_20  and  C_23
REMARK   10  A    between atoms: C_23  and  C_24
REMARK                            x       y       z     vdW  Elec       q    Type
REMARK                         _______ _______ _______ _____ _____    ______ ____
ROOT
ATOM      1  N   UNL     1      -0.862   3.273   1.472  0.00  0.00    -0.278 N 
ATOM      2  C   UNL     1      -0.723   1.951   1.250  0.00  0.00    +0.232 C 
ATOM      3  O   UNL     1      -1.166   1.152   2.048  0.00  0.00    -0.274 OA
ATOM      4  H   UNL     1      -0.461   3.997   0.748  0.00  0.00    +0.155 HD
ENDROOT
BRANCH   1   9
ATOM      5  C   UNL     1      -1.746   5.027   3.015  0.00  0.00    +0.069 A 
ATOM      6  C   UNL     1      -2.460   5.228   4.264  0.00  0.00    -0.023 A 
ATOM      7  C   UNL     1      -2.814   4.097   4.912  0.00  0.00    -0.004 A 
ATOM      8  S   UNL     1      -2.220   2.782   3.886  0.00  0.00    -0.077 S 
ATOM      9  C   UNL     1      -1.511   3.720   2.612  0.00  0.00    +0.084 A 
ATOM     10  C   UNL     1      -3.547   3.993   6.214  0.00  0.00    +0.043 C 
ATOM     11  C   UNL     1      -3.514   5.368   6.898  0.00  0.00    +0.005 C 
ATOM     12  C   UNL     1      -3.909   6.437   5.876  0.00  0.00    +0.005 C 
ATOM     13  C   UNL     1      -2.799   6.599   4.836  0.00  0.00    +0.037 C 
BRANCH   5  15
ATOM     14  N   UNL     1      -0.069   6.691   2.412  0.00  0.00    -0.309 N 
ATOM     15  C   UNL     1      -1.293   6.164   2.207  0.00  0.00    +0.247 C 
ATOM     16  O   UNL     1      -2.021   6.632   1.352  0.00  0.00    -0.270 OA
ATOM     17  H   UNL     1       0.590   6.268   3.185  0.00  0.00    +0.149 HD
BRANCH  14  18
ATOM     18  C   UNL     1       0.384   7.827   1.605  0.00  0.00    +0.132 C 
BRANCH  18  19
ATOM     19  C   UNL     1       1.796   8.228   2.036  0.00  0.00    +0.178 C 
BRANCH  19  21
ATOM     20  C   UNL     1       4.059   7.440   2.102  0.00  0.00    +0.194 C 
ATOM     21  O   UNL     1       2.704   7.166   1.737  0.00  0.00    -0.381 OA
ENDBRANCH  19  21
ENDBRANCH  18  19
ENDBRANCH  14  18
ENDBRANCH   5  15
ENDBRANCH   1   9
BRANCH   2  22
ATOM     22  C   UNL     1      -0.018   1.465   0.010  0.00  0.00    +0.180 C 
BRANCH  22  23
ATOM     23  N   UNL     1       0.002  -0.004   0.002  0.00  0.00    -0.298 NA
ATOM     24  C   UNL     1       0.830  -0.526   1.099  0.00  0.00    +0.066 C 
ATOM     25  C   UNL     1       0.761  -2.054   1.104  0.00  0.00    -0.063 C 
ATOM     26  N   UNL     1       1.225  -2.568  -0.193  0.00  0.00    +0.387 N 
ATOM     27  C   UNL     1       0.397  -2.046  -1.289  0.00  0.00    -0.063 C 
ATOM     28  C   UNL     1       0.466  -0.517  -1.294  0.00  0.00    +0.066 C 
ATOM     29  H   UNL     1       2.255  -2.216  -0.348  0.00  0.00    -0.081 HD
BRANCH  26  30
ATOM     30  C   UNL     1       1.245  -4.037  -0.201  0.00  0.00    +0.019 C 
BRANCH  30  31
ATOM     31  C   UNL     1       2.286  -4.530   0.770  0.00  0.00    +0.199 C 
ATOM     32  O   UNL     1       2.947  -3.737   1.406  0.00  0.00    -0.278 OA
ATOM     33  N   UNL     1       2.483  -5.854   0.931  0.00  0.00    -0.303 N 
ATOM     34  C   UNL     1       1.752  -6.921   0.233  0.00  0.00    +0.108 C 
ATOM     35  C   UNL     1       2.298  -8.267   0.753  0.00  0.00    +0.020 C 
ATOM     36  C   UNL     1       2.902  -7.886   2.130  0.00  0.00    +0.020 C 
ATOM     37  C   UNL     1       3.464  -6.471   1.843  0.00  0.00    +0.108 C 
ENDBRANCH  30  31
ENDBRANCH  26  30
ENDBRANCH  22  23
ENDBRANCH   2  22
TORSDOF 9
