REMARK  Name = ZINC04581836
REMARK  7 active torsions:
REMARK  status: ('A' for Active; 'I' for Inactive)
REMARK    1  A    between atoms: C_1  and  C_2
REMARK    2  A    between atoms: C_10  and  C_11
REMARK    3  A    between atoms: C_11  and  O_13
REMARK    4  A    between atoms: O_13  and  C_14
REMARK    5  A    between atoms: C_14  and  C_16
REMARK    6  A    between atoms: C_14  and  C_17
REMARK    7  A    between atoms: N_22  and  C_23
REMARK                            x       y       z     vdW  Elec       q    Type
REMARK                         _______ _______ _______ _____ _____    ______ ____
ROOT
ATOM      1  C   UNL     1      -1.228   2.183   0.020  0.00  0.00    +0.376 C 
ATOM      2  O   UNL     1      -2.324   1.657   0.022  0.00  0.00    -0.241 OA
ENDROOT
BRANCH   1  12
ATOM      3  C   UNL     1      -1.190  -0.926   0.008  0.00  0.00    +0.048 C 
ATOM      4  C   UNL     1       0.002  -0.004   0.002  0.00  0.00    +0.010 A 
ATOM      5  C   UNL     1       1.412  -0.390  -0.013  0.00  0.00    +0.024 A 
ATOM      6  C   UNL     1       2.087  -1.613  -0.027  0.00  0.00    +0.012 A 
ATOM      7  C   UNL     1       3.453  -1.633  -0.041  0.00  0.00    +0.001 A 
ATOM      8  C   UNL     1       4.174  -0.446  -0.042  0.00  0.00    +0.004 A 
ATOM      9  C   UNL     1       3.527   0.771  -0.028  0.00  0.00    +0.047 A 
ATOM     10  C   UNL     1       2.138   0.816  -0.014  0.00  0.00    +0.136 A 
ATOM     11  O   UNL     1       1.248   1.827   0.000  0.00  0.00    -0.448 OA
ATOM     12  C   UNL     1      -0.016   1.355   0.009  0.00  0.00    +0.216 A 
ENDBRANCH   1  12
BRANCH   1  13
ATOM     13  O   UNL     1      -1.126   3.528   0.027  0.00  0.00    -0.447 OA
BRANCH  13  14
ATOM     14  C   UNL     1      -2.365   4.284   0.037  0.00  0.00    +0.259 C 
ATOM     15  C   UNL     1      -2.808   4.557  -1.402  0.00  0.00    +0.062 C 
BRANCH  14  16
ATOM     16  C   UNL     1      -2.150   5.592   0.753  0.00  0.00    +0.261 C 
ATOM     17  O   UNL     1      -1.040   5.901   1.131  0.00  0.00    -0.271 OA
ATOM     18  N   UNL     1      -3.192   6.418   0.975  0.00  0.00    -0.237 N 
ATOM     19  C   UNL     1      -3.000   7.588   1.616  0.00  0.00    +0.306 C 
ATOM     20  O   UNL     1      -1.887   7.898   1.994  0.00  0.00    -0.252 OA
ATOM     21  N   UNL     1      -4.041   8.414   1.837  0.00  0.00    -0.302 N 
ATOM     22  C   UNL     1      -3.832   9.686   2.534  0.00  0.00    +0.129 C 
ATOM     23  H   UNL     1      -4.080   6.170   0.673  0.00  0.00    +0.159 HD
ATOM     24  H   UNL     1      -4.929   8.166   1.536  0.00  0.00    +0.150 HD
ENDBRANCH  14  16
ENDBRANCH  13  14
ENDBRANCH   1  13
TORSDOF 4
