REMARK  Name = ZINC25047215
REMARK  6 active torsions:
REMARK  status: ('A' for Active; 'I' for Inactive)
REMARK    1  A    between atoms: C_1  and  C_2
REMARK    2  A    between atoms: C_6  and  N_8
REMARK    3  A    between atoms: C_9  and  C_11
REMARK    4  A    between atoms: C_11  and  C_13
REMARK    5  A    between atoms: C_11  and  N_14
REMARK    6  A    between atoms: N_14  and  C_15
REMARK                            x       y       z     vdW  Elec       q    Type
REMARK                         _______ _______ _______ _____ _____    ______ ____
ROOT
ATOM      1  C   UNL     1       1.059   7.433   0.242  0.00  0.00    +0.154 C 
ATOM      2  C   UNL     1       0.370   8.030  -0.986  0.00  0.00    +0.038 C 
ENDROOT
BRANCH   1   4
ATOM      3  N   UNL     1      -0.069   5.242   0.028  0.00  0.00    -0.284 N 
ATOM      4  C   UNL     1       1.085   5.931   0.122  0.00  0.00    +0.237 C 
ATOM      5  O   UNL     1       2.146   5.342   0.109  0.00  0.00    -0.273 OA
ATOM      6  H   UNL     1      -1.026   5.779  -0.048  0.00  0.00    +0.155 HD
BRANCH   3  12
ATOM      7  C   UNL     1      -1.980   0.985  -1.521  0.00  0.00    +0.044 C 
ATOM      8  C   UNL     1      -0.965   1.754  -0.715  0.00  0.00    -0.049 A 
ATOM      9  C   UNL     1      -0.013   1.076   0.025  0.00  0.00    +0.003 A 
ATOM     10  C   UNL     1       0.923   1.778   0.762  0.00  0.00    +0.002 A 
ATOM     11  C   UNL     1       0.907   3.159   0.765  0.00  0.00    +0.023 A 
ATOM     12  C   UNL     1      -0.051   3.842   0.028  0.00  0.00    +0.034 A 
ATOM     13  C   UNL     1      -0.990   3.134  -0.711  0.00  0.00    +0.026 A 
ENDBRANCH   3  12
ENDBRANCH   1   4
BRANCH   1  14
ATOM     14  N   UNL     1       2.430   7.940   0.328  0.00  0.00    -0.333 N 
ATOM     15  H   UNL     1       3.260   7.356  -0.096  0.00  0.00    +0.147 HD
BRANCH  14  16
ATOM     16  C   UNL     1       2.684   9.168   0.949  0.00  0.00    +0.031 A 
ATOM     17  C   UNL     1       1.636   9.908   1.480  0.00  0.00    +0.027 A 
ATOM     18  C   UNL     1       1.886  11.118   2.099  0.00  0.00    +0.051 A 
ATOM     19  C   UNL     1       3.182  11.601   2.182  0.00  0.00    +0.173 A 
ATOM     20  C   UNL     1       4.235  10.864   1.646  0.00  0.00    +0.174 A 
ATOM     21  C   UNL     1       3.984   9.649   1.031  0.00  0.00    +0.072 A 
ATOM     22  O   UNL     1       5.397  11.549   1.855  0.00  0.00    -0.395 OA
ATOM     23  C   UNL     1       5.000  12.899   2.159  0.00  0.00    +0.589 C 
ATOM     24  O   UNL     1       3.685  12.748   2.727  0.00  0.00    -0.395 OA
ATOM     25  F   UNL     1       4.946  13.669   0.993  0.00  0.00    -0.125 F 
ATOM     26  F   UNL     1       5.874  13.474   3.087  0.00  0.00    -0.125 F 
ENDBRANCH  14  16
ENDBRANCH   1  14
TORSDOF 4
