REMARK  Name = ZINC21788866
REMARK  5 active torsions:
REMARK  status: ('A' for Active; 'I' for Inactive)
REMARK    1  A    between atoms: C_3  and  S_8
REMARK    2  A    between atoms: S_8  and  C_9
REMARK    3  A    between atoms: C_9  and  C_10
REMARK    4  A    between atoms: N_12  and  C_13
REMARK    5  A    between atoms: C_14  and  N_21
REMARK                            x       y       z     vdW  Elec       q    Type
REMARK                         _______ _______ _______ _____ _____    ______ ____
ROOT
ATOM      1  C   UNL     1       1.073   6.594  -0.178  0.00  0.00    +0.227 C 
ATOM      2  O   UNL     1       2.094   6.003  -0.463  0.00  0.00    -0.275 OA
ATOM      3  N   UNL     1      -0.067   5.907   0.033  0.00  0.00    -0.282 N 
ATOM      4  H   UNL     1      -1.009   6.446   0.209  0.00  0.00    +0.155 HD
ENDROOT
BRANCH   3   5
ATOM      5  C   UNL     1      -0.052   4.504   0.026  0.00  0.00    +0.073 A 
ATOM      6  C   UNL     1      -0.267   3.808  -1.162  0.00  0.00    +0.049 A 
ATOM      7  C   UNL     1      -0.245   2.421  -1.163  0.00  0.00    +0.044 A 
ATOM      8  C   UNL     1      -0.021   1.732   0.015  0.00  0.00    +0.044 A 
ATOM      9  C   UNL     1       0.193   2.422   1.195  0.00  0.00    +0.042 A 
ATOM     10  C   UNL     1       0.178   3.806   1.203  0.00  0.00    +0.065 A 
ATOM     11 CL   UNL     1       0.447   4.668   2.686  0.00  0.00    -0.082 Cl
ATOM     12 CL   UNL     1      -0.000  -0.004   0.013  0.00  0.00    -0.083 Cl
BRANCH   6  13
ATOM     13  N   UNL     1      -0.499   4.506  -2.352  0.00  0.00    -0.356 N 
ATOM     14  H   UNL     1      -0.669   3.955  -3.289  0.00  0.00    +0.142 HD
ATOM     15  H   UNL     1      -0.512   5.606  -2.350  0.00  0.00    +0.142 HD
ENDBRANCH   6  13
ENDBRANCH   3   5
BRANCH   1  16
ATOM     16  C   UNL     1       1.081   8.096  -0.059  0.00  0.00    +0.170 C 
BRANCH  16  17
ATOM     17  S   UNL     1       2.750   8.721  -0.398  0.00  0.00    -0.116 S 
BRANCH  17  20
ATOM     18  C   UNL     1       3.575  12.655  -0.275  0.00  0.00    +0.039 A 
ATOM     19  C   UNL     1       3.700  11.287  -0.413  0.00  0.00    +0.017 A 
ATOM     20  C   UNL     1       2.594  10.467  -0.222  0.00  0.00    +0.009 A 
ATOM     21  C   UNL     1       1.365  11.027   0.103  0.00  0.00    +0.017 A 
ATOM     22  C   UNL     1       1.247  12.396   0.246  0.00  0.00    +0.039 A 
ATOM     23  C   UNL     1       2.350  13.211   0.054  0.00  0.00    +0.123 A 
ATOM     24  F   UNL     1       2.232  14.550   0.190  0.00  0.00    -0.205 F 
ENDBRANCH  17  20
ENDBRANCH  16  17
ENDBRANCH   1  16
TORSDOF 5
