REMARK  Name = ZINC13031550
REMARK  14 active torsions:
REMARK  status: ('A' for Active; 'I' for Inactive)
REMARK    1  A    between atoms: C_1  and  C_2
REMARK    2  A    between atoms: C_2  and  C_4
REMARK    3  A    between atoms: C_2  and  N_11
REMARK    4  A    between atoms: N_11  and  C_12
REMARK    5  A    between atoms: C_12  and  C_13
REMARK    6  A    between atoms: N_15  and  C_16
REMARK    7  A    between atoms: N_15  and  C_21
REMARK    8  A    between atoms: C_16  and  C_17
REMARK    9  A    between atoms: C_17  and  C_18
REMARK   10  A    between atoms: C_18  and  C_19
REMARK   11  A    between atoms: C_18  and  C_20
REMARK   12  A    between atoms: C_22  and  N_37
REMARK   13  A    between atoms: N_23  and  C_30
REMARK   14  A    between atoms: C_30  and  C_31
REMARK                            x       y       z     vdW  Elec       q    Type
REMARK                         _______ _______ _______ _____ _____    ______ ____
ROOT
ATOM      1  C   UNL     1       0.236  -1.006   3.677  0.00  0.00    +0.234 C 
ATOM      2  O   UNL     1       1.440  -0.916   3.556  0.00  0.00    -0.274 OA
ATOM      3  N   UNL     1      -0.297  -1.381   4.859  0.00  0.00    -0.263 N 
ENDROOT
BRANCH   3   4
ATOM      4  C   UNL     1       0.546  -1.762   5.924  0.00  0.00    +0.140 A 
ATOM      5  C   UNL     1       1.347  -2.881   5.820  0.00  0.00    +0.128 A 
ATOM      6  N   UNL     1       2.158  -3.227   6.876  0.00  0.00    -0.276 N 
ATOM      7  C   UNL     1       2.172  -2.482   7.996  0.00  0.00    +0.331 A 
ATOM      8  O   UNL     1       2.896  -2.804   8.918  0.00  0.00    -0.246 OA
ATOM      9  N   UNL     1       1.399  -1.388   8.115  0.00  0.00    -0.273 N 
ATOM     10  H   UNL     1       1.427  -0.868   8.934  0.00  0.00    +0.173 HD
ATOM     11  C   UNL     1       0.590  -1.003   7.109  0.00  0.00    +0.277 A 
ATOM     12  O   UNL     1      -0.104  -0.007   7.226  0.00  0.00    -0.266 OA
BRANCH   5  13
ATOM     13  N   UNL     1       1.333  -3.642   4.676  0.00  0.00    -0.343 N 
ATOM     14  H   UNL     1       0.784  -3.374   3.922  0.00  0.00    +0.144 HD
ATOM     15  H   UNL     1       1.872  -4.446   4.622  0.00  0.00    +0.144 HD
ENDBRANCH   5  13
BRANCH   6  16
ATOM     16  C   UNL     1       3.013  -4.412   6.779  0.00  0.00    +0.163 C 
BRANCH  16  17
ATOM     17  C   UNL     1       4.350  -4.023   6.204  0.00  0.00    -0.028 A 
ATOM     18  C   UNL     1       4.548  -4.047   4.836  0.00  0.00    +0.005 A 
ATOM     19  C   UNL     1       5.774  -3.689   4.308  0.00  0.00    +0.000 A 
ATOM     20  C   UNL     1       6.803  -3.307   5.148  0.00  0.00    +0.000 A 
ATOM     21  C   UNL     1       6.605  -3.282   6.516  0.00  0.00    +0.000 A 
ATOM     22  C   UNL     1       5.378  -3.635   7.043  0.00  0.00    +0.005 A 
ENDBRANCH  16  17
ENDBRANCH   6  16
ENDBRANCH   3   4
BRANCH   1  23
ATOM     23  C   UNL     1      -0.663  -0.699   2.508  0.00  0.00    +0.178 C 
BRANCH  23  24
ATOM     24  N   UNL     1       0.153  -0.318   1.348  0.00  0.00    -0.302 NA
ATOM     25  H   UNL     1       0.825  -1.038   1.127  0.00  0.00    +0.123 HD
BRANCH  24  27
ATOM     26  C   UNL     1      -1.150   1.447   0.260  0.00  0.00    +0.029 C 
ATOM     27  C   UNL     1      -0.692  -0.011   0.187  0.00  0.00    +0.081 C 
BRANCH  27  28
ATOM     28  C   UNL     1       0.096  -0.227  -1.079  0.00  0.00    -0.031 A 
ATOM     29  C   UNL     1       1.425   0.151  -1.139  0.00  0.00    +0.008 A 
ATOM     30  C   UNL     1       2.148  -0.046  -2.300  0.00  0.00    +0.038 A 
ATOM     31  C   UNL     1       1.543  -0.624  -3.403  0.00  0.00    +0.123 A 
ATOM     32  C   UNL     1       0.213  -1.002  -3.342  0.00  0.00    +0.038 A 
ATOM     33  C   UNL     1      -0.508  -0.808  -2.179  0.00  0.00    +0.008 A 
ATOM     34  F   UNL     1       2.250  -0.817  -4.538  0.00  0.00    -0.205 F 
ENDBRANCH  27  28
ENDBRANCH  24  27
ENDBRANCH  23  24
ENDBRANCH   1  23
BRANCH   3  35
ATOM     35  C   UNL     1      -1.751  -1.392   5.035  0.00  0.00    +0.114 C 
BRANCH  35  36
ATOM     36  C   UNL     1      -2.303  -2.760   4.630  0.00  0.00    +0.022 C 
BRANCH  36  37
ATOM     37  C   UNL     1      -3.822  -2.772   4.815  0.00  0.00    -0.016 C 
ATOM     38  C   UNL     1      -4.461  -1.775   3.846  0.00  0.00    +0.007 C 
ATOM     39  C   UNL     1      -4.360  -4.176   4.529  0.00  0.00    +0.007 C 
ENDBRANCH  36  37
ENDBRANCH  35  36
ENDBRANCH   3  35
TORSDOF 11
