REMARK  Name = ZINC09493362
REMARK  9 active torsions:
REMARK  status: ('A' for Active; 'I' for Inactive)
REMARK    1  A    between atoms: C_1  and  C_2
REMARK    2  A    between atoms: C_5  and  N_9
REMARK    3  A    between atoms: C_7  and  C_8
REMARK    4  A    between atoms: C_19  and  N_20
REMARK    5  A    between atoms: N_20  and  N_21
REMARK    6  A    between atoms: C_22  and  C_24
REMARK    7  A    between atoms: C_24  and  O_25
REMARK    8  A    between atoms: O_25  and  C_26
REMARK    9  A    between atoms: C_31  and  C_32
REMARK                            x       y       z     vdW  Elec       q    Type
REMARK                         _______ _______ _______ _____ _____    ______ ____
ROOT
ATOM      1  N   UNL     1      -2.434   1.046  -0.076  0.00  0.00    -0.202 N 
ATOM      2  C   UNL     1      -3.579   1.725   0.101  0.00  0.00    +0.258 C 
ATOM      3  O   UNL     1      -3.548   2.937   0.190  0.00  0.00    -0.269 OA
ATOM      4  C   UNL     1      -4.869   1.027   0.183  0.00  0.00    +0.046 A 
ATOM      5  C   UNL     1      -6.063   1.727   0.361  0.00  0.00    +0.014 A 
ATOM      6  C   UNL     1      -7.253   1.036   0.441  0.00  0.00    +0.001 A 
ATOM      7  C   UNL     1      -7.276  -0.348   0.344  0.00  0.00    +0.001 A 
ATOM      8  C   UNL     1      -6.106  -1.059   0.167  0.00  0.00    +0.009 A 
ATOM      9  C   UNL     1      -4.897  -0.379   0.086  0.00  0.00    +0.000 A 
ATOM     10  C   UNL     1      -3.615  -1.091  -0.103  0.00  0.00    +0.060 C 
ATOM     11  C   UNL     1      -3.576  -2.464  -0.206  0.00  0.00    +0.101 C 
ATOM     12  C   UNL     1      -2.387  -0.292  -0.178  0.00  0.00    +0.259 C 
ATOM     13  O   UNL     1      -1.315  -0.848  -0.333  0.00  0.00    -0.269 OA
ENDROOT
BRANCH   1  18
ATOM     14  C   UNL     1       2.432   3.951  -0.383  0.00  0.00    +0.044 C 
ATOM     15  C   UNL     1       1.138   3.182  -0.303  0.00  0.00    -0.047 A 
ATOM     16  C   UNL     1       0.340   3.289   0.822  0.00  0.00    +0.005 A 
ATOM     17  C   UNL     1      -0.846   2.586   0.898  0.00  0.00    +0.024 A 
ATOM     18  C   UNL     1      -1.234   1.766  -0.153  0.00  0.00    +0.045 A 
ATOM     19  C   UNL     1      -0.433   1.664  -1.283  0.00  0.00    +0.027 A 
ATOM     20  C   UNL     1       0.752   2.371  -1.353  0.00  0.00    -0.046 A 
ATOM     21  C   UNL     1       1.624   2.257  -2.577  0.00  0.00    +0.044 C 
ENDBRANCH   1  18
BRANCH  11  22
ATOM     22  N   UNL     1      -2.381  -3.111  -0.213  0.00  0.00    -0.271 N 
ATOM     23  H   UNL     1      -1.560  -2.614  -0.068  0.00  0.00    +0.169 HD
BRANCH  22  24
ATOM     24  N   UNL     1      -2.333  -4.494  -0.432  0.00  0.00    -0.234 N 
ATOM     25  C   UNL     1      -1.148  -5.135  -0.440  0.00  0.00    +0.267 C 
ATOM     26  O   UNL     1      -0.122  -4.514  -0.257  0.00  0.00    -0.271 OA
ATOM     27  H   UNL     1      -3.154  -4.990  -0.578  0.00  0.00    +0.173 HD
BRANCH  25  28
ATOM     28  C   UNL     1      -1.097  -6.622  -0.675  0.00  0.00    +0.326 C 
BRANCH  28  29
ATOM     29  O   UNL     1       0.261  -7.064  -0.637  0.00  0.00    -0.481 OA
BRANCH  29  30
ATOM     30  C   UNL     1       0.484  -8.389  -0.832  0.00  0.00    +0.138 A 
ATOM     31  C   UNL     1      -0.582  -9.249  -1.050  0.00  0.00    +0.047 A 
ATOM     32  C   UNL     1      -0.353 -10.596  -1.254  0.00  0.00    +0.004 A 
ATOM     33  C   UNL     1       0.937 -11.099  -1.231  0.00  0.00    +0.001 A 
ATOM     34  C   UNL     1       2.007 -10.260  -1.010  0.00  0.00    +0.022 A 
ATOM     35  C   UNL     1       1.791  -8.894  -0.808  0.00  0.00    +0.093 A 
BRANCH  35  36
ATOM     36  C   UNL     1       2.898  -8.016  -0.578  0.00  0.00    +0.103 C 
ATOM     37  N   UNL     1       3.777  -7.319  -0.395  0.00  0.00    -0.191 NA
ENDBRANCH  35  36
ENDBRANCH  29  30
ENDBRANCH  28  29
ENDBRANCH  25  28
ENDBRANCH  22  24
ENDBRANCH  11  22
TORSDOF 7
