REMARK  Name = ZINC40084352
REMARK  11 active torsions:
REMARK  status: ('A' for Active; 'I' for Inactive)
REMARK    1  A    between atoms: C_1  and  C_2
REMARK    2  A    between atoms: C_4  and  O_28
REMARK    3  A    between atoms: C_7  and  C_8
REMARK    4  A    between atoms: C_8  and  C_10
REMARK    5  A    between atoms: N_14  and  C_24
REMARK    6  A    between atoms: C_15  and  C_17
REMARK    7  A    between atoms: C_24  and  C_25
REMARK    8  A    between atoms: C_25  and  O_26
REMARK    9  A    between atoms: O_28  and  C_29
REMARK   10  A    between atoms: C_29  and  C_30
REMARK   11  A    between atoms: C_29  and  C_31
REMARK                            x       y       z     vdW  Elec       q    Type
REMARK                         _______ _______ _______ _____ _____    ______ ____
ROOT
ATOM      1  C   UNL     1       0.951  -1.536   2.576  0.00  0.00    +0.076 C 
ATOM      2  C   UNL     1       0.714  -1.180   3.860  0.00  0.00    +0.249 C 
ATOM      3  C   UNL     1       0.593  -2.400   4.687  0.00  0.00    +0.288 C 
ATOM      4  O   UNL     1       0.379  -2.413   5.883  0.00  0.00    -0.266 OA
ATOM      5  N   UNL     1       0.753  -3.493   3.919  0.00  0.00    -0.281 N 
ATOM      6  C   UNL     1       0.983  -3.046   2.540  0.00  0.00    +0.145 C 
ATOM      7  O   UNL     1       0.606   0.089   4.315  0.00  0.00    -0.282 OA
ENDROOT
BRANCH   6   8
ATOM      8  C   UNL     1      -0.104  -3.566   1.635  0.00  0.00    -0.021 A 
ATOM      9  C   UNL     1      -1.428  -3.274   1.907  0.00  0.00    +0.006 A 
ATOM     10  C   UNL     1      -2.426  -3.751   1.078  0.00  0.00    +0.001 A 
ATOM     11  C   UNL     1      -2.100  -4.520  -0.024  0.00  0.00    +0.015 A 
ATOM     12  C   UNL     1      -0.776  -4.811  -0.296  0.00  0.00    +0.018 A 
ATOM     13  C   UNL     1       0.222  -4.329   0.531  0.00  0.00    +0.021 A 
ATOM     14 BR   UNL     1      -0.330  -5.863  -1.803  0.00  0.00    -0.050 Br
ENDBRANCH   6   8
BRANCH   1  15
ATOM     15  C   UNL     1       1.134  -0.629   1.438  0.00  0.00    +0.195 C 
ATOM     16  O   UNL     1       1.370  -1.081   0.332  0.00  0.00    -0.287 OA
BRANCH  15  23
ATOM     17  C   UNL     1       3.279   0.785   2.766  0.00  0.00    +0.044 C 
ATOM     18  C   UNL     1       2.062   1.525   2.272  0.00  0.00    -0.036 A 
ATOM     19  C   UNL     1       1.966   2.888   2.447  0.00  0.00    +0.049 A 
ATOM     20  C   UNL     1       0.844   3.571   1.992  0.00  0.00    +0.121 A 
ATOM     21  C   UNL     1      -0.185   2.883   1.360  0.00  0.00    +0.046 A 
ATOM     22  C   UNL     1      -0.097   1.521   1.181  0.00  0.00    +0.015 A 
ATOM     23  C   UNL     1       1.032   0.830   1.632  0.00  0.00    +0.025 A 
BRANCH  20  24
ATOM     24  O   UNL     1       0.753   4.914   2.166  0.00  0.00    -0.489 OA
BRANCH  24  25
ATOM     25  C   UNL     1       1.830   5.553   2.855  0.00  0.00    +0.167 C 
ATOM     26  C   UNL     1       2.960   5.852   1.869  0.00  0.00    +0.051 C 
ATOM     27  C   UNL     1       1.334   6.862   3.474  0.00  0.00    +0.051 C 
ENDBRANCH  24  25
ENDBRANCH  20  24
ENDBRANCH  15  23
ENDBRANCH   1  15
BRANCH   5  28
ATOM     28  C   UNL     1       0.702  -4.883   4.377  0.00  0.00    +0.137 C 
BRANCH  28  29
ATOM     29  C   UNL     1      -0.754  -5.350   4.428  0.00  0.00    +0.175 C 
BRANCH  29  30
ATOM     30  O   UNL     1      -1.274  -5.436   3.100  0.00  0.00    -0.393 OA
ATOM     31  H   UNL     1      -2.195  -5.726   3.056  0.00  0.00    +0.209 HD
ENDBRANCH  29  30
ENDBRANCH  28  29
ENDBRANCH   5  28
TORSDOF 8
