REMARK  Name = ZINC05799164
REMARK  8 active torsions:
REMARK  status: ('A' for Active; 'I' for Inactive)
REMARK    1  A    between atoms: C_1  and  C_2
REMARK    2  A    between atoms: C_2  and  C_3
REMARK    3  A    between atoms: C_2  and  N_4
REMARK    4  A    between atoms: C_11  and  C_23
REMARK    5  A    between atoms: C_13  and  C_19
REMARK    6  A    between atoms: C_13  and  C_21
REMARK    7  A    between atoms: C_14  and  N_18
REMARK    8  A    between atoms: C_15  and  C_16
REMARK                            x       y       z     vdW  Elec       q    Type
REMARK                         _______ _______ _______ _____ _____    ______ ____
ROOT
ATOM      1  N   UNL     1      -0.174   1.108   2.429  0.00  0.00    -0.296 NA
ATOM      2  C   UNL     1       1.246   1.481   2.304  0.00  0.00    +0.112 C 
ATOM      3  C   UNL     1       1.981   0.798   3.435  0.00  0.00    -0.006 C 
ATOM      4  C   UNL     1       1.391   0.634   4.604  0.00  0.00    -0.026 C 
ATOM      5  C   UNL     1      -0.003   1.115   4.892  0.00  0.00    +0.044 C 
ATOM      6  C   UNL     1      -0.730   1.643   3.675  0.00  0.00    +0.094 C 
ATOM      7  C   UNL     1      -0.760  -0.040   5.552  0.00  0.00    +0.067 C 
ATOM      8  C   UNL     1      -0.094  -0.370   6.888  0.00  0.00    +0.188 C 
ATOM      9  C   UNL     1       1.385  -0.563   6.738  0.00  0.00    +0.054 C 
ATOM     10  C   UNL     1       2.100  -0.083   5.689  0.00  0.00    +0.074 C 
ENDROOT
BRANCH   7  11
ATOM     11  C   UNL     1      -0.721  -1.248   4.652  0.00  0.00    -0.041 A 
ATOM     12  C   UNL     1      -1.740  -1.469   3.745  0.00  0.00    +0.004 A 
ATOM     13  C   UNL     1      -1.701  -2.575   2.917  0.00  0.00    +0.000 A 
ATOM     14  C   UNL     1      -0.648  -3.466   3.003  0.00  0.00    +0.000 A 
ATOM     15  C   UNL     1       0.369  -3.248   3.914  0.00  0.00    +0.000 A 
ATOM     16  C   UNL     1       0.333  -2.139   4.739  0.00  0.00    +0.004 A 
ENDBRANCH   7  11
BRANCH   1  18
ATOM     17  C   UNL     1      -0.264   1.097  -0.018  0.00  0.00    +0.024 C 
ATOM     18  C   UNL     1      -0.945   1.571   1.268  0.00  0.00    +0.051 C 
ATOM     19  C   UNL     1      -2.362   1.000   1.335  0.00  0.00    +0.024 C 
ENDBRANCH   1  18
BRANCH   9  20
ATOM     20  N   UNL     1       2.048  -1.258   7.710  0.00  0.00    -0.358 N 
ATOM     21  H   UNL     1       3.134  -1.416   7.629  0.00  0.00    +0.142 HD
ATOM     22  H   UNL     1       1.497  -1.659   8.573  0.00  0.00    +0.142 HD
ENDBRANCH   9  20
BRANCH  10  23
ATOM     23  C   UNL     1       3.516  -0.285   5.625  0.00  0.00    +0.101 C 
ATOM     24  N   UNL     1       4.640  -0.446   5.575  0.00  0.00    -0.191 NA
ENDBRANCH  10  23
BRANCH   8  25
ATOM     25  C   UNL     1      -0.342   0.731   7.833  0.00  0.00    +0.091 C 
ATOM     26  N   UNL     1      -0.533   1.580   8.562  0.00  0.00    -0.194 NA
ENDBRANCH   8  25
BRANCH   8  27
ATOM     27  C   UNL     1      -0.685  -1.606   7.425  0.00  0.00    +0.091 C 
ATOM     28  N   UNL     1      -1.142  -2.560   7.840  0.00  0.00    -0.194 NA
ENDBRANCH   8  27
TORSDOF 6
