REMARK  Name = ZINC13982883
REMARK  9 active torsions:
REMARK  status: ('A' for Active; 'I' for Inactive)
REMARK    1  A    between atoms: C_1  and  C_2
REMARK    2  A    between atoms: C_2  and  C_3
REMARK    3  A    between atoms: C_3  and  C_5
REMARK    4  A    between atoms: C_3  and  C_6
REMARK    5  A    between atoms: C_9  and  O_12
REMARK    6  A    between atoms: O_12  and  C_13
REMARK    7  A    between atoms: C_13  and  C_14
REMARK    8  A    between atoms: N_16  and  N_17
REMARK    9  A    between atoms: C_18  and  C_19
REMARK                            x       y       z     vdW  Elec       q    Type
REMARK                         _______ _______ _______ _____ _____    ______ ____
ROOT
ATOM      1  C   UNL     1       5.931   3.380  -0.035  0.00  0.00    +0.270 C 
ATOM      2  O   UNL     1       5.953   2.167  -0.041  0.00  0.00    -0.270 OA
ATOM      3  N   UNL     1       4.752   4.033  -0.020  0.00  0.00    -0.204 N 
ATOM      4  H   UNL     1       4.734   5.003  -0.015  0.00  0.00    +0.177 HD
ENDROOT
BRANCH   3   5
ATOM      5  N   UNL     1       3.551   3.311  -0.013  0.00  0.00    -0.188 NA
ATOM      6  C   UNL     1       2.416   3.939   0.001  0.00  0.00    +0.139 C 
BRANCH   6   7
ATOM      7  C   UNL     1       1.153   3.179   0.008  0.00  0.00    +0.013 A 
ATOM      8  C   UNL     1      -0.071   3.852   0.023  0.00  0.00    +0.012 A 
ATOM      9  C   UNL     1      -1.249   3.135   0.031  0.00  0.00    +0.021 A 
ATOM     10  C   UNL     1      -1.222   1.750   0.017  0.00  0.00    +0.042 A 
ATOM     11  C   UNL     1      -0.013   1.076   0.008  0.00  0.00    +0.040 A 
ATOM     12  C   UNL     1       1.174   1.781   0.000  0.00  0.00    +0.051 A 
ATOM     13 CL   UNL     1       2.690   0.934  -0.018  0.00  0.00    -0.083 Cl
ATOM     14 CL   UNL     1      -2.710   0.856   0.020  0.00  0.00    -0.083 Cl
ENDBRANCH   6   7
ENDBRANCH   3   5
BRANCH   1  15
ATOM     15  C   UNL     1       7.222   4.157  -0.042  0.00  0.00    +0.326 C 
BRANCH  15  16
ATOM     16  O   UNL     1       8.325   3.249  -0.057  0.00  0.00    -0.483 OA
BRANCH  16  20
ATOM     17  C   UNL     1      12.108   4.894  -0.083  0.00  0.00    -0.044 A 
ATOM     18  C   UNL     1      11.953   3.520  -0.089  0.00  0.00    +0.007 A 
ATOM     19  C   UNL     1      10.687   2.967  -0.080  0.00  0.00    +0.046 A 
ATOM     20  C   UNL     1       9.571   3.791  -0.066  0.00  0.00    +0.121 A 
ATOM     21  C   UNL     1       9.729   5.169  -0.066  0.00  0.00    +0.046 A 
ATOM     22  C   UNL     1      10.997   5.718  -0.069  0.00  0.00    +0.007 A 
BRANCH  17  23
ATOM     23  C   UNL     1      13.490   5.495  -0.092  0.00  0.00    +0.016 C 
ATOM     24  C   UNL     1      13.681   6.354   1.160  0.00  0.00    +0.012 C 
BRANCH  23  26
ATOM     25  C   UNL     1      15.099   6.877  -1.413  0.00  0.00    +0.004 C 
ATOM     26  C   UNL     1      13.658   6.367  -1.339  0.00  0.00    +0.004 C 
ENDBRANCH  23  26
ENDBRANCH  17  23
ENDBRANCH  16  20
ENDBRANCH  15  16
ENDBRANCH   1  15
TORSDOF 7
