REMARK  Name = ZINC23271422
REMARK  13 active torsions:
REMARK  status: ('A' for Active; 'I' for Inactive)
REMARK    1  A    between atoms: C_1  and  C_2
REMARK    2  A    between atoms: C_2  and  C_3
REMARK    3  A    between atoms: C_2  and  C_4
REMARK    4  A    between atoms: C_4  and  N_5
REMARK    5  A    between atoms: C_6  and  N_35
REMARK    6  A    between atoms: C_7  and  N_14
REMARK    7  A    between atoms: N_14  and  C_15
REMARK    8  A    between atoms: C_15  and  C_16
REMARK    9  A    between atoms: C_16  and  C_17
REMARK   10  A    between atoms: C_16  and  C_18
REMARK   11  A    between atoms: C_19  and  C_21
REMARK   12  A    between atoms: C_24  and  N_27
REMARK   13  A    between atoms: C_28  and  C_30
REMARK                            x       y       z     vdW  Elec       q    Type
REMARK                         _______ _______ _______ _____ _____    ______ ____
ROOT
ATOM      1  N   UNL     1       0.195  -2.909   2.360  0.00  0.00    -0.260 N 
ATOM      2  C   UNL     1      -0.331  -2.491   3.528  0.00  0.00    +0.251 C 
ATOM      3  O   UNL     1      -0.553  -3.292   4.416  0.00  0.00    -0.270 OA
ENDROOT
BRANCH   1   6
ATOM      4  N   UNL     1       0.216  -1.108  -0.843  0.00  0.00    -0.280 N 
ATOM      5  C   UNL     1      -0.109  -2.036   0.119  0.00  0.00    +0.127 A 
ATOM      6  C   UNL     1       0.507  -1.972   1.352  0.00  0.00    +0.140 A 
ATOM      7  C   UNL     1       1.452  -0.956   1.587  0.00  0.00    +0.277 A 
ATOM      8  O   UNL     1       2.012  -0.876   2.668  0.00  0.00    -0.266 OA
ATOM      9  N   UNL     1       1.735  -0.072   0.611  0.00  0.00    -0.273 N 
ATOM     10  H   UNL     1       2.469   0.728   0.788  0.00  0.00    +0.173 HD
ATOM     11  C   UNL     1       1.128  -0.153  -0.587  0.00  0.00    +0.331 A 
ATOM     12  O   UNL     1       1.405   0.655  -1.453  0.00  0.00    -0.246 OA
BRANCH   5  13
ATOM     13  N   UNL     1      -1.037  -3.015  -0.144  0.00  0.00    -0.343 N 
ATOM     14  H   UNL     1      -1.292  -3.753   0.630  0.00  0.00    +0.144 HD
ATOM     15  H   UNL     1      -1.525  -3.059  -1.129  0.00  0.00    +0.144 HD
ENDBRANCH   5  13
BRANCH   4  16
ATOM     16  C   UNL     1      -0.431  -1.164  -2.156  0.00  0.00    +0.131 C 
BRANCH  16  18
ATOM     17  C   UNL     1      -2.314  -0.275  -3.537  0.00  0.00    +0.009 C 
ATOM     18  C   UNL     1      -1.705  -0.318  -2.134  0.00  0.00    +0.003 C 
ATOM     19  C   UNL     1      -2.711  -0.937  -1.161  0.00  0.00    +0.009 C 
ENDBRANCH  16  18
ENDBRANCH   4  16
ENDBRANCH   1   6
BRANCH   2  20
ATOM     20  C   UNL     1      -0.637  -1.062   3.731  0.00  0.00    +0.037 A 
ATOM     21  C   UNL     1      -0.880  -0.235   2.630  0.00  0.00    +0.015 A 
ATOM     22  C   UNL     1      -1.171   1.097   2.823  0.00  0.00    +0.024 A 
ATOM     23  C   UNL     1      -1.213   1.622   4.111  0.00  0.00    +0.034 A 
ATOM     24  C   UNL     1      -0.967   0.803   5.208  0.00  0.00    +0.024 A 
ATOM     25  C   UNL     1      -0.680  -0.531   5.023  0.00  0.00    +0.015 A 
BRANCH  23  26
ATOM     26  N   UNL     1      -1.503   2.972   4.302  0.00  0.00    -0.281 N 
ATOM     27  C   UNL     1      -0.925   3.648   5.314  0.00  0.00    +0.255 C 
ATOM     28  O   UNL     1      -0.078   3.108   6.002  0.00  0.00    -0.269 OA
ATOM     29  H   UNL     1      -2.203   3.485   3.627  0.00  0.00    +0.155 HD
BRANCH  27  30
ATOM     30  C   UNL     1      -1.317   5.034   5.588  0.00  0.00    +0.074 A 
ATOM     31  C   UNL     1      -0.851   5.896   6.568  0.00  0.00    +0.021 A 
ATOM     32  C   UNL     1      -1.395   7.156   6.602  0.00  0.00    +0.008 A 
ATOM     33  C   UNL     1      -2.345   7.493   5.690  0.00  0.00    +0.046 A 
ATOM     34  S   UNL     1      -2.511   6.053   4.740  0.00  0.00    -0.092 S 
ENDBRANCH  27  30
ENDBRANCH  23  26
ENDBRANCH   2  20
BRANCH   1  35
ATOM     35  C   UNL     1       0.442  -4.335   2.136  0.00  0.00    +0.117 C 
BRANCH  35  36
ATOM     36  C   UNL     1       1.900  -4.658   2.469  0.00  0.00    +0.001 C 
ATOM     37  C   UNL     1       2.157  -4.386   3.952  0.00  0.00    +0.009 C 
ATOM     38  C   UNL     1       2.178  -6.132   2.165  0.00  0.00    +0.009 C 
ENDBRANCH  35  36
ENDBRANCH   1  35
TORSDOF 9
