REMARK  Name = ZINC28413332
REMARK  7 active torsions:
REMARK  status: ('A' for Active; 'I' for Inactive)
REMARK    1  A    between atoms: C_1  and  C_2
REMARK    2  A    between atoms: N_11  and  C_15
REMARK    3  A    between atoms: C_15  and  C_16
REMARK    4  A    between atoms: N_18  and  C_19
REMARK    5  A    between atoms: N_18  and  C_20
REMARK    6  A    between atoms: C_20  and  C_21
REMARK    7  A    between atoms: N_23  and  C_24
REMARK                            x       y       z     vdW  Elec       q    Type
REMARK                         _______ _______ _______ _____ _____    ______ ____
ROOT
ATOM      1  C   UNL     1       1.399   1.985   0.008  0.00  0.00    +0.234 C 
ATOM      2  O   UNL     1       2.333   1.212   0.002  0.00  0.00    -0.274 OA
ATOM      3  N   UNL     1       1.623   3.313   0.005  0.00  0.00    -0.294 N 
ATOM      4  C   UNL     1       0.495   4.247   0.012  0.00  0.00    +0.132 C 
ENDROOT
BRANCH   1   5
ATOM      5  C   UNL     1      -0.014   1.459   0.019  0.00  0.00    +0.213 C 
BRANCH   5  15
ATOM      6  C   UNL     1       2.543  -2.148   0.589  0.00  0.00    +0.010 C 
ATOM      7  C   UNL     1       1.320  -2.896   1.123  0.00  0.00    +0.018 C 
ATOM      8  C   UNL     1       1.334  -4.335   0.601  0.00  0.00    +0.006 C 
ATOM      9  C   UNL     1       0.100  -5.077   1.119  0.00  0.00    +0.000 C 
ATOM     10  C   UNL     1      -1.164  -4.375   0.619  0.00  0.00    +0.003 C 
ATOM     11  C   UNL     1      -1.189  -2.937   1.142  0.00  0.00    +0.035 C 
ATOM     12  C   UNL     1       0.050  -2.195   0.654  0.00  0.00    +0.115 C 
ATOM     13  C   UNL     1       0.030  -0.762   1.137  0.00  0.00    +0.247 C 
ATOM     14  O   UNL     1       0.032  -0.375   2.286  0.00  0.00    -0.273 OA
ATOM     15  N   UNL     1       0.010  -0.005   0.020  0.00  0.00    -0.215 N 
ATOM     16  C   UNL     1       0.009  -0.759  -1.086  0.00  0.00    +0.310 C 
ATOM     17  O   UNL     1      -0.013  -0.305  -2.213  0.00  0.00    -0.252 OA
ATOM     18  N   UNL     1       0.038  -2.077  -0.810  0.00  0.00    -0.285 N 
ATOM     19  H   UNL     1       0.052  -2.982  -1.434  0.00  0.00    +0.151 HD
ENDBRANCH   5  15
ENDBRANCH   1   5
BRANCH   3  20
ATOM     20  C   UNL     1       2.997   3.824  -0.006  0.00  0.00    +0.203 C 
BRANCH  20  21
ATOM     21  C   UNL     1       3.457   3.998  -1.430  0.00  0.00    +0.235 C 
ATOM     22  O   UNL     1       2.712   3.722  -2.346  0.00  0.00    -0.274 OA
ATOM     23  N   UNL     1       4.697   4.459  -1.686  0.00  0.00    -0.284 N 
ATOM     24  H   UNL     1       5.346   4.781  -0.858  0.00  0.00    +0.155 HD
BRANCH  23  25
ATOM     25  C   UNL     1       5.160   4.529  -3.005  0.00  0.00    +0.035 A 
ATOM     26  C   UNL     1       6.498   4.288  -3.287  0.00  0.00    +0.025 A 
ATOM     27  C   UNL     1       6.951   4.351  -4.590  0.00  0.00    +0.023 A 
ATOM     28  C   UNL     1       6.076   4.666  -5.614  0.00  0.00    +0.059 A 
ATOM     29  C   UNL     1       4.742   4.913  -5.336  0.00  0.00    +0.061 A 
ATOM     30  C   UNL     1       4.282   4.845  -4.034  0.00  0.00    +0.044 A 
ATOM     31 CL   UNL     1       3.646   5.308  -6.623  0.00  0.00    -0.082 Cl
ATOM     32 CL   UNL     1       6.650   4.752  -7.250  0.00  0.00    -0.082 Cl
ENDBRANCH  23  25
ENDBRANCH  20  21
ENDBRANCH   3  20
TORSDOF 5
