REMARK  Name = ZINC14476188
REMARK  7 active torsions:
REMARK  status: ('A' for Active; 'I' for Inactive)
REMARK    1  A    between atoms: C_1  and  C_2
REMARK    2  A    between atoms: C_2  and  C_3
REMARK    3  A    between atoms: C_2  and  C_4
REMARK    4  A    between atoms: N_6  and  C_7
REMARK    5  A    between atoms: C_20  and  C_23
REMARK    6  A    between atoms: C_25  and  N_30
REMARK    7  A    between atoms: C_28  and  O_29
REMARK                            x       y       z     vdW  Elec       q    Type
REMARK                         _______ _______ _______ _____ _____    ______ ____
ROOT
ATOM      1  C   UNL     1       2.718  -0.644  -2.551  0.00  0.00    +0.034 A 
ATOM      2  C   UNL     1       2.091  -1.438  -3.502  0.00  0.00    +0.025 A 
ATOM      3  C   UNL     1       2.805  -1.923  -4.578  0.00  0.00    +0.025 A 
ATOM      4  C   UNL     1       4.155  -1.624  -4.719  0.00  0.00    +0.031 A 
ATOM      5  C   UNL     1       4.786  -0.833  -3.752  0.00  0.00    -0.018 A 
ATOM      6  C   UNL     1       4.066  -0.339  -2.686  0.00  0.00    +0.029 A 
ATOM      7  C   UNL     1       6.232  -0.572  -3.921  0.00  0.00    +0.049 C 
ATOM      8  C   UNL     1       6.879   0.647  -3.372  0.00  0.00    -0.023 C 
ATOM      9  C   UNL     1       7.889   0.985  -4.164  0.00  0.00    -0.030 C 
ATOM     10  C   UNL     1       7.975   0.016  -5.344  0.00  0.00    +0.033 C 
ATOM     11  C   UNL     1       6.520  -0.447  -5.447  0.00  0.00    +0.029 C 
ATOM     12  C   UNL     1       6.293  -1.836  -6.017  0.00  0.00    +0.108 C 
ATOM     13  N   UNL     1       4.852  -2.112  -5.834  0.00  0.00    -0.336 N 
ATOM     14  H   UNL     1       4.380  -2.640  -6.497  0.00  0.00    +0.147 HD
ENDROOT
BRANCH  12  15
ATOM     15  C   UNL     1       6.649  -1.862  -7.481  0.00  0.00    +0.017 A 
ATOM     16  C   UNL     1       5.668  -1.673  -8.435  0.00  0.00    +0.041 A 
ATOM     17  C   UNL     1       5.994  -1.697  -9.778  0.00  0.00    +0.127 A 
ATOM     18  C   UNL     1       7.302  -1.910 -10.171  0.00  0.00    +0.036 A 
ATOM     19  C   UNL     1       8.287  -2.100  -9.222  0.00  0.00    +0.048 A 
ATOM     20  C   UNL     1       7.964  -2.071  -7.873  0.00  0.00    +0.122 A 
BRANCH  17  21
ATOM     21  N   UNL     1       4.940  -1.494 -10.798  0.00  0.00    +0.056 N 
ATOM     22  O   UNL     1       3.795  -1.308 -10.456  0.00  0.00    -0.126 OA
ATOM     23  O   UNL     1       5.224  -1.515 -11.973  0.00  0.00    -0.126 OA
ENDBRANCH  17  21
BRANCH  20  24
ATOM     24  O   UNL     1       8.932  -2.252  -6.936  0.00  0.00    -0.506 OA
ATOM     25  H   UNL     1       9.068  -3.176  -6.685  0.00  0.00    +0.292 HD
ENDBRANCH  20  24
ENDBRANCH  12  15
BRANCH   1  28
ATOM     26  C   UNL     1       1.016  -0.891  -0.905  0.00  0.00    +0.220 C 
ATOM     27  O   UNL     1       0.710  -1.956  -1.399  0.00  0.00    -0.275 OA
ATOM     28  N   UNL     1       1.991  -0.146  -1.462  0.00  0.00    -0.285 N 
ATOM     29  H   UNL     1       2.190   0.735  -1.108  0.00  0.00    +0.155 HD
BRANCH  26  31
ATOM     30  C   UNL     1      -0.377   0.935   0.029  0.00  0.00    +0.017 C 
ATOM     31  C   UNL     1       0.305  -0.401   0.330  0.00  0.00    +0.069 C 
ATOM     32  C   UNL     1      -0.749  -1.427   0.753  0.00  0.00    +0.017 C 
ENDBRANCH  26  31
ENDBRANCH   1  28
TORSDOF 5
