REMARK  Name = ZINC19480758
REMARK  2 active torsions:
REMARK  status: ('A' for Active; 'I' for Inactive)
REMARK    1  A    between atoms: C_9  and  C_12
REMARK    2  A    between atoms: C_18  and  C_21
REMARK                            x       y       z     vdW  Elec       q    Type
REMARK                         _______ _______ _______ _____ _____    ______ ____
ROOT
ATOM      1  C   UNL     1      -0.037   2.238   2.168  0.00  0.00    +0.258 C 
ATOM      2  O   UNL     1       1.124   2.533   1.980  0.00  0.00    -0.271 OA
ATOM      3  N   UNL     1      -0.661   1.391   1.326  0.00  0.00    -0.298 N 
ATOM      4  C   UNL     1      -2.033   0.931   1.598  0.00  0.00    +0.108 C 
ATOM      5  C   UNL     1      -2.903   1.216   0.370  0.00  0.00    +0.020 C 
ATOM      6  C   UNL     1      -2.262   0.578  -0.864  0.00  0.00    +0.016 C 
ATOM      7  C   UNL     1      -0.880   1.194  -1.098  0.00  0.00    +0.092 C 
ATOM      8  C   UNL     1       0.013   0.908   0.113  0.00  0.00    +0.120 C 
ENDROOT
BRANCH   1  17
ATOM      9  C   UNL     1      -1.407   5.862   7.222  0.00  0.00    +0.002 A 
ATOM     10  C   UNL     1      -0.108   5.396   7.295  0.00  0.00    +0.004 A 
ATOM     11  C   UNL     1       0.406   4.603   6.287  0.00  0.00    +0.047 A 
ATOM     12  C   UNL     1      -0.381   4.270   5.195  0.00  0.00    +0.142 A 
ATOM     13  C   UNL     1      -1.690   4.737   5.125  0.00  0.00    +0.070 A 
ATOM     14  C   UNL     1      -2.201   5.534   6.138  0.00  0.00    +0.026 A 
ATOM     15  N   UNL     1      -2.493   4.399   4.024  0.00  0.00    -0.337 N 
ATOM     16  C   UNL     1      -1.828   3.824   2.843  0.00  0.00    +0.155 C 
ATOM     17  C   UNL     1      -0.782   2.818   3.343  0.00  0.00    +0.276 C 
ATOM     18  O   UNL     1       0.136   3.493   4.206  0.00  0.00    -0.476 OA
ATOM     19  H   UNL     1      -3.583   4.549   4.023  0.00  0.00    +0.146 HD
ENDBRANCH   1  17
BRANCH   7  20
ATOM     20  C   UNL     1      -0.262   0.589  -2.333  0.00  0.00    +0.215 C 
ATOM     21  O   UNL     1       0.789  -0.011  -2.253  0.00  0.00    -0.276 OA
ATOM     22  N   UNL     1      -0.878   0.715  -3.525  0.00  0.00    -0.329 N 
ATOM     23  H   UNL     1      -0.426   0.274  -4.426  0.00  0.00    +0.145 HD
ATOM     24  H   UNL     1      -1.831   1.259  -3.597  0.00  0.00    +0.145 HD
ENDBRANCH   7  20
TORSDOF 2
