REMARK  Name = ZINC53094532
REMARK  4 active torsions:
REMARK  status: ('A' for Active; 'I' for Inactive)
REMARK    1  A    between atoms: C_4  and  N_8
REMARK    2  A    between atoms: N_8  and  C_9
REMARK    3  A    between atoms: C_9  and  C_10
REMARK    4  A    between atoms: N_15  and  C_16
REMARK                            x       y       z     vdW  Elec       q    Type
REMARK                         _______ _______ _______ _____ _____    ______ ____
ROOT
ATOM      1  C   UNL     1       5.071  -2.599  -0.063  0.00  0.00    +0.237 C 
ATOM      2  O   UNL     1       5.980  -1.798  -0.068  0.00  0.00    -0.274 OA
ATOM      3  N   UNL     1       5.336  -3.921  -0.073  0.00  0.00    -0.239 N 
ATOM      4  C   UNL     1       6.613  -4.351  -0.088  0.00  0.00    +0.306 C 
ATOM      5  O   UNL     1       7.525  -3.548  -0.093  0.00  0.00    -0.252 OA
ATOM      6  N   UNL     1       6.878  -5.673  -0.098  0.00  0.00    -0.295 N 
ATOM      7  H   UNL     1       4.608  -4.562  -0.069  0.00  0.00    +0.159 HD
ATOM      8  H   UNL     1       6.150  -6.314  -0.094  0.00  0.00    +0.151 HD
ENDROOT
BRANCH   6   9
ATOM      9  C   UNL     1       8.266  -6.141  -0.115  0.00  0.00    +0.097 C 
ATOM     10  C   UNL     1       8.801  -6.204   1.325  0.00  0.00    +0.046 C 
ATOM     11  C   UNL     1      10.143  -6.990   1.310  0.00  0.00    +0.168 C 
ATOM     12  S   UNL     1       9.730  -8.338   0.123  0.00  0.00    -0.029 S 
ATOM     13  O   UNL     1      10.813  -8.505  -0.782  0.00  0.00    -0.174 OA
ATOM     14  O   UNL     1       9.246  -9.460   0.849  0.00  0.00    -0.174 OA
ATOM     15  C   UNL     1       8.327  -7.546  -0.761  0.00  0.00    +0.188 C 
ENDBRANCH   6   9
BRANCH   1  16
ATOM     16  C   UNL     1       3.643  -2.118  -0.046  0.00  0.00    +0.198 C 
BRANCH  16  17
ATOM     17  N   UNL     1       3.622  -0.653  -0.037  0.00  0.00    -0.333 N 
ATOM     18  H   UNL     1       4.454  -0.156  -0.043  0.00  0.00    +0.147 HD
BRANCH  17  22
ATOM     19  C   UNL     1      -0.017   1.379   0.010  0.00  0.00    +0.023 A 
ATOM     20  C   UNL     1       1.170   2.090   0.002  0.00  0.00    +0.041 A 
ATOM     21  C   UNL     1       2.379   1.420  -0.013  0.00  0.00    +0.144 A 
ATOM     22  C   UNL     1       2.401   0.029  -0.021  0.00  0.00    +0.065 A 
ATOM     23  C   UNL     1       1.208  -0.681  -0.013  0.00  0.00    +0.045 A 
ATOM     24  C   UNL     1       0.002  -0.004   0.002  0.00  0.00    +0.043 A 
ATOM     25 CL   UNL     1      -1.490  -0.891   0.012  0.00  0.00    -0.083 Cl
ATOM     26  F   UNL     1       3.537   2.115  -0.022  0.00  0.00    -0.204 F 
ENDBRANCH  17  22
ENDBRANCH  16  17
ENDBRANCH   1  16
TORSDOF 4
