REMARK  Name = ZINC64277620
REMARK  11 active torsions:
REMARK  status: ('A' for Active; 'I' for Inactive)
REMARK    1  A    between atoms: CG_7  and  CB_10
REMARK    2  A    between atoms: CB_10  and  CA_11
REMARK    3  A    between atoms: CA_11  and  C_13
REMARK    4  A    between atoms: CA_11  and  N_16
REMARK    5  A    between atoms: C_17  and  C_19
REMARK    6  A    between atoms: C_19  and  C_20
REMARK    7  A    between atoms: C_20  and  C_22
REMARK    8  A    between atoms: C_20  and  C_28
REMARK    9  A    between atoms: C_22  and  N_23
REMARK   10  A    between atoms: C_24  and  C_26
REMARK   11  A    between atoms: C_26  and  N_27
REMARK                            x       y       z     vdW  Elec       q    Type
REMARK                         _______ _______ _______ _____ _____    ______ ____
ROOT
ATOM      1  N   TRP A   1      -0.238  -2.603  -2.210  0.00  0.00    -0.302 N 
ATOM      2  C   UNK A   0      -0.118  -2.539  -3.551  0.00  0.00    +0.214 C 
ATOM      3  O   UNK A   0       0.566  -3.350  -4.138  0.00  0.00    -0.276 OA
ATOM      4  H   TRP A   1      -0.785  -1.954  -1.741  0.00  0.00    +0.150 HD
ENDROOT
BRANCH   1   5
ATOM      5  CA  TRP A   1       0.457  -3.653  -1.462  0.00  0.00    +0.190 C 
BRANCH   5   6
ATOM      6  C   TRP A   1      -0.385  -4.904  -1.452  0.00  0.00    +0.376 C 
ATOM      7  O   TRP A   1      -1.535  -4.868  -1.856  0.00  0.00    -0.244 OA
ATOM      8  OXT TRP A   1       0.085  -5.951  -1.042  0.00  0.00    -0.244 OA
ENDBRANCH   5   6
BRANCH   5   9
ATOM      9  CB  TRP A   1       0.691  -3.186  -0.024  0.00  0.00    +0.067 C 
BRANCH   9  16
ATOM     10  CZ3 TRP A   1      -0.016   1.348   0.009  0.00  0.00    +0.001 A 
ATOM     11  CH2 TRP A   1       1.166   2.101   0.002  0.00  0.00    +0.002 A 
ATOM     12  CZ2 TRP A   1       2.391   1.535  -0.013  0.00  0.00    +0.026 A 
ATOM     13  CE2 TRP A   1       2.529   0.120  -0.022  0.00  0.00    +0.043 A 
ATOM     14  NE1 TRP A   1       3.587  -0.654  -0.037  0.00  0.00    -0.380 N 
ATOM     15  CD1 TRP A   1       3.143  -2.053  -0.041  0.00  0.00    +0.144 C 
ATOM     16  CG  TRP A   1       1.631  -2.008  -0.025  0.00  0.00    -0.039 C 
ATOM     17  CD2 TRP A   1       1.295  -0.698  -0.014  0.00  0.00    -0.001 A 
ATOM     18  CE3 TRP A   1       0.002  -0.004   0.002  0.00  0.00    +0.010 A 
ATOM     19  HE1 TRP A   1       4.509  -0.353  -0.045  0.00  0.00    +0.160 HD
ENDBRANCH   9  16
ENDBRANCH   5   9
ENDBRANCH   1   5
BRANCH   2  20
ATOM     20  C   UNK A   0      -0.832  -1.458  -4.321  0.00  0.00    +0.105 C 
BRANCH  20  21
ATOM     21  C   UNK A   0      -0.530  -1.610  -5.813  0.00  0.00    +0.045 C 
BRANCH  21  22
ATOM     22  C   UNK A   0       0.937  -1.369  -6.056  0.00  0.00    -0.042 A 
ATOM     23  C   UNK A   0       1.502  -0.153  -5.718  0.00  0.00    +0.005 A 
ATOM     24  C   UNK A   0       2.848   0.069  -5.940  0.00  0.00    +0.020 A 
ATOM     25  C   UNK A   0       3.630  -0.925  -6.501  0.00  0.00    +0.041 A 
ATOM     26  C   UNK A   0       3.064  -2.142  -6.839  0.00  0.00    +0.020 A 
ATOM     27  C   UNK A   0       1.719  -2.365  -6.611  0.00  0.00    +0.005 A 
ATOM     28 CL   UNK A   0       5.320  -0.647  -6.781  0.00  0.00    -0.084 Cl
ENDBRANCH  21  22
BRANCH  21  29
ATOM     29  C   UNK A   0      -1.353  -0.593  -6.606  0.00  0.00    +0.112 C 
BRANCH  29  30
ATOM     30  N   UNK A   0      -1.155  -0.816  -8.040  0.00  0.00    -0.316 N 
ATOM     31  C   UNK A   0      -1.785  -0.033  -8.938  0.00  0.00    +0.196 C 
ATOM     32  O   UNK A   0      -2.516   0.858  -8.558  0.00  0.00    -0.278 OA
ATOM     33  H   UNK A   0      -0.571  -1.528  -8.344  0.00  0.00    +0.149 HD
BRANCH  31  34
ATOM     34  C   UNK A   0      -1.582  -0.263 -10.413  0.00  0.00    +0.011 C 
BRANCH  34  35
ATOM     35  N   UNK A   0      -2.372   0.714 -11.175  0.00  0.00    +0.384 N 
ATOM     36  H   UNK A   0      -3.349   0.606 -10.949  0.00  0.00    -0.089 HD
ATOM     37  H   UNK A   0      -2.073   1.647 -10.936  0.00  0.00    -0.089 HD
ATOM     38  H   UNK A   0      -2.236   0.560 -12.162  0.00  0.00    -0.089 HD
ENDBRANCH  34  35
ENDBRANCH  31  34
ENDBRANCH  29  30
ENDBRANCH  21  29
ENDBRANCH  20  21
ENDBRANCH   2  20
TORSDOF 11
