REMARK  Name = ZINC37867939
REMARK  5 active torsions:
REMARK  status: ('A' for Active; 'I' for Inactive)
REMARK    1  A    between atoms: C_4  and  C_7
REMARK    2  A    between atoms: C_10  and  C_23
REMARK    3  A    between atoms: C_12  and  C_14
REMARK    4  A    between atoms: C_17  and  O_21
REMARK    5  A    between atoms: C_19  and  O_20
REMARK                            x       y       z     vdW  Elec       q    Type
REMARK                         _______ _______ _______ _____ _____    ______ ____
ROOT
ATOM      1  C   UNL     1       3.485  -0.698  -0.080  0.00  0.00    +0.097 C 
ATOM      2  N   UNL     1       4.483   0.122  -0.164  0.00  0.00    -0.183 NA
ATOM      3  N   UNL     1       5.796  -0.370  -0.132  0.00  0.00    -0.219 N 
ATOM      4  C   UNL     1       6.018  -1.715  -0.372  0.00  0.00    +0.162 C 
ATOM      5  N   UNL     1       5.048  -2.569  -0.291  0.00  0.00    -0.135 N 
ATOM      6  C   UNL     1       3.688  -2.177   0.068  0.00  0.00    +0.213 C 
ATOM      7  O   UNL     1       5.317  -3.934  -0.555  0.00  0.00    -0.166 OA
ATOM      8  H   UNL     1       6.538   0.225   0.056  0.00  0.00    +0.176 HD
ENDROOT
BRANCH   4   9
ATOM      9  C   UNL     1       7.378  -2.182  -0.726  0.00  0.00    +0.018 A 
ATOM     10  C   UNL     1       7.544  -3.296  -1.548  0.00  0.00    +0.013 A 
ATOM     11  C   UNL     1       8.813  -3.726  -1.875  0.00  0.00    +0.021 A 
ATOM     12  C   UNL     1       9.921  -3.054  -1.387  0.00  0.00    +0.041 A 
ATOM     13  C   UNL     1       9.763  -1.948  -0.570  0.00  0.00    +0.021 A 
ATOM     14  C   UNL     1       8.498  -1.505  -0.241  0.00  0.00    +0.013 A 
ATOM     15 CL   UNL     1      11.516  -3.601  -1.802  0.00  0.00    -0.084 Cl
ENDBRANCH   4   9
BRANCH   1  19
ATOM     16  C   UNL     1      -0.468   0.841  -0.209  0.00  0.00    +0.000 A 
ATOM     17  C   UNL     1       0.608   1.710  -0.182  0.00  0.00    +0.001 A 
ATOM     18  C   UNL     1       1.896   1.217  -0.140  0.00  0.00    +0.010 A 
ATOM     19  C   UNL     1       2.111  -0.163  -0.124  0.00  0.00    +0.000 A 
ATOM     20  C   UNL     1       1.020  -1.034  -0.152  0.00  0.00    +0.010 A 
ATOM     21  C   UNL     1      -0.262  -0.527  -0.194  0.00  0.00    +0.001 A 
ENDBRANCH   1  19
BRANCH   6  22
ATOM     22  C   UNL     1       3.418  -2.571   1.497  0.00  0.00    +0.026 A 
ATOM     23  C   UNL     1       3.417  -1.609   2.489  0.00  0.00    +0.013 A 
ATOM     24  C   UNL     1       3.169  -1.967   3.801  0.00  0.00    +0.046 A 
ATOM     25  C   UNL     1       2.921  -3.294   4.124  0.00  0.00    +0.120 A 
ATOM     26  C   UNL     1       2.922  -4.260   3.131  0.00  0.00    +0.091 A 
ATOM     27  C   UNL     1       3.165  -3.898   1.815  0.00  0.00    +0.126 A 
BRANCH  27  28
ATOM     28  O   UNL     1       3.161  -4.842   0.837  0.00  0.00    -0.506 OA
ATOM     29  H   UNL     1       4.003  -5.306   0.735  0.00  0.00    +0.292 HD
ENDBRANCH  27  28
BRANCH  25  30
ATOM     30  O   UNL     1       2.678  -3.645   5.414  0.00  0.00    -0.507 OA
ATOM     31  H   UNL     1       1.743  -3.616   5.660  0.00  0.00    +0.292 HD
ENDBRANCH  25  30
ENDBRANCH   6  22
TORSDOF 5
