REMARK  Name = ZINC02780389
REMARK  5 active torsions:
REMARK  status: ('A' for Active; 'I' for Inactive)
REMARK    1  A    between atoms: C_1  and  C_2
REMARK    2  A    between atoms: C_3  and  C_8
REMARK    3  A    between atoms: N_5  and  C_7
REMARK    4  A    between atoms: N_10  and  C_11
REMARK    5  A    between atoms: C_12  and  C_19
REMARK                            x       y       z     vdW  Elec       q    Type
REMARK                         _______ _______ _______ _____ _____    ______ ____
ROOT
ATOM      1  C   UNL     1      -1.923   2.290  -1.161  0.00  0.00    +0.085 A 
ATOM      2  C   UNL     1      -1.294   1.929   0.019  0.00  0.00    +0.068 A 
ATOM      3  C   UNL     1      -1.949   2.292   1.275  0.00  0.00    -0.023 A 
ATOM      4  C   UNL     1      -3.116   2.948   1.141  0.00  0.00    -0.004 A 
ATOM      5  S   UNL     1      -3.358   3.087  -0.613  0.00  0.00    -0.077 S 
ATOM      6  C   UNL     1      -3.726   3.290   2.473  0.00  0.00    +0.043 C 
ATOM      7  C   UNL     1      -2.568   3.137   3.483  0.00  0.00    +0.010 C 
ATOM      8  C   UNL     1      -1.659   2.119   2.766  0.00  0.00    +0.037 C 
ENDROOT
BRANCH   2   9
ATOM      9  C   UNL     1      -0.014   1.213   0.009  0.00  0.00    +0.244 C 
ATOM     10  O   UNL     1       0.002  -0.004   0.002  0.00  0.00    -0.270 OA
ATOM     11  N   UNL     1       1.143   1.903   0.001  0.00  0.00    -0.325 N 
ATOM     12  H   UNL     1       1.990   1.429  -0.009  0.00  0.00    +0.145 HD
ATOM     13  H   UNL     1       1.130   2.873   0.007  0.00  0.00    +0.145 HD
ENDBRANCH   2   9
BRANCH   1  16
ATOM     14  C   UNL     1      -2.258   2.497  -3.495  0.00  0.00    +0.252 C 
ATOM     15  O   UNL     1      -3.304   3.081  -3.283  0.00  0.00    -0.270 OA
ATOM     16  N   UNL     1      -1.505   2.067  -2.463  0.00  0.00    -0.275 N 
ATOM     17  H   UNL     1      -0.671   1.601  -2.632  0.00  0.00    +0.156 HD
BRANCH  14  20
ATOM     18  C   UNL     1      -3.812   3.374  -6.120  0.00  0.00    +0.068 C 
ATOM     19  C   UNL     1      -2.495   2.644  -6.057  0.00  0.00    +0.072 A 
ATOM     20  C   UNL     1      -1.814   2.260  -4.880  0.00  0.00    +0.077 A 
ATOM     21  C   UNL     1      -0.657   1.615  -5.271  0.00  0.00    +0.121 A 
ATOM     22  N   UNL     1      -0.633   1.612  -6.613  0.00  0.00    -0.273 N 
ATOM     23  N   UNL     1      -1.782   2.259  -7.080  0.00  0.00    -0.176 NA
ATOM     24  C   UNL     1       0.420   1.029  -7.449  0.00  0.00    +0.172 C 
ENDBRANCH  14  20
ENDBRANCH   1  16
TORSDOF 3
