REMARK  Name = ZINC67280528
REMARK  4 active torsions:
REMARK  status: ('A' for Active; 'I' for Inactive)
REMARK    1  A    between atoms: C_6  and  C_7
REMARK    2  A    between atoms: C_7  and  N_8
REMARK    3  A    between atoms: N_11  and  C_12
REMARK    4  A    between atoms: C_14  and  C_20
REMARK                            x       y       z     vdW  Elec       q    Type
REMARK                         _______ _______ _______ _____ _____    ______ ____
ROOT
ATOM      1  N   UNL     1      -1.826  -0.876  -1.359  0.00  0.00    -0.295 N 
ATOM      2  C   UNL     1      -2.966  -1.548  -1.613  0.00  0.00    +0.304 C 
ATOM      3  O   UNL     1      -3.723  -1.828  -0.703  0.00  0.00    -0.252 OA
ATOM      4  N   UNL     1      -3.268  -1.911  -2.876  0.00  0.00    -0.265 N 
ATOM      5  H   UNL     1      -1.222  -0.654  -2.085  0.00  0.00    +0.151 HD
ATOM      6  H   UNL     1      -2.703  -1.626  -3.610  0.00  0.00    +0.157 HD
ENDROOT
BRANCH   4   7
ATOM      7  C   UNL     1      -4.398  -2.702  -3.127  0.00  0.00    +0.100 A 
ATOM      8  C   UNL     1      -5.385  -2.253  -3.961  0.00  0.00    +0.042 A 
ATOM      9  C   UNL     1      -6.505  -3.064  -4.196  0.00  0.00    +0.073 A 
ATOM     10  C   UNL     1      -6.601  -4.275  -3.600  0.00  0.00    +0.098 A 
ATOM     11  N   UNL     1      -5.621  -4.722  -2.770  0.00  0.00    -0.327 N 
ATOM     12  H   UNL     1      -5.708  -5.593  -2.352  0.00  0.00    +0.168 HD
ATOM     13  C   UNL     1      -4.529  -3.973  -2.526  0.00  0.00    +0.270 A 
ATOM     14  O   UNL     1      -3.655  -4.390  -1.783  0.00  0.00    -0.266 OA
BRANCH   9  15
ATOM     15  C   UNL     1      -7.602  -2.587  -5.111  0.00  0.00    +0.419 C 
ATOM     16  F   UNL     1      -8.603  -3.561  -5.187  0.00  0.00    -0.166 F 
ATOM     17  F   UNL     1      -8.144  -1.399  -4.610  0.00  0.00    -0.166 F 
ATOM     18  F   UNL     1      -7.077  -2.357  -6.388  0.00  0.00    -0.166 F 
ENDBRANCH   9  15
ENDBRANCH   4   7
BRANCH   1  19
ATOM     19  C   UNL     1      -1.498  -0.482   0.013  0.00  0.00    +0.141 C 
BRANCH  19  25
ATOM     20  C   UNL     1      -0.156   1.624  -0.131  0.00  0.00    +0.009 A 
ATOM     21  C   UNL     1       1.050   2.303  -0.122  0.00  0.00    +0.050 A 
ATOM     22  C   UNL     1       2.231   1.602   0.044  0.00  0.00    +0.162 A 
ATOM     23  C   UNL     1       2.206   0.223   0.201  0.00  0.00    +0.162 A 
ATOM     24  C   UNL     1       0.998  -0.454   0.191  0.00  0.00    +0.054 A 
ATOM     25  C   UNL     1      -0.181   0.251   0.025  0.00  0.00    -0.027 A 
ATOM     26  O   UNL     1       3.376  -0.459   0.365  0.00  0.00    -0.488 OA
ATOM     27  C   UNL     1       4.241  -0.498  -0.772  0.00  0.00    +0.232 C 
ATOM     28  C   UNL     1       5.107   0.750  -0.835  0.00  0.00    +0.082 C 
ATOM     29  C   UNL     1       4.288   2.012  -1.056  0.00  0.00    +0.232 C 
ATOM     30  O   UNL     1       3.427   2.260   0.057  0.00  0.00    -0.488 OA
ENDBRANCH  19  25
ENDBRANCH   1  19
TORSDOF 4
