REMARK  Name = ZINC45631212
REMARK  5 active torsions:
REMARK  status: ('A' for Active; 'I' for Inactive)
REMARK    1  A    between atoms: C_1  and  C_2
REMARK    2  A    between atoms: C_13  and  C_15
REMARK    3  A    between atoms: C_15  and  N_16
REMARK    4  A    between atoms: C_19  and  C_23
REMARK    5  A    between atoms: C_19  and  C_29
REMARK                            x       y       z     vdW  Elec       q    Type
REMARK                         _______ _______ _______ _____ _____    ______ ____
ROOT
ATOM      1  N   UNL     1       3.292   0.581   3.887  0.00  0.00    -0.215 N 
ATOM      2  C   UNL     1       4.299   1.466   3.752  0.00  0.00    +0.256 C 
ATOM      3  O   UNL     1       5.194   1.437   2.934  0.00  0.00    -0.272 OA
ATOM      4  C   UNL     1       4.080   2.505   4.833  0.00  0.00    +0.164 C 
ATOM      5  N   UNL     1       2.860   2.041   5.517  0.00  0.00    -0.278 N 
ATOM      6  C   UNL     1       2.472   0.916   4.890  0.00  0.00    +0.310 C 
ATOM      7  O   UNL     1       1.490   0.273   5.203  0.00  0.00    -0.252 OA
ATOM      8  H   UNL     1       2.420   2.467   6.269  0.00  0.00    +0.152 HD
ENDROOT
BRANCH   4   9
ATOM      9  C   UNL     1       3.861   3.866   4.224  0.00  0.00    -0.011 A 
ATOM     10  C   UNL     1       2.713   4.578   4.516  0.00  0.00    +0.006 A 
ATOM     11  C   UNL     1       2.513   5.826   3.957  0.00  0.00    +0.000 A 
ATOM     12  C   UNL     1       3.461   6.363   3.107  0.00  0.00    +0.000 A 
ATOM     13  C   UNL     1       4.610   5.652   2.816  0.00  0.00    +0.000 A 
ATOM     14  C   UNL     1       4.812   4.405   3.378  0.00  0.00    +0.006 A 
ENDBRANCH   4   9
BRANCH   4  15
ATOM     15  C   UNL     1       5.245   2.531   5.788  0.00  0.00    -0.011 A 
ATOM     16  C   UNL     1       5.037   2.326   7.139  0.00  0.00    +0.006 A 
ATOM     17  C   UNL     1       6.106   2.349   8.015  0.00  0.00    +0.000 A 
ATOM     18  C   UNL     1       7.384   2.578   7.540  0.00  0.00    +0.000 A 
ATOM     19  C   UNL     1       7.592   2.782   6.189  0.00  0.00    +0.000 A 
ATOM     20  C   UNL     1       6.524   2.754   5.312  0.00  0.00    +0.006 A 
ENDBRANCH   4  15
BRANCH   1  21
ATOM     21  C   UNL     1       3.113  -0.599   3.037  0.00  0.00    +0.214 C 
BRANCH  21  33
ATOM     22  C   UNL     1       3.646  -2.564   1.974  0.00  0.00    +0.028 C 
ATOM     23  C   UNL     1       2.397  -2.559   1.091  0.00  0.00    +0.079 C 
ATOM     24  C   UNL     1       2.759  -3.034  -0.323  0.00  0.00    +0.027 C 
ATOM     25  C   UNL     1       1.486  -3.088  -1.167  0.00  0.00    +0.039 C 
ATOM     26  C   UNL     1       0.738  -1.784  -1.078  0.00  0.00    -0.026 A 
ATOM     27  C   UNL     1      -0.175  -1.466  -2.070  0.00  0.00    +0.005 A 
ATOM     28  C   UNL     1      -0.878  -0.279  -2.015  0.00  0.00    +0.000 A 
ATOM     29  C   UNL     1      -0.675   0.601  -0.968  0.00  0.00    +0.002 A 
ATOM     30  C   UNL     1       0.234   0.292   0.025  0.00  0.00    +0.024 A 
ATOM     31  C   UNL     1       0.944  -0.902  -0.030  0.00  0.00    +0.040 A 
ATOM     32  N   UNL     1       1.867  -1.193   0.984  0.00  0.00    -0.267 N 
ATOM     33  C   UNL     1       2.264  -0.236   1.846  0.00  0.00    +0.238 C 
ATOM     34  O   UNL     1       1.937   0.918   1.664  0.00  0.00    -0.273 OA
ENDBRANCH  21  33
ENDBRANCH   1  21
TORSDOF 4
