REMARK  Name = ZINC36895149
REMARK  8 active torsions:
REMARK  status: ('A' for Active; 'I' for Inactive)
REMARK    1  A    between atoms: C_1  and  C_2
REMARK    2  A    between atoms: C_7  and  C_9
REMARK    3  A    between atoms: C_7  and  C_10
REMARK    4  A    between atoms: N_13  and  C_17
REMARK    5  A    between atoms: C_17  and  C_18
REMARK    6  A    between atoms: N_20  and  N_21
REMARK    7  A    between atoms: C_22  and  C_24
REMARK    8  A    between atoms: C_24  and  C_25
REMARK                            x       y       z     vdW  Elec       q    Type
REMARK                         _______ _______ _______ _____ _____    ______ ____
ROOT
ATOM      1  C   UNL     1      -2.293  -3.324  -4.361  0.00  0.00    +0.247 C 
ATOM      2  O   UNL     1      -1.950  -2.184  -4.591  0.00  0.00    -0.273 OA
ATOM      3  N   UNL     1      -3.319  -3.870  -5.043  0.00  0.00    -0.233 N 
ATOM      4  H   UNL     1      -3.593  -4.782  -4.859  0.00  0.00    +0.173 HD
ENDROOT
BRANCH   3   5
ATOM      5  N   UNL     1      -3.990  -3.119  -6.018  0.00  0.00    -0.234 N 
ATOM      6  C   UNL     1      -5.017  -3.665  -6.700  0.00  0.00    +0.230 C 
ATOM      7  O   UNL     1      -5.359  -4.806  -6.470  0.00  0.00    -0.274 OA
ATOM      8  H   UNL     1      -3.716  -2.207  -6.202  0.00  0.00    +0.173 HD
BRANCH   6   9
ATOM      9  C   UNL     1      -5.739  -2.858  -7.748  0.00  0.00    +0.104 C 
BRANCH   9  10
ATOM     10  C   UNL     1      -6.853  -3.706  -8.366  0.00  0.00    -0.020 C 
ATOM     11  C   UNL     1      -7.840  -4.124  -7.275  0.00  0.00    +0.011 C 
ATOM     12  C   UNL     1      -8.954  -4.972  -7.893  0.00  0.00    -0.010 C 
ATOM     13  C   UNL     1      -9.687  -4.152  -8.958  0.00  0.00    +0.007 C 
ATOM     14  C   UNL     1      -8.700  -3.734 -10.049  0.00  0.00    -0.010 C 
ATOM     15  C   UNL     1      -7.586  -2.886  -9.430  0.00  0.00    +0.011 C 
ATOM     16  C   UNL     1      -8.093  -4.981 -10.694  0.00  0.00    +0.007 C 
ATOM     17  C   UNL     1      -7.360  -5.801  -9.630  0.00  0.00    -0.010 C 
ATOM     18  C   UNL     1      -8.347  -6.219  -8.539  0.00  0.00    +0.007 C 
ATOM     19  C   UNL     1      -6.246  -4.953  -9.011  0.00  0.00    +0.011 C 
ENDBRANCH   9  10
ENDBRANCH   6   9
ENDBRANCH   3   5
BRANCH   1  20
ATOM     20  C   UNL     1      -1.571  -4.131  -3.313  0.00  0.00    +0.215 C 
BRANCH  20  32
ATOM     21  C   UNL     1      -0.019   1.528   0.010  0.00  0.00    +0.007 C 
ATOM     22  C   UNL     1       0.002  -0.004   0.002  0.00  0.00    -0.011 C 
ATOM     23  C   UNL     1       0.726  -0.492  -1.255  0.00  0.00    +0.038 C 
ATOM     24  C   UNL     1       0.711  -2.014  -1.298  0.00  0.00    +0.113 C 
ATOM     25  C   UNL     1       1.264  -2.646  -0.036  0.00  0.00    +0.041 C 
ATOM     26  C   UNL     1       0.787  -2.030   1.268  0.00  0.00    -0.032 C 
ATOM     27  C   UNL     1       0.764  -0.507   1.226  0.00  0.00    +0.009 C 
ATOM     28  C   UNL     1      -0.596  -2.567   1.647  0.00  0.00    +0.011 C 
ATOM     29  C   UNL     1       1.769  -2.455   2.382  0.00  0.00    +0.011 C 
ATOM     30  C   UNL     1      -0.665  -2.529  -1.638  0.00  0.00    +0.247 C 
ATOM     31  O   UNL     1      -1.716  -2.282  -1.086  0.00  0.00    -0.273 OA
ATOM     32  N   UNL     1      -0.504  -3.320  -2.721  0.00  0.00    -0.215 N 
ATOM     33  C   UNL     1       0.750  -3.268  -3.183  0.00  0.00    +0.310 C 
ATOM     34  O   UNL     1       1.137  -3.883  -4.158  0.00  0.00    -0.252 OA
ATOM     35  N   UNL     1       1.532  -2.462  -2.446  0.00  0.00    -0.285 N 
ATOM     36  H   UNL     1       2.452  -2.214  -2.618  0.00  0.00    +0.151 HD
ENDBRANCH  20  32
ENDBRANCH   1  20
TORSDOF 5
