REMARK  Name = ZINC66241197
REMARK  8 active torsions:
REMARK  status: ('A' for Active; 'I' for Inactive)
REMARK    1  A    between atoms: C_3  and  N_21
REMARK    2  A    between atoms: C_6  and  C_7
REMARK    3  A    between atoms: N_9  and  C_10
REMARK    4  A    between atoms: C_10  and  C_11
REMARK    5  A    between atoms: C_11  and  C_12
REMARK    6  A    between atoms: N_14  and  C_15
REMARK    7  A    between atoms: C_22  and  N_28
REMARK    8  A    between atoms: C_23  and  C_26
REMARK                            x       y       z     vdW  Elec       q    Type
REMARK                         _______ _______ _______ _____ _____    ______ ____
ROOT
ATOM      1  C   UNL     1      -0.017   1.393   0.010  0.00  0.00    +0.015 A 
ATOM      2  C   UNL     1       1.167   2.096   0.002  0.00  0.00    +0.028 A 
ATOM      3  C   UNL     1       2.381   1.417  -0.013  0.00  0.00    +0.067 A 
ATOM      4  C   UNL     1       2.403   0.026  -0.021  0.00  0.00    +0.028 A 
ATOM      5  C   UNL     1       1.223  -0.683  -0.014  0.00  0.00    +0.015 A 
ATOM      6  C   UNL     1       0.002  -0.004   0.002  0.00  0.00    +0.037 A 
ENDROOT
BRANCH   3   7
ATOM      7  N   UNL     1       3.580   2.134  -0.021  0.00  0.00    -0.218 N 
ATOM      8  C   UNL     1       4.734   1.761   0.594  0.00  0.00    +0.137 A 
ATOM      9  C   UNL     1       5.673   2.756   0.334  0.00  0.00    +0.111 A 
ATOM     10  C   UNL     1       5.031   3.735  -0.460  0.00  0.00    +0.155 A 
ATOM     11  N   UNL     1       3.801   3.355  -0.667  0.00  0.00    -0.172 NA
BRANCH   8  12
ATOM     12  N   UNL     1       4.936   0.614   1.335  0.00  0.00    -0.342 N 
ATOM     13  H   UNL     1       4.211  -0.019   1.457  0.00  0.00    +0.144 HD
ATOM     14  H   UNL     1       5.803   0.441   1.734  0.00  0.00    +0.144 HD
ENDBRANCH   8  12
BRANCH   9  15
ATOM     15  C   UNL     1       7.031   2.783   0.786  0.00  0.00    +0.104 C 
ATOM     16  N   UNL     1       8.109   2.804   1.144  0.00  0.00    -0.191 NA
ENDBRANCH   9  15
ENDBRANCH   3   7
BRANCH   6  17
ATOM     17  C   UNL     1      -1.265  -0.761   0.011  0.00  0.00    +0.244 C 
ATOM     18  O   UNL     1      -2.327  -0.169   0.024  0.00  0.00    -0.270 OA
ATOM     19  N   UNL     1      -1.245  -2.109   0.003  0.00  0.00    -0.311 N 
ATOM     20  H   UNL     1      -0.398  -2.581  -0.008  0.00  0.00    +0.149 HD
BRANCH  19  21
ATOM     21  C   UNL     1      -2.503  -2.860   0.012  0.00  0.00    +0.113 C 
BRANCH  21  22
ATOM     22  C   UNL     1      -2.201  -4.360   0.001  0.00  0.00    +0.114 C 
BRANCH  22  23
ATOM     23  C   UNL     1      -3.495  -5.133   0.009  0.00  0.00    +0.215 C 
ATOM     24  O   UNL     1      -4.554  -4.542   0.023  0.00  0.00    -0.276 OA
ATOM     25  N   UNL     1      -3.475  -6.481   0.002  0.00  0.00    -0.312 N 
ATOM     26  H   UNL     1      -2.627  -6.953  -0.009  0.00  0.00    +0.149 HD
BRANCH  25  27
ATOM     27  C   UNL     1      -4.732  -7.232   0.010  0.00  0.00    +0.073 C 
ATOM     28  C   UNL     1      -5.220  -7.393   1.451  0.00  0.00    +0.022 C 
ATOM     29  C   UNL     1      -6.534  -8.178   1.460  0.00  0.00    +0.002 C 
ATOM     30  C   UNL     1      -6.307  -9.559   0.841  0.00  0.00    +0.000 C 
ATOM     31  C   UNL     1      -5.819  -9.397  -0.600  0.00  0.00    +0.002 C 
ATOM     32  C   UNL     1      -4.506  -8.613  -0.609  0.00  0.00    +0.022 C 
ENDBRANCH  25  27
ENDBRANCH  22  23
ENDBRANCH  21  22
ENDBRANCH  19  21
ENDBRANCH   6  17
TORSDOF 8
