REMARK  Name = ZINC05510640
REMARK  2 active torsions:
REMARK  status: ('A' for Active; 'I' for Inactive)
REMARK    1  A    between atoms: C_1  and  N_14
REMARK    2  A    between atoms: C_2  and  N_11
REMARK                            x       y       z     vdW  Elec       q    Type
REMARK                         _______ _______ _______ _____ _____    ______ ____
ROOT
ATOM      1  C   UNL     1      -1.233   1.649   0.017  0.00  0.00    +0.097 A 
ATOM      2  C   UNL     1      -1.252   3.037   0.030  0.00  0.00    +0.187 A 
ATOM      3  C   UNL     1      -2.460   3.712   0.035  0.00  0.00    +0.193 A 
ATOM      4  C   UNL     1      -3.651   3.003   0.037  0.00  0.00    +0.199 A 
ATOM      5  C   UNL     1      -3.635   1.617   0.029  0.00  0.00    +0.198 A 
ATOM      6  C   UNL     1      -2.427   0.939   0.019  0.00  0.00    +0.184 A 
ATOM      7  F   UNL     1      -2.410  -0.412   0.010  0.00  0.00    -0.200 F 
ATOM      8  F   UNL     1      -4.796   0.927   0.030  0.00  0.00    -0.199 F 
ATOM      9  F   UNL     1      -4.830   3.663   0.046  0.00  0.00    -0.199 F 
ATOM     10  F   UNL     1      -2.479   5.062   0.043  0.00  0.00    -0.200 F 
ENDROOT
BRANCH   2  11
ATOM     11  N   UNL     1       0.019   3.796   0.034  0.00  0.00    +0.061 N 
ATOM     12  O   UNL     1       0.539   4.118  -1.019  0.00  0.00    -0.126 OA
ATOM     13  O   UNL     1       0.545   4.097   1.090  0.00  0.00    -0.126 OA
ENDBRANCH   2  11
BRANCH   1  14
ATOM     14  N   UNL     1      -0.011   0.966   0.007  0.00  0.00    -0.354 N 
ATOM     15  H   UNL     1       0.002  -0.004   0.002  0.00  0.00    +0.142 HD
ATOM     16  H   UNL     1       0.822   1.462   0.002  0.00  0.00    +0.142 HD
ENDBRANCH   1  14
TORSDOF 2
