REMARK  Name = ZINC40882010
REMARK  7 active torsions:
REMARK  status: ('A' for Active; 'I' for Inactive)
REMARK    1  A    between atoms: C_1  and  C_2
REMARK    2  A    between atoms: C_5  and  C_18
REMARK    3  A    between atoms: C_6  and  O_9
REMARK    4  A    between atoms: C_7  and  C_8
REMARK    5  A    between atoms: O_9  and  C_10
REMARK    6  A    between atoms: C_11  and  C_16
REMARK    7  A    between atoms: C_16  and  O_17
REMARK                            x       y       z     vdW  Elec       q    Type
REMARK                         _______ _______ _______ _____ _____    ______ ____
ROOT
ATOM      1  O   UNL     1       0.051  -2.776   2.358  0.00  0.00    -0.437 OA
ENDROOT
BRANCH   1   7
ATOM      2  C   UNL     1      -0.018   1.503   0.010  0.00  0.00    +0.044 C 
ATOM      3  C   UNL     1       0.002  -0.004   0.002  0.00  0.00    -0.044 A 
ATOM      4  C   UNL     1       0.006  -0.688  -1.200  0.00  0.00    +0.004 A 
ATOM      5  C   UNL     1       0.025  -2.071  -1.211  0.00  0.00    +0.007 A 
ATOM      6  C   UNL     1       0.040  -2.772  -0.021  0.00  0.00    -0.008 A 
ATOM      7  C   UNL     1       0.036  -2.088   1.186  0.00  0.00    +0.136 A 
ATOM      8  C   UNL     1       0.023  -0.700   1.195  0.00  0.00    -0.005 A 
ATOM      9  C   UNL     1       0.025   0.046   2.504  0.00  0.00    +0.048 C 
ATOM     10  C   UNL     1       0.060  -4.279  -0.033  0.00  0.00    +0.047 C 
ENDBRANCH   1   7
BRANCH   1  11
ATOM     11  C   UNL     1       1.255  -3.082   2.902  0.00  0.00    +0.226 A 
ATOM     12  C   UNL     1       1.311  -3.789   4.097  0.00  0.00    +0.040 A 
ATOM     13  C   UNL     1       2.546  -4.096   4.641  0.00  0.00    +0.012 A 
ATOM     14  C   UNL     1       3.687  -3.682   3.968  0.00  0.00    +0.020 A 
ATOM     15  C   UNL     1       3.557  -2.983   2.784  0.00  0.00    +0.114 A 
ATOM     16  N   UNL     1       2.365  -2.709   2.288  0.00  0.00    -0.221 NA
BRANCH  12  17
ATOM     17  C   UNL     1       0.043  -4.216   4.791  0.00  0.00    +0.196 C 
BRANCH  17  18
ATOM     18  O   UNL     1       0.371  -4.922   5.990  0.00  0.00    -0.390 OA
ATOM     19  H   UNL     1      -0.398  -5.228   6.489  0.00  0.00    +0.210 HD
ENDBRANCH  17  18
ENDBRANCH  12  17
ENDBRANCH   1  11
TORSDOF 4
