REMARK  Name = ZINC04166202
REMARK  10 active torsions:
REMARK  status: ('A' for Active; 'I' for Inactive)
REMARK    1  A    between atoms: C_1  and  C_2
REMARK    2  A    between atoms: C_2  and  C_3
REMARK    3  A    between atoms: C_3  and  C_4
REMARK    4  A    between atoms: C_4  and  O_5
REMARK    5  A    between atoms: O_5  and  C_6
REMARK    6  A    between atoms: C_6  and  C_8
REMARK    7  A    between atoms: C_9  and  N_31
REMARK    8  A    between atoms: N_20  and  C_23
REMARK    9  A    between atoms: C_27  and  C_29
REMARK   10  A    between atoms: C_27  and  C_30
REMARK                            x       y       z     vdW  Elec       q    Type
REMARK                         _______ _______ _______ _____ _____    ______ ____
ROOT
ATOM      1  C   UNL     1       2.162  -4.346  -3.732  0.00  0.00    +0.117 C 
ATOM      2  C   UNL     1       2.348  -5.688  -3.849  0.00  0.00    +0.195 C 
ATOM      3  O   UNL     1       2.961  -6.211  -4.923  0.00  0.00    -0.446 OA
ATOM      4  C   UNL     1       3.039  -5.516  -6.074  0.00  0.00    +0.116 C 
ATOM      5  C   UNL     1       2.898  -4.178  -6.091  0.00  0.00    +0.057 C 
ATOM      6  C   UNL     1       2.634  -3.422  -4.816  0.00  0.00    +0.141 C 
ATOM      7  C   UNL     1       3.860  -2.675  -4.390  0.00  0.00    -0.002 A 
ATOM      8  C   UNL     1       5.117  -3.114  -4.033  0.00  0.00    +0.007 A 
ATOM      9  C   UNL     1       6.048  -2.142  -3.684  0.00  0.00    +0.000 A 
ATOM     10  C   UNL     1       5.725  -0.800  -3.697  0.00  0.00    +0.002 A 
ATOM     11  C   UNL     1       4.463  -0.352  -4.056  0.00  0.00    +0.024 A 
ATOM     12  C   UNL     1       3.519  -1.318  -4.407  0.00  0.00    +0.041 A 
ATOM     13  N   UNL     1       2.202  -1.158  -4.802  0.00  0.00    -0.273 N 
ATOM     14  C   UNL     1       1.605  -2.339  -5.062  0.00  0.00    +0.240 C 
ATOM     15  O   UNL     1       0.459  -2.502  -5.426  0.00  0.00    -0.274 OA
ATOM     16  C   UNL     1       1.535   0.141  -4.921  0.00  0.00    +0.138 C 
ATOM     17  C   UNL     1       2.992  -3.448  -7.292  0.00  0.00    +0.165 C 
ATOM     18  O   UNL     1       2.840  -2.243  -7.271  0.00  0.00    -0.292 OA
ATOM     19  C   UNL     1       3.278  -4.133  -8.600  0.00  0.00    +0.086 C 
ATOM     20  C   UNL     1       4.081  -5.409  -8.327  0.00  0.00    -0.021 C 
ATOM     21  C   UNL     1       3.287  -6.282  -7.352  0.00  0.00    +0.081 C 
ATOM     22  C   UNL     1       5.431  -5.045  -7.707  0.00  0.00    +0.012 C 
ATOM     23  C   UNL     1       4.300  -6.170  -9.636  0.00  0.00    +0.012 C 
ENDROOT
BRANCH   2  24
ATOM     24  N   UNL     1       1.904  -6.519  -2.855  0.00  0.00    -0.329 N 
ATOM     25  H   UNL     1       1.394  -6.158  -2.113  0.00  0.00    +0.145 HD
ATOM     26  H   UNL     1       2.099  -7.469  -2.893  0.00  0.00    +0.145 HD
ENDBRANCH   2  24
BRANCH   1  27
ATOM     27  C   UNL     1       1.521  -3.824  -2.598  0.00  0.00    +0.342 C 
ATOM     28  O   UNL     1       2.178  -3.323  -1.704  0.00  0.00    -0.245 OA
BRANCH  27  29
ATOM     29  O   UNL     1       0.175  -3.877  -2.499  0.00  0.00    -0.461 OA
BRANCH  29  30
ATOM     30  C   UNL     1      -0.410  -3.327  -1.317  0.00  0.00    +0.232 C 
BRANCH  30  31
ATOM     31  C   UNL     1      -1.931  -3.478  -1.383  0.00  0.00    +0.041 C 
BRANCH  31  33
ATOM     32  C   UNL     1      -4.079  -3.039  -0.185  0.00  0.00    +0.004 C 
ATOM     33  C   UNL     1      -2.558  -2.889  -0.118  0.00  0.00    -0.000 C 
ENDBRANCH  31  33
ENDBRANCH  30  31
ENDBRANCH  29  30
ENDBRANCH  27  29
ENDBRANCH   1  27
TORSDOF 6
