REMARK  Name = ZINC06822096
REMARK  11 active torsions:
REMARK  status: ('A' for Active; 'I' for Inactive)
REMARK    1  A    between atoms: C_1  and  C_2
REMARK    2  A    between atoms: C_2  and  C_3
REMARK    3  A    between atoms: C_6  and  N_9
REMARK    4  A    between atoms: N_9  and  C_10
REMARK    5  A    between atoms: C_10  and  C_12
REMARK    6  A    between atoms: C_10  and  C_17
REMARK    7  A    between atoms: N_19  and  C_20
REMARK    8  A    between atoms: C_20  and  C_21
REMARK    9  A    between atoms: C_27  and  C_29
REMARK   10  A    between atoms: C_30  and  N_37
REMARK   11  A    between atoms: C_31  and  C_34
REMARK                            x       y       z     vdW  Elec       q    Type
REMARK                         _______ _______ _______ _____ _____    ______ ____
ROOT
ATOM      1  N   UNL     1      -6.092  -1.325   0.142  0.00  0.00    -0.250 N 
ATOM      2  C   UNL     1      -6.794  -2.007   1.069  0.00  0.00    +0.262 C 
ATOM      3  O   UNL     1      -7.506  -2.935   0.732  0.00  0.00    -0.269 OA
ENDROOT
BRANCH   1   7
ATOM      4  C   UNL     1      -3.444   1.667   1.322  0.00  0.00    -0.048 A 
ATOM      5  C   UNL     1      -4.722   1.999   0.910  0.00  0.00    +0.005 A 
ATOM      6  C   UNL     1      -5.602   1.010   0.518  0.00  0.00    +0.024 A 
ATOM      7  C   UNL     1      -5.203  -0.321   0.538  0.00  0.00    +0.038 A 
ATOM      8  C   UNL     1      -3.919  -0.651   0.952  0.00  0.00    +0.024 A 
ATOM      9  C   UNL     1      -3.042   0.344   1.338  0.00  0.00    +0.005 A 
BRANCH   4  11
ATOM     10  C   UNL     1      -1.698   3.240   0.533  0.00  0.00    +0.009 C 
ATOM     11  C   UNL     1      -2.487   2.749   1.748  0.00  0.00    +0.032 C 
ENDBRANCH   4  11
ENDBRANCH   1   7
BRANCH   2  12
ATOM     12  C   UNL     1      -6.701  -1.631   2.481  0.00  0.00    +0.116 A 
ATOM     13  C   UNL     1      -7.430  -2.106   3.572  0.00  0.00    +0.076 A 
ATOM     14  C   UNL     1      -7.067  -1.516   4.781  0.00  0.00    +0.155 A 
ATOM     15  N   UNL     1      -6.116  -0.605   4.798  0.00  0.00    -0.203 NA
ATOM     16  S   UNL     1      -5.621  -0.452   3.266  0.00  0.00    +0.019 S 
BRANCH  14  17
ATOM     17  C   UNL     1      -7.743  -1.907   6.031  0.00  0.00    +0.262 C 
ATOM     18  O   UNL     1      -8.552  -2.815   6.026  0.00  0.00    -0.269 OA
ATOM     19  N   UNL     1      -7.464  -1.259   7.179  0.00  0.00    -0.324 N 
ATOM     20  H   UNL     1      -6.818  -0.535   7.183  0.00  0.00    +0.145 HD
ATOM     21  H   UNL     1      -7.909  -1.516   8.002  0.00  0.00    +0.145 HD
ENDBRANCH  14  17
BRANCH  13  22
ATOM     22  N   UNL     1      -8.421  -3.073   3.464  0.00  0.00    -0.355 N 
ATOM     23  H   UNL     1      -8.556  -3.536   2.622  0.00  0.00    +0.142 HD
ATOM     24  H   UNL     1      -8.977  -3.285   4.229  0.00  0.00    +0.142 HD
ENDBRANCH  13  22
ENDBRANCH   2  12
BRANCH   1  25
ATOM     25  C   UNL     1      -6.259  -1.636  -1.279  0.00  0.00    +0.204 C 
BRANCH  25  26
ATOM     26  C   UNL     1      -6.621  -0.380  -2.029  0.00  0.00    +0.019 A 
ATOM     27  C   UNL     1      -7.721  -0.119  -2.777  0.00  0.00    +0.013 A 
ATOM     28  C   UNL     1      -7.844   1.119  -3.380  0.00  0.00    +0.008 A 
ATOM     29  C   UNL     1      -6.860   2.035  -3.206  0.00  0.00    +0.045 A 
ATOM     30  S   UNL     1      -5.715   1.153  -2.157  0.00  0.00    -0.099 S 
ENDBRANCH  25  26
BRANCH  25  31
ATOM     31  C   UNL     1      -4.971  -2.195  -1.827  0.00  0.00    +0.239 C 
ATOM     32  O   UNL     1      -4.045  -2.428  -1.079  0.00  0.00    -0.273 OA
ATOM     33  N   UNL     1      -4.848  -2.436  -3.147  0.00  0.00    -0.311 N 
ATOM     34  H   UNL     1      -5.589  -2.250  -3.745  0.00  0.00    +0.149 HD
BRANCH  33  35
ATOM     35  C   UNL     1      -3.596  -2.979  -3.679  0.00  0.00    +0.135 C 
BRANCH  35  36
ATOM     36  C   UNL     1      -3.720  -3.157  -5.194  0.00  0.00    +0.135 C 
ATOM     37  C   UNL     1      -2.451  -3.841  -5.747  0.00  0.00    +0.035 C 
ATOM     38  C   UNL     1      -2.227  -3.086  -7.085  0.00  0.00    +0.031 C 
ATOM     39  C   UNL     1      -2.719  -1.666  -6.709  0.00  0.00    +0.160 C 
ATOM     40  O   UNL     1      -3.835  -1.877  -5.826  0.00  0.00    -0.375 OA
ENDBRANCH  35  36
ENDBRANCH  33  35
ENDBRANCH  25  31
ENDBRANCH   1  25
TORSDOF 10
