REMARK  Name = ZINC19460585
REMARK  7 active torsions:
REMARK  status: ('A' for Active; 'I' for Inactive)
REMARK    1  A    between atoms: C_1  and  C_2
REMARK    2  A    between atoms: C_2  and  C_29
REMARK    3  A    between atoms: C_7  and  C_10
REMARK    4  A    between atoms: C_13  and  O_16
REMARK    5  A    between atoms: N_19  and  C_22
REMARK    6  A    between atoms: C_29  and  O_31
REMARK    7  A    between atoms: O_31  and  C_32
REMARK                            x       y       z     vdW  Elec       q    Type
REMARK                         _______ _______ _______ _____ _____    ______ ____
ROOT
ATOM      1  C   UNL     1      -1.858  -1.609   0.048  0.00  0.00    +0.040 C 
ATOM      2  C   UNL     1      -1.443  -0.223  -0.448  0.00  0.00    +0.127 C 
ATOM      3  C   UNL     1      -0.019   0.099   0.008  0.00  0.00    +0.120 C 
ATOM      4  C   UNL     1      -0.156   1.673   0.023  0.00  0.00    +0.111 C 
ATOM      5  C   UNL     1      -1.403   1.863   0.783  0.00  0.00    +0.097 C 
ATOM      6  N   UNL     1      -2.306   0.829   0.169  0.00  0.00    -0.294 NA
ATOM      7  C   UNL     1       1.224   2.088   0.018  0.00  0.00    +0.232 C 
ATOM      8  O   UNL     1       1.710   3.049   0.574  0.00  0.00    -0.274 OA
ATOM      9  N   UNL     1       1.866   1.155  -0.758  0.00  0.00    -0.210 N 
ATOM     10  C   UNL     1       1.098   0.052  -1.002  0.00  0.00    +0.232 C 
ATOM     11  O   UNL     1       1.278  -0.790  -1.855  0.00  0.00    -0.274 OA
ATOM     12  H   UNL     1      -2.938   1.286  -0.606  0.00  0.00    +0.124 HD
ENDROOT
BRANCH   9  13
ATOM     13  C   UNL     1       3.171   1.316  -1.247  0.00  0.00    +0.044 A 
ATOM     14  C   UNL     1       3.751   0.321  -2.022  0.00  0.00    +0.027 A 
ATOM     15  C   UNL     1       5.033   0.485  -2.508  0.00  0.00    +0.040 A 
ATOM     16  C   UNL     1       5.745   1.636  -2.213  0.00  0.00    +0.124 A 
ATOM     17  C   UNL     1       5.170   2.627  -1.435  0.00  0.00    +0.040 A 
ATOM     18  C   UNL     1       3.886   2.469  -0.953  0.00  0.00    +0.027 A 
ATOM     19  F   UNL     1       7.001   1.792  -2.684  0.00  0.00    -0.205 F 
ENDBRANCH   9  13
BRANCH   5  20
ATOM     20  C   UNL     1      -1.955   3.250   0.574  0.00  0.00    -0.029 A 
ATOM     21  C   UNL     1      -2.665   3.544  -0.575  0.00  0.00    +0.009 A 
ATOM     22  C   UNL     1      -3.176   4.813  -0.766  0.00  0.00    +0.046 A 
ATOM     23  C   UNL     1      -2.968   5.795   0.191  0.00  0.00    +0.117 A 
ATOM     24  C   UNL     1      -2.250   5.499   1.341  0.00  0.00    +0.046 A 
ATOM     25  C   UNL     1      -1.745   4.227   1.530  0.00  0.00    +0.009 A 
BRANCH  23  26
ATOM     26  O   UNL     1      -3.465   7.046   0.003  0.00  0.00    -0.507 OA
ATOM     27  H   UNL     1      -3.299   7.824   0.763  0.00  0.00    +0.292 HD
ENDBRANCH  23  26
ENDBRANCH   5  20
BRANCH   2  28
ATOM     28  C   UNL     1      -1.537  -0.158  -1.951  0.00  0.00    +0.328 C 
ATOM     29  O   UNL     1      -1.401  -1.163  -2.608  0.00  0.00    -0.249 OA
BRANCH  28  30
ATOM     30  O   UNL     1      -1.770   1.016  -2.559  0.00  0.00    -0.467 OA
ATOM     31  C   UNL     1      -1.848   1.003  -4.009  0.00  0.00    +0.280 C 
ENDBRANCH  28  30
ENDBRANCH   2  28
TORSDOF 5
