REMARK  Name = ZINC67561922
REMARK  7 active torsions:
REMARK  status: ('A' for Active; 'I' for Inactive)
REMARK    1  A    between atoms: C_1  and  C_2
REMARK    2  A    between atoms: C_3  and  C_8
REMARK    3  A    between atoms: C_10  and  C_17
REMARK    4  A    between atoms: C_11  and  C_16
REMARK    5  A    between atoms: N_19  and  C_20
REMARK    6  A    between atoms: C_20  and  C_21
REMARK    7  A    between atoms: C_27  and  C_29
REMARK                            x       y       z     vdW  Elec       q    Type
REMARK                         _______ _______ _______ _____ _____    ______ ____
ROOT
ATOM      1  C   UNL     1       0.069  -0.711  -2.432  0.00  0.00    +0.160 C 
ATOM      2  C   UNL     1       1.392  -0.370  -3.087  0.00  0.00    +0.057 C 
ATOM      3  C   UNL     1       1.696  -0.988  -4.247  0.00  0.00    +0.019 C 
ATOM      4  N   UNL     1       0.840  -1.891  -4.811  0.00  0.00    -0.273 N 
ATOM      5  C   UNL     1      -0.340  -2.229  -4.276  0.00  0.00    +0.304 C 
ATOM      6  O   UNL     1      -1.035  -3.044  -4.851  0.00  0.00    -0.252 OA
ATOM      7  N   UNL     1      -0.781  -1.696  -3.120  0.00  0.00    -0.287 N 
ATOM      8  C   UNL     1       3.002  -0.677  -4.932  0.00  0.00    +0.061 C 
ATOM      9  H   UNL     1       1.101  -2.311  -5.646  0.00  0.00    +0.156 HD
ATOM     10  H   UNL     1      -1.639  -1.956  -2.749  0.00  0.00    +0.151 HD
ENDROOT
BRANCH   1  13
ATOM     11  C   UNL     1      -1.882  -0.663   0.016  0.00  0.00    +0.065 C 
ATOM     12  C   UNL     1      -0.479  -1.213   0.008  0.00  0.00    +0.035 A 
ATOM     13  C   UNL     1       0.357  -1.232  -1.047  0.00  0.00    +0.061 A 
ATOM     14  N   UNL     1       1.520  -1.815  -0.621  0.00  0.00    -0.348 N 
ATOM     15  H   UNL     1       2.315  -1.970  -1.154  0.00  0.00    +0.167 HD
ATOM     16  C   UNL     1       1.353  -2.132   0.681  0.00  0.00    +0.171 A 
ATOM     17  N   UNL     1       0.157  -1.765   1.052  0.00  0.00    -0.350 N 
ATOM     18  H   UNL     1      -0.215  -1.876   1.941  0.00  0.00    +0.166 HD
ENDBRANCH   1  13
BRANCH   2  19
ATOM     19  C   UNL     1       2.280   0.567  -2.502  0.00  0.00    +0.244 C 
ATOM     20  O   UNL     1       3.389   0.734  -2.976  0.00  0.00    -0.270 OA
ATOM     21  N   UNL     1       1.896   1.274  -1.421  0.00  0.00    -0.306 N 
ATOM     22  H   UNL     1       1.045   1.086  -0.995  0.00  0.00    +0.149 HD
BRANCH  21  23
ATOM     23  C   UNL     1       2.764   2.327  -0.888  0.00  0.00    +0.161 C 
BRANCH  23  24
ATOM     24  C   UNL     1       2.167   2.877   0.382  0.00  0.00    +0.079 A 
ATOM     25  C   UNL     1       2.476   2.486   1.630  0.00  0.00    +0.140 A 
ATOM     26  N   UNL     1       1.706   3.236   2.511  0.00  0.00    -0.213 N 
ATOM     27  C   UNL     1       0.958   4.058   1.711  0.00  0.00    +0.196 A 
ATOM     28  N   UNL     1       1.240   3.843   0.459  0.00  0.00    -0.223 NA
ATOM     29  S   UNL     1       0.007   4.979   2.896  0.00  0.00    -0.033 S 
ATOM     30  C   UNL     1       0.663   4.215   4.371  0.00  0.00    +0.099 A 
ATOM     31  N   UNL     1       1.511   3.362   3.882  0.00  0.00    -0.163 NA
ATOM     32  C   UNL     1       0.321   4.491   5.813  0.00  0.00    +0.075 C 
ENDBRANCH  23  24
ENDBRANCH  21  23
ENDBRANCH   2  19
TORSDOF 4
