REMARK  Name = ZINC39549251
REMARK  6 active torsions:
REMARK  status: ('A' for Active; 'I' for Inactive)
REMARK    1  A    between atoms: C_1  and  C_2
REMARK    2  A    between atoms: C_4  and  C_28
REMARK    3  A    between atoms: C_6  and  C_27
REMARK    4  A    between atoms: C_10  and  C_11
REMARK    5  A    between atoms: N_13  and  C_14
REMARK    6  A    between atoms: C_23  and  C_26
REMARK                            x       y       z     vdW  Elec       q    Type
REMARK                         _______ _______ _______ _____ _____    ______ ____
ROOT
ATOM      1  C   UNL     1       1.861  -0.733   1.796  0.00  0.00    +0.255 C 
ATOM      2  O   UNL     1       2.029   0.442   2.065  0.00  0.00    -0.269 OA
ATOM      3  N   UNL     1       2.251  -1.685   2.666  0.00  0.00    -0.281 N 
ATOM      4  H   UNL     1       2.176  -2.622   2.426  0.00  0.00    +0.155 HD
ENDROOT
BRANCH   3   5
ATOM      5  C   UNL     1       2.764  -1.323   3.918  0.00  0.00    +0.036 A 
ATOM      6  C   UNL     1       2.505  -2.114   5.030  0.00  0.00    +0.027 A 
ATOM      7  C   UNL     1       3.009  -1.760   6.267  0.00  0.00    +0.049 A 
ATOM      8  C   UNL     1       3.775  -0.615   6.400  0.00  0.00    +0.143 A 
ATOM      9  C   UNL     1       4.037   0.181   5.285  0.00  0.00    +0.077 A 
ATOM     10  C   UNL     1       3.537  -0.176   4.045  0.00  0.00    +0.050 A 
ATOM     11  N   UNL     1       4.814   1.339   5.437  0.00  0.00    -0.279 N 
ATOM     12  C   UNL     1       5.546   1.494   6.562  0.00  0.00    +0.258 C 
ATOM     13  O   UNL     1       6.201   2.501   6.728  0.00  0.00    -0.271 OA
ATOM     14  C   UNL     1       5.545   0.410   7.610  0.00  0.00    +0.256 C 
ATOM     15  O   UNL     1       4.279  -0.255   7.612  0.00  0.00    -0.478 OA
ATOM     16  C   UNL     1       5.795   1.031   8.986  0.00  0.00    +0.062 C 
ATOM     17  H   UNL     1       4.825   2.018   4.745  0.00  0.00    +0.155 HD
ENDBRANCH   3   5
BRANCH   1  27
ATOM     18  C   UNL     1       0.890   1.192  -0.338  0.00  0.00    +0.046 C 
ATOM     19  C   UNL     1       0.778  -0.305  -0.471  0.00  0.00    -0.020 A 
ATOM     20  C   UNL     1       0.209  -0.868  -1.624  0.00  0.00    +0.032 A 
ATOM     21  C   UNL     1      -0.319  -0.225  -2.771  0.00  0.00    +0.050 A 
ATOM     22  N   UNL     1      -0.810  -0.954  -3.750  0.00  0.00    -0.237 NA
ATOM     23  C   UNL     1      -0.833  -2.275  -3.708  0.00  0.00    +0.128 A 
ATOM     24  N   UNL     1      -0.358  -2.937  -2.670  0.00  0.00    -0.225 NA
ATOM     25  C   UNL     1       0.152  -2.287  -1.647  0.00  0.00    +0.113 A 
ATOM     26  S   UNL     1       0.879  -2.749  -0.096  0.00  0.00    -0.064 S 
ATOM     27  C   UNL     1       1.233  -1.113   0.523  0.00  0.00    +0.080 A 
ATOM     28  C   UNL     1      -1.413  -3.040  -4.869  0.00  0.00    +0.088 C 
ATOM     29  C   UNL     1      -0.318   1.279  -2.869  0.00  0.00    +0.066 C 
ENDBRANCH   1  27
TORSDOF 2
