REMARK  Name = ZINC44802830
REMARK  12 active torsions:
REMARK  status: ('A' for Active; 'I' for Inactive)
REMARK    1  A    between atoms: C_1  and  C_2
REMARK    2  A    between atoms: C_2  and  C_4
REMARK    3  A    between atoms: C_2  and  N_14
REMARK    4  A    between atoms: C_7  and  O_10
REMARK    5  A    between atoms: O_10  and  C_11
REMARK    6  A    between atoms: N_14  and  C_15
REMARK    7  A    between atoms: C_15  and  C_17
REMARK    8  A    between atoms: C_15  and  C_18
REMARK    9  A    between atoms: C_18  and  C_20
REMARK   10  A    between atoms: C_21  and  N_30
REMARK   11  A    between atoms: N_22  and  C_29
REMARK   12  A    between atoms: N_25  and  C_28
REMARK                            x       y       z     vdW  Elec       q    Type
REMARK                         _______ _______ _______ _____ _____    ______ ____
ROOT
ATOM      1  C   UNL     1      -2.342   0.520   0.983  0.00  0.00    -0.001 C 
ATOM      2  C   UNL     1      -2.808   1.967   0.812  0.00  0.00    -0.006 C 
ENDROOT
BRANCH   1   3
ATOM      3  N   UNL     1      -1.705   0.060  -0.258  0.00  0.00    +0.390 N 
ATOM      4  H   UNL     1      -2.333   0.211  -1.034  0.00  0.00    -0.084 HD
ATOM      5  H   UNL     1      -1.493  -0.923  -0.183  0.00  0.00    -0.084 HD
BRANCH   3   7
ATOM      6  C   UNL     1       0.130   0.431  -1.836  0.00  0.00    -0.009 C 
ATOM      7  C   UNL     1      -0.464   0.814  -0.480  0.00  0.00    -0.043 C 
BRANCH   7   8
ATOM      8  C   UNL     1       0.523   0.489   0.612  0.00  0.00    -0.061 A 
ATOM      9  C   UNL     1       0.646  -0.811   1.065  0.00  0.00    +0.005 A 
ATOM     10  C   UNL     1       1.550  -1.113   2.066  0.00  0.00    +0.046 A 
ATOM     11  C   UNL     1       2.335  -0.109   2.615  0.00  0.00    +0.127 A 
ATOM     12  C   UNL     1       2.210   1.195   2.157  0.00  0.00    +0.046 A 
ATOM     13  C   UNL     1       1.308   1.490   1.153  0.00  0.00    +0.005 A 
BRANCH  11  14
ATOM     14  O   UNL     1       3.224  -0.402   3.599  0.00  0.00    -0.434 OA
BRANCH  14  15
ATOM     15  C   UNL     1       3.999   0.681   4.118  0.00  0.00    +0.541 C 
ATOM     16  F   UNL     1       4.754   1.250   3.087  0.00  0.00    -0.166 F 
ATOM     17  F   UNL     1       3.145   1.648   4.659  0.00  0.00    -0.166 F 
ENDBRANCH  14  15
ENDBRANCH  11  14
ENDBRANCH   7   8
ENDBRANCH   3   7
ENDBRANCH   1   3
BRANCH   1  18
ATOM     18  C   UNL     1      -3.528  -0.357   1.293  0.00  0.00    +0.158 C 
ATOM     19  O   UNL     1      -3.982  -1.089   0.438  0.00  0.00    -0.294 OA
BRANCH  18  20
ATOM     20  C   UNL     1      -4.112  -0.326   2.578  0.00  0.00    +0.118 A 
ATOM     21  C   UNL     1      -5.293  -1.036   2.856  0.00  0.00    +0.116 A 
ATOM     22  N   UNL     1      -5.819  -0.976   4.114  0.00  0.00    -0.284 N 
ATOM     23  C   UNL     1      -5.232  -0.256   5.083  0.00  0.00    +0.333 A 
ATOM     24  O   UNL     1      -5.740  -0.235   6.187  0.00  0.00    -0.246 OA
ATOM     25  N   UNL     1      -4.103   0.442   4.877  0.00  0.00    -0.263 N 
ATOM     26  C   UNL     1      -3.501   0.443   3.670  0.00  0.00    +0.269 A 
ATOM     27  O   UNL     1      -2.475   1.073   3.488  0.00  0.00    -0.267 OA
ATOM     28  C   UNL     1      -3.515   1.207   5.979  0.00  0.00    +0.157 C 
ATOM     29  C   UNL     1      -7.050  -1.712   4.414  0.00  0.00    +0.155 C 
BRANCH  21  30
ATOM     30  N   UNL     1      -5.902  -1.771   1.886  0.00  0.00    -0.344 N 
ATOM     31  H   UNL     1      -5.454  -1.922   1.039  0.00  0.00    +0.144 HD
ATOM     32  H   UNL     1      -6.784  -2.143   2.041  0.00  0.00    +0.144 HD
ENDBRANCH  21  30
ENDBRANCH  18  20
ENDBRANCH   1  18
TORSDOF 8
