REMARK  Name = ZINC66594732
REMARK  8 active torsions:
REMARK  status: ('A' for Active; 'I' for Inactive)
REMARK    1  A    between atoms: C_1  and  C_2
REMARK    2  A    between atoms: C_3  and  C_7
REMARK    3  A    between atoms: C_7  and  N_8
REMARK    4  A    between atoms: N_8  and  C_9
REMARK    5  A    between atoms: N_12  and  C_13
REMARK    6  A    between atoms: C_17  and  C_19
REMARK    7  A    between atoms: C_19  and  N_20
REMARK    8  A    between atoms: C_24  and  C_26
REMARK                            x       y       z     vdW  Elec       q    Type
REMARK                         _______ _______ _______ _____ _____    ______ ____
ROOT
ATOM      1  C   UNL     1       3.969   2.495  -3.084  0.00  0.00    +0.035 A 
ATOM      2  C   UNL     1       3.380   3.538  -2.382  0.00  0.00    +0.023 A 
ATOM      3  C   UNL     1       4.089   4.702  -2.154  0.00  0.00    +0.002 A 
ATOM      4  C   UNL     1       5.383   4.828  -2.624  0.00  0.00    +0.002 A 
ATOM      5  C   UNL     1       5.972   3.791  -3.324  0.00  0.00    -0.062 A 
ATOM      6  C   UNL     1       5.271   2.623  -3.550  0.00  0.00    +0.025 A 
ENDROOT
BRANCH   1  11
ATOM      7  N   UNL     1       2.850  -0.575  -4.627  0.00  0.00    -0.284 N 
ATOM      8  C   UNL     1       1.968  -1.109  -3.586  0.00  0.00    +0.134 C 
ATOM      9  C   UNL     1       3.458   0.615  -4.451  0.00  0.00    +0.307 C 
ATOM     10  O   UNL     1       4.189   1.058  -5.315  0.00  0.00    -0.252 OA
ATOM     11  N   UNL     1       3.254   1.314  -3.316  0.00  0.00    -0.269 N 
ATOM     12  H   UNL     1       2.612   0.999  -2.661  0.00  0.00    +0.156 HD
BRANCH   7  13
ATOM     13  C   UNL     1       3.071  -1.335  -5.860  0.00  0.00    +0.153 C 
BRANCH  13  16
ATOM     14  C   UNL     1       3.279   0.940  -7.972  0.00  0.00    +0.066 C 
ATOM     15  C   UNL     1       2.080   0.039  -7.824  0.00  0.00    +0.050 A 
ATOM     16  C   UNL     1       2.039  -0.940  -6.885  0.00  0.00    +0.029 A 
ATOM     17  S   UNL     1       0.423  -1.631  -7.200  0.00  0.00    -0.079 S 
ATOM     18  C   UNL     1      -0.018  -0.618  -8.470  0.00  0.00    +0.156 A 
ATOM     19  N   UNL     1       1.021   0.170  -8.598  0.00  0.00    -0.252 NA
ENDBRANCH  13  16
ENDBRANCH   7  13
ENDBRANCH   1  11
BRANCH   5  20
ATOM     20  C   UNL     1       7.383   3.934  -3.835  0.00  0.00    -0.042 C 
BRANCH  20  21
ATOM     21  N   UNL     1       8.324   3.454  -2.815  0.00  0.00    +0.390 N 
ATOM     22  C   UNL     1       8.268   4.338  -1.631  0.00  0.00    -0.077 C 
ATOM     23  C   UNL     1       9.727   4.402  -1.116  0.00  0.00    -0.020 C 
ATOM     24  C   UNL     1      10.529   4.405  -2.444  0.00  0.00    -0.008 C 
ATOM     25  C   UNL     1       9.696   3.479  -3.355  0.00  0.00    +0.019 C 
ATOM     26  H   UNL     1       8.083   2.512  -2.545  0.00  0.00    -0.080 HD
BRANCH  25  27
ATOM     27  C   UNL     1      10.277   2.089  -3.342  0.00  0.00    +0.197 C 
ATOM     28  O   UNL     1       9.619   1.160  -2.924  0.00  0.00    -0.278 OA
ATOM     29  N   UNL     1      11.530   1.878  -3.794  0.00  0.00    -0.331 N 
ATOM     30  H   UNL     1      12.056   2.621  -4.128  0.00  0.00    +0.145 HD
ATOM     31  H   UNL     1      11.904   0.983  -3.786  0.00  0.00    +0.145 HD
ENDBRANCH  25  27
ENDBRANCH  20  21
ENDBRANCH   5  20
TORSDOF 6
