REMARK  Name = ZINC64409676
REMARK  4 active torsions:
REMARK  status: ('A' for Active; 'I' for Inactive)
REMARK    1  A    between atoms: C_1  and  C_2
REMARK    2  A    between atoms: C_6  and  C_9
REMARK    3  A    between atoms: C_16  and  C_18
REMARK    4  A    between atoms: C_18  and  C_19
REMARK                            x       y       z     vdW  Elec       q    Type
REMARK                         _______ _______ _______ _____ _____    ______ ____
ROOT
ATOM      1  C   UNL     1       3.019  -2.543   1.018  0.00  0.00    +0.035 C 
ATOM      2  C   UNL     1       2.944  -3.058   2.457  0.00  0.00    +0.009 C 
ATOM      3  C   UNL     1       4.342  -3.467   2.928  0.00  0.00    +0.019 C 
ATOM      4  C   UNL     1       5.264  -2.244   2.898  0.00  0.00    +0.108 C 
ATOM      5  N   UNL     1       5.228  -1.657   1.552  0.00  0.00    -0.301 N 
ATOM      6  C   UNL     1       3.926  -1.310   0.966  0.00  0.00    +0.113 C 
ATOM      7  C   UNL     1       6.369  -1.440   0.867  0.00  0.00    +0.220 C 
ATOM      8  O   UNL     1       6.326  -0.955  -0.244  0.00  0.00    -0.275 OA
ENDROOT
BRANCH   1  13
ATOM      9  C   UNL     1      -0.019   1.526   0.010  0.00  0.00    +0.037 C 
ATOM     10  C   UNL     1       0.002  -0.004   0.002  0.00  0.00    +0.125 C 
ATOM     11  N   UNL     1       0.798  -0.526  -1.140  0.00  0.00    -0.243 NA
ATOM     12  N   UNL     1       1.643  -1.658  -0.859  0.00  0.00    -0.242 NA
ATOM     13  C   UNL     1       1.616  -2.166   0.537  0.00  0.00    +0.132 C 
ATOM     14  S   UNL     1       0.984  -0.669   1.420  0.00  0.00    -0.121 S 
ATOM     15  H   UNL     1       1.320   0.214  -1.585  0.00  0.00    +0.142 HD
ATOM     16  H   UNL     1       2.590  -1.487  -1.163  0.00  0.00    +0.142 HD
ENDBRANCH   1  13
BRANCH   7  17
ATOM     17  C   UNL     1       7.697  -1.801   1.480  0.00  0.00    +0.129 C 
BRANCH  17  18
ATOM     18  C   UNL     1       8.804  -1.460   0.517  0.00  0.00    -0.033 C 
ATOM     19  C   UNL     1       9.539  -0.325   0.490  0.00  0.00    -0.001 A 
ATOM     20  C   UNL     1       9.527   0.887   1.318  0.00  0.00    +0.010 A 
ATOM     21  C   UNL     1      10.403   1.879   1.042  0.00  0.00    +0.001 A 
ATOM     22  C   UNL     1      11.320   1.780  -0.013  0.00  0.00    +0.002 A 
ATOM     23  C   UNL     1      11.392   0.698  -0.818  0.00  0.00    +0.026 A 
ATOM     24  C   UNL     1      10.518  -0.406  -0.617  0.00  0.00    +0.043 A 
ATOM     25  N   UNL     1      10.393  -1.547  -1.251  0.00  0.00    -0.380 N 
ATOM     26  C   UNL     1       9.324  -2.322  -0.612  0.00  0.00    +0.145 C 
ATOM     27  H   UNL     1      10.922  -1.832  -2.012  0.00  0.00    +0.160 HD
ENDBRANCH  17  18
ENDBRANCH   7  17
TORSDOF 3
