REMARK  Name = ZINC05732527
REMARK  10 active torsions:
REMARK  status: ('A' for Active; 'I' for Inactive)
REMARK    1  A    between atoms: C_1  and  O_2
REMARK    2  A    between atoms: O_2  and  C_3
REMARK    3  A    between atoms: C_5  and  C_12
REMARK    4  A    between atoms: C_7  and  O_11
REMARK    5  A    between atoms: C_8  and  O_9
REMARK    6  A    between atoms: O_9  and  C_10
REMARK    7  A    between atoms: C_17  and  O_26
REMARK    8  A    between atoms: C_18  and  O_24
REMARK    9  A    between atoms: C_19  and  O_23
REMARK   10  A    between atoms: O_24  and  C_25
REMARK                            x       y       z     vdW  Elec       q    Type
REMARK                         _______ _______ _______ _____ _____    ______ ____
ROOT
ATOM      1  C   UNL     1      -3.139   7.163   0.729  0.00  0.00    +0.065 A 
ATOM      2  C   UNL     1      -2.101   7.716   1.406  0.00  0.00    +0.208 A 
ATOM      3  O   UNL     1      -1.075   6.994   1.863  0.00  0.00    -0.462 OA
ATOM      4  C   UNL     1      -0.977   5.659   1.697  0.00  0.00    +0.146 A 
ATOM      5  C   UNL     1       0.116   4.966   2.198  0.00  0.00    +0.096 A 
ATOM      6  C   UNL     1       0.207   3.594   2.029  0.00  0.00    +0.166 A 
ATOM      7  C   UNL     1      -0.788   2.894   1.347  0.00  0.00    +0.204 A 
ATOM      8  C   UNL     1      -1.886   3.568   0.839  0.00  0.00    +0.177 A 
ATOM      9  C   UNL     1      -1.984   4.955   1.013  0.00  0.00    +0.110 A 
ATOM     10  C   UNL     1      -3.135   5.709   0.491  0.00  0.00    +0.204 A 
ATOM     11  O   UNL     1      -4.040   5.157  -0.111  0.00  0.00    -0.286 OA
ENDROOT
BRANCH   1  14
ATOM     12  C   UNL     1      -5.932   9.685   0.646  0.00  0.00    +0.166 A 
ATOM     13  C   UNL     1      -4.888   8.898   1.104  0.00  0.00    +0.058 A 
ATOM     14  C   UNL     1      -4.258   8.006   0.240  0.00  0.00    -0.004 A 
ATOM     15  C   UNL     1      -4.675   7.910  -1.087  0.00  0.00    +0.058 A 
ATOM     16  C   UNL     1      -5.722   8.694  -1.540  0.00  0.00    +0.163 A 
ATOM     17  C   UNL     1      -6.350   9.584  -0.677  0.00  0.00    +0.203 A 
BRANCH  12  19
ATOM     18  C   UNL     1      -6.067  10.607   2.833  0.00  0.00    +0.277 C 
ATOM     19  O   UNL     1      -6.548  10.556   1.489  0.00  0.00    -0.491 OA
ENDBRANCH  12  19
BRANCH  17  20
ATOM     20  O   UNL     1      -7.375  10.358  -1.126  0.00  0.00    -0.489 OA
ATOM     21  C   UNL     1      -7.035  11.634  -1.671  0.00  0.00    +0.277 C 
ENDBRANCH  17  20
BRANCH  16  22
ATOM     22  O   UNL     1      -6.132   8.597  -2.833  0.00  0.00    -0.503 OA
ATOM     23  H   UNL     1      -6.964   9.220  -3.194  0.00  0.00    +0.292 HD
ENDBRANCH  16  22
ENDBRANCH   1  14
BRANCH   8  24
ATOM     24  O   UNL     1      -2.860   2.891   0.178  0.00  0.00    -0.503 OA
ATOM     25  H   UNL     1      -3.730   3.431  -0.223  0.00  0.00    +0.292 HD
ENDBRANCH   8  24
BRANCH   7  26
ATOM     26  O   UNL     1      -0.682   1.547   1.184  0.00  0.00    -0.488 OA
ATOM     27  C   UNL     1      -0.013   1.086   0.008  0.00  0.00    +0.277 C 
ENDBRANCH   7  26
BRANCH   6  28
ATOM     28  O   UNL     1       1.278   2.925   2.527  0.00  0.00    -0.503 OA
ATOM     29  H   UNL     1       1.356   1.835   2.397  0.00  0.00    +0.292 HD
ENDBRANCH   6  28
TORSDOF 7
