REMARK  Name = ZINC65161999
REMARK  12 active torsions:
REMARK  status: ('A' for Active; 'I' for Inactive)
REMARK    1  A    between atoms: C_1  and  C_2
REMARK    2  A    between atoms: C_2  and  C_3
REMARK    3  A    between atoms: C_3  and  C_25
REMARK    4  A    between atoms: N_6  and  N_10
REMARK    5  A    between atoms: C_11  and  C_13
REMARK    6  A    between atoms: C_13  and  N_14
REMARK    7  A    between atoms: N_14  and  C_15
REMARK    8  A    between atoms: N_14  and  C_22
REMARK    9  A    between atoms: C_15  and  C_16
REMARK   10  A    between atoms: C_19  and  C_21
REMARK   11  A    between atoms: C_22  and  C_23
REMARK   12  A    between atoms: C_22  and  C_24
REMARK                            x       y       z     vdW  Elec       q    Type
REMARK                         _______ _______ _______ _____ _____    ______ ____
ROOT
ATOM      1  N   UNL     1       2.459  -3.518   0.663  0.00  0.00    -0.225 N 
ATOM      2  C   UNL     1       3.082  -4.013  -0.425  0.00  0.00    +0.213 C 
ATOM      3  O   UNL     1       2.880  -3.521  -1.515  0.00  0.00    -0.276 OA
ATOM      4  H   UNL     1       2.621  -3.911   1.535  0.00  0.00    +0.173 HD
ENDROOT
BRANCH   1   8
ATOM      5  C   UNL     1      -0.292  -1.131   0.408  0.00  0.00    +0.111 C 
ATOM      6  C   UNL     1       0.237  -2.539   0.593  0.00  0.00    +0.263 C 
ATOM      7  O   UNL     1      -0.412  -3.550   0.759  0.00  0.00    -0.271 OA
ATOM      8  N   UNL     1       1.579  -2.435   0.535  0.00  0.00    -0.137 N 
ATOM      9  C   UNL     1       1.968  -1.169   0.340  0.00  0.00    +0.326 C 
ATOM     10  O   UNL     1       3.131  -0.825   0.254  0.00  0.00    -0.251 OA
ATOM     11  N   UNL     1       0.928  -0.321   0.252  0.00  0.00    -0.284 N 
ATOM     12  C   UNL     1      -1.082  -0.683   1.639  0.00  0.00    +0.041 C 
ATOM     13  H   UNL     1       0.973   0.638   0.112  0.00  0.00    +0.151 HD
BRANCH   5  15
ATOM     14  C   UNL     1      -1.488   0.422  -1.142  0.00  0.00    +0.006 C 
ATOM     15  C   UNL     1      -1.161  -1.044  -0.849  0.00  0.00    +0.032 C 
ENDBRANCH   5  15
ENDBRANCH   1   8
BRANCH   2  16
ATOM     16  C   UNL     1       4.028  -5.177  -0.287  0.00  0.00    +0.021 C 
BRANCH  16  17
ATOM     17  N   UNL     1       4.714  -5.405  -1.566  0.00  0.00    +0.390 N 
ATOM     18  H   UNL     1       4.072  -5.237  -2.327  0.00  0.00    -0.080 HD
BRANCH  17  19
ATOM     19  C   UNL     1       5.857  -4.489  -1.679  0.00  0.00    -0.074 C 
ATOM     20  C   UNL     1       5.361  -3.043  -1.608  0.00  0.00    -0.013 C 
ATOM     21  C   UNL     1       6.834  -4.749  -0.532  0.00  0.00    -0.013 C 
ENDBRANCH  17  19
BRANCH  17  22
ATOM     22  C   UNL     1       5.191  -6.793  -1.626  0.00  0.00    -0.035 C 
BRANCH  22  23
ATOM     23  C   UNL     1       5.756  -7.072  -2.995  0.00  0.00    -0.026 A 
ATOM     24  C   UNL     1       7.044  -7.016  -3.414  0.00  0.00    +0.009 A 
ATOM     25  C   UNL     1       7.333  -7.317  -4.732  0.00  0.00    +0.011 A 
ATOM     26  C   UNL     1       6.321  -7.660  -5.566  0.00  0.00    -0.013 A 
ATOM     27  S   UNL     1       4.904  -7.569  -4.483  0.00  0.00    -0.100 S 
ATOM     28  C   UNL     1       6.377  -8.027  -7.026  0.00  0.00    +0.051 C 
ENDBRANCH  22  23
ENDBRANCH  17  22
ENDBRANCH  16  17
ENDBRANCH   2  16
TORSDOF 7
