REMARK  Name = ZINC20980453
REMARK  2 active torsions:
REMARK  status: ('A' for Active; 'I' for Inactive)
REMARK    1  A    between atoms: C_4  and  C_7
REMARK    2  A    between atoms: C_14  and  N_19
REMARK                            x       y       z     vdW  Elec       q    Type
REMARK                         _______ _______ _______ _____ _____    ______ ____
ROOT
ATOM      1  C   UNL     1       3.695  -0.684  -0.037  0.00  0.00    +0.250 C 
ATOM      2  O   UNL     1       4.738  -0.059  -0.044  0.00  0.00    -0.270 OA
ATOM      3  N   UNL     1       3.717  -2.032  -0.045  0.00  0.00    -0.261 N 
ATOM      4  C   UNL     1       4.927  -2.704  -0.060  0.00  0.00    +0.166 A 
ATOM      5  N   UNL     1       5.150  -3.998  -0.075  0.00  0.00    -0.225 NA
ATOM      6  C   UNL     1       6.395  -4.520  -0.090  0.00  0.00    +0.082 A 
ATOM      7  C   UNL     1       6.769  -5.884  -0.106  0.00  0.00    +0.051 A 
ATOM      8  C   UNL     1       8.096  -6.248  -0.119  0.00  0.00    +0.027 A 
ATOM      9  C   UNL     1       9.110  -5.293  -0.118  0.00  0.00    +0.024 A 
ATOM     10  C   UNL     1       8.774  -3.952  -0.103  0.00  0.00    +0.019 A 
ATOM     11  C   UNL     1       7.452  -3.582  -0.089  0.00  0.00    +0.041 A 
ATOM     12  S   UNL     1       6.583  -2.033  -0.074  0.00  0.00    -0.052 S 
ATOM     13  H   UNL     1       2.885  -2.530  -0.039  0.00  0.00    +0.157 HD
ENDROOT
BRANCH   1  17
ATOM     14  C   UNL     1      -0.017   1.379   0.010  0.00  0.00    +0.000 A 
ATOM     15  C   UNL     1       1.168   2.094   0.002  0.00  0.00    +0.001 A 
ATOM     16  C   UNL     1       2.377   1.430  -0.013  0.00  0.00    +0.013 A 
ATOM     17  C   UNL     1       2.404   0.034  -0.021  0.00  0.00    +0.037 A 
ATOM     18  C   UNL     1       1.204  -0.681  -0.013  0.00  0.00    +0.013 A 
ATOM     19  C   UNL     1       0.002  -0.004   0.002  0.00  0.00    +0.001 A 
ENDBRANCH   1  17
BRANCH   8  20
ATOM     20  N   UNL     1       8.434  -7.606  -0.135  0.00  0.00    -0.358 N 
ATOM     21  H   UNL     1       7.736  -8.280  -0.135  0.00  0.00    +0.142 HD
ATOM     22  H   UNL     1       9.366  -7.874  -0.144  0.00  0.00    +0.142 HD
ENDBRANCH   8  20
TORSDOF 2
