REMARK  Name = ZINC53006072
REMARK  6 active torsions:
REMARK  status: ('A' for Active; 'I' for Inactive)
REMARK    1  A    between atoms: C_1  and  C_2
REMARK    2  A    between atoms: C_5  and  N_21
REMARK    3  A    between atoms: C_6  and  C_8
REMARK    4  A    between atoms: N_10  and  C_11
REMARK    5  A    between atoms: C_11  and  C_12
REMARK    6  A    between atoms: C_16  and  N_18
REMARK                            x       y       z     vdW  Elec       q    Type
REMARK                         _______ _______ _______ _____ _____    ______ ____
ROOT
ATOM      1  C   UNL     1       0.030  -3.080   2.302  0.00  0.00    +0.246 C 
ATOM      2  O   UNL     1       0.133  -4.285   2.174  0.00  0.00    -0.270 OA
ATOM      3  N   UNL     1      -0.079  -2.540   3.532  0.00  0.00    -0.307 N 
ATOM      4  H   UNL     1      -0.161  -1.578   3.634  0.00  0.00    +0.149 HD
ENDROOT
BRANCH   1  10
ATOM      5  C   UNL     1       0.023   1.486   0.299  0.00  0.00    +0.044 C 
ATOM      6  C   UNL     1       0.022  -0.013   0.140  0.00  0.00    -0.050 A 
ATOM      7  C   UNL     1       0.016  -0.571  -1.128  0.00  0.00    +0.005 A 
ATOM      8  C   UNL     1       0.014  -1.942  -1.288  0.00  0.00    +0.024 A 
ATOM      9  C   UNL     1       0.019  -2.772  -0.174  0.00  0.00    +0.037 A 
ATOM     10  C   UNL     1       0.025  -2.210   1.111  0.00  0.00    +0.058 A 
ATOM     11  C   UNL     1       0.033  -0.820   1.256  0.00  0.00    +0.018 A 
BRANCH   9  12
ATOM     12  N   UNL     1       0.016  -4.152  -0.333  0.00  0.00    -0.357 N 
ATOM     13  H   UNL     1      -0.070  -4.538  -1.218  0.00  0.00    +0.142 HD
ATOM     14  H   UNL     1       0.101  -4.729   0.442  0.00  0.00    +0.142 HD
ENDBRANCH   9  12
ENDBRANCH   1  10
BRANCH   3  15
ATOM     15  C   UNL     1      -0.074  -3.404   4.714  0.00  0.00    +0.140 C 
BRANCH  15  16
ATOM     16  C   UNL     1      -0.208  -2.559   5.955  0.00  0.00    -0.028 A 
ATOM     17  C   UNL     1       0.922  -2.072   6.585  0.00  0.00    +0.005 A 
ATOM     18  C   UNL     1       0.800  -1.297   7.723  0.00  0.00    +0.003 A 
ATOM     19  C   UNL     1      -0.453  -1.008   8.230  0.00  0.00    +0.033 A 
ATOM     20  C   UNL     1      -1.583  -1.494   7.600  0.00  0.00    +0.127 A 
ATOM     21  C   UNL     1      -1.461  -2.266   6.460  0.00  0.00    +0.038 A 
BRANCH  20  22
ATOM     22  N   UNL     1      -2.925  -1.185   8.144  0.00  0.00    +0.056 N 
ATOM     23  O   UNL     1      -3.032  -0.507   9.140  0.00  0.00    -0.126 OA
ATOM     24  O   UNL     1      -3.913  -1.610   7.593  0.00  0.00    -0.126 OA
ENDBRANCH  20  22
ENDBRANCH  15  16
ENDBRANCH   3  15
TORSDOF 5
