REMARK  Name = ZINC63807137
REMARK  5 active torsions:
REMARK  status: ('A' for Active; 'I' for Inactive)
REMARK    1  A    between atoms: N_9  and  C_12
REMARK    2  A    between atoms: C_12  and  C_13
REMARK    3  A    between atoms: N_15  and  C_16
REMARK    4  A    between atoms: C_16  and  C_17
REMARK    5  A    between atoms: C_17  and  N_19
REMARK                            x       y       z     vdW  Elec       q    Type
REMARK                         _______ _______ _______ _____ _____    ______ ____
ROOT
ATOM      1  C   UNL     1       3.131  -4.462  -1.332  0.00  0.00    +0.232 C 
ATOM      2  O   UNL     1       3.250  -3.580  -2.157  0.00  0.00    -0.274 OA
ATOM      3  N   UNL     1       3.351  -5.745  -1.681  0.00  0.00    -0.305 N 
ATOM      4  H   UNL     1       3.256  -6.449  -1.021  0.00  0.00    +0.149 HD
ENDROOT
BRANCH   1   5
ATOM      5  C   UNL     1       2.738  -4.121   0.082  0.00  0.00    +0.224 C 
BRANCH   5  14
ATOM      6  C   UNL     1      -0.017   1.377   0.010  0.00  0.00    +0.001 A 
ATOM      7  C   UNL     1       1.168   2.097   0.002  0.00  0.00    +0.002 A 
ATOM      8  C   UNL     1       2.389   1.449  -0.011  0.00  0.00    +0.025 A 
ATOM      9  C   UNL     1       2.425   0.067  -0.018  0.00  0.00    +0.055 A 
ATOM     10  C   UNL     1       1.222  -0.666  -0.013  0.00  0.00    +0.060 A 
ATOM     11  C   UNL     1       0.002  -0.004   0.002  0.00  0.00    +0.015 A 
ATOM     12  C   UNL     1       1.338  -2.138  -0.030  0.00  0.00    +0.264 C 
ATOM     13  O   UNL     1       0.372  -2.844  -0.246  0.00  0.00    -0.269 OA
ATOM     14  N   UNL     1       2.558  -2.672   0.204  0.00  0.00    -0.208 N 
ATOM     15  N   UNL     1       3.624  -1.900   0.550  0.00  0.00    -0.158 NA
ATOM     16  N   UNL     1       3.609  -0.660  -0.027  0.00  0.00    -0.264 N 
ATOM     17  H   UNL     1       3.710  -1.831   1.553  0.00  0.00    +0.168 HD
ATOM     18  H   UNL     1       4.410  -0.294  -0.434  0.00  0.00    +0.168 HD
ENDBRANCH   5  14
ENDBRANCH   1   5
BRANCH   3  19
ATOM     19  C   UNL     1       3.733  -6.075  -3.056  0.00  0.00    +0.202 C 
BRANCH  19  20
ATOM     20  C   UNL     1       3.918  -7.566  -3.181  0.00  0.00    +0.256 C 
ATOM     21  O   UNL     1       3.747  -8.283  -2.214  0.00  0.00    -0.272 OA
BRANCH  20  22
ATOM     22  N   UNL     1       4.268  -8.096  -4.348  0.00  0.00    -0.155 NA
ATOM     23  C   UNL     1       4.431  -9.413  -4.459  0.00  0.00    +0.164 A 
ATOM     24  N   UNL     1       4.789 -10.117  -5.562  0.00  0.00    -0.335 N 
ATOM     25  H   UNL     1       4.958  -9.657  -6.399  0.00  0.00    +0.168 HD
ATOM     26  C   UNL     1       4.911 -11.492  -5.491  0.00  0.00    +0.055 A 
ATOM     27  C   UNL     1       5.264 -12.403  -6.496  0.00  0.00    +0.027 A 
ATOM     28  C   UNL     1       5.332 -13.750  -6.228  0.00  0.00    +0.002 A 
ATOM     29  C   UNL     1       5.056 -14.244  -4.964  0.00  0.00    +0.001 A 
ATOM     30  C   UNL     1       4.705 -13.366  -3.954  0.00  0.00    +0.017 A 
ATOM     31  C   UNL     1       4.637 -12.019  -4.221  0.00  0.00    +0.039 A 
ATOM     32  S   UNL     1       4.248 -10.578  -3.262  0.00  0.00    -0.052 S 
ENDBRANCH  20  22
ENDBRANCH  19  20
ENDBRANCH   3  19
TORSDOF 5
