REMARK  Name = ZINC64380809
REMARK  8 active torsions:
REMARK  status: ('A' for Active; 'I' for Inactive)
REMARK    1  A    between atoms: C_1  and  C_2
REMARK    2  A    between atoms: C_2  and  C_4
REMARK    3  A    between atoms: C_2  and  N_14
REMARK    4  A    between atoms: C_4  and  C_5
REMARK    5  A    between atoms: C_15  and  C_17
REMARK    6  A    between atoms: C_17  and  C_18
REMARK    7  A    between atoms: C_18  and  N_19
REMARK    8  A    between atoms: C_20  and  O_31
REMARK                            x       y       z     vdW  Elec       q    Type
REMARK                         _______ _______ _______ _____ _____    ______ ____
ROOT
ATOM      1  N   UNL     1      -1.372  -0.511   0.012  0.00  0.00    -0.312 N 
ATOM      2  C   UNL     1      -2.029  -0.655   1.181  0.00  0.00    +0.215 C 
ATOM      3  O   UNL     1      -1.481  -0.365   2.224  0.00  0.00    -0.276 OA
ATOM      4  H   UNL     1      -1.810  -0.743  -0.822  0.00  0.00    +0.149 HD
ENDROOT
BRANCH   1   6
ATOM      5  C   UNL     1      -0.019   1.526   0.010  0.00  0.00    +0.028 C 
ATOM      6  C   UNL     1       0.002  -0.004   0.002  0.00  0.00    +0.074 C 
BRANCH   6   7
ATOM      7  C   UNL     1       0.718  -0.497  -1.257  0.00  0.00    +0.055 C 
BRANCH   7   8
ATOM      8  C   UNL     1       0.847  -1.998  -1.206  0.00  0.00    -0.040 C 
ATOM      9  C   UNL     1       0.016  -2.905  -1.767  0.00  0.00    -0.001 A 
ATOM     10  C   UNL     1      -1.211  -2.772  -2.561  0.00  0.00    +0.010 A 
ATOM     11  C   UNL     1      -1.838  -3.890  -2.993  0.00  0.00    +0.001 A 
ATOM     12  C   UNL     1      -1.347  -5.170  -2.701  0.00  0.00    +0.002 A 
ATOM     13  C   UNL     1      -0.226  -5.373  -1.977  0.00  0.00    +0.026 A 
ATOM     14  C   UNL     1       0.514  -4.268  -1.473  0.00  0.00    +0.043 A 
ATOM     15  N   UNL     1       1.611  -4.205  -0.758  0.00  0.00    -0.380 N 
ATOM     16  C   UNL     1       1.936  -2.794  -0.522  0.00  0.00    +0.144 C 
ATOM     17  H   UNL     1       2.124  -4.965  -0.441  0.00  0.00    +0.160 HD
ENDBRANCH   7   8
ENDBRANCH   6   7
ENDBRANCH   1   6
BRANCH   2  18
ATOM     18  C   UNL     1      -3.442  -1.177   1.191  0.00  0.00    +0.115 C 
BRANCH  18  19
ATOM     19  C   UNL     1      -3.951  -1.243   2.633  0.00  0.00    +0.121 C 
BRANCH  19  20
ATOM     20  N   UNL     1      -5.325  -1.750   2.643  0.00  0.00    -0.256 N 
ATOM     21  C   UNL     1      -6.439  -0.807   2.542  0.00  0.00    +0.299 C 
ATOM     22  N   UNL     1      -7.607  -1.320   3.268  0.00  0.00    -0.303 N 
ATOM     23  C   UNL     1      -7.952  -2.658   3.111  0.00  0.00    +0.042 A 
ATOM     24  C   UNL     1      -9.261  -3.095   3.215  0.00  0.00    +0.024 A 
ATOM     25  C   UNL     1      -9.549  -4.436   3.047  0.00  0.00    +0.002 A 
ATOM     26  C   UNL     1      -8.539  -5.346   2.776  0.00  0.00    +0.001 A 
ATOM     27  C   UNL     1      -7.229  -4.927   2.671  0.00  0.00    +0.015 A 
ATOM     28  C   UNL     1      -6.924  -3.579   2.839  0.00  0.00    +0.058 A 
ATOM     29  C   UNL     1      -5.540  -3.079   2.741  0.00  0.00    +0.251 C 
ATOM     30  O   UNL     1      -4.604  -3.854   2.751  0.00  0.00    -0.270 OA
ATOM     31  H   UNL     1      -8.128  -0.739   3.843  0.00  0.00    +0.150 HD
BRANCH  21  32
ATOM     32  O   UNL     1      -6.782  -0.627   1.167  0.00  0.00    -0.359 OA
ATOM     33  H   UNL     1      -7.515  -0.013   1.022  0.00  0.00    +0.213 HD
ENDBRANCH  21  32
ENDBRANCH  19  20
ENDBRANCH  18  19
ENDBRANCH   2  18
TORSDOF 7
