REMARK  Name = ZINC66143043
REMARK  7 active torsions:
REMARK  status: ('A' for Active; 'I' for Inactive)
REMARK    1  A    between atoms: C_1  and  C_2
REMARK    2  A    between atoms: N_4  and  C_5
REMARK    3  A    between atoms: C_8  and  O_25
REMARK    4  A    between atoms: C_9  and  C_11
REMARK    5  A    between atoms: C_17  and  C_20
REMARK    6  A    between atoms: C_20  and  C_21
REMARK    7  A    between atoms: C_21  and  C_22
REMARK                            x       y       z     vdW  Elec       q    Type
REMARK                         _______ _______ _______ _____ _____    ______ ____
ROOT
ATOM      1  C   UNL     1      -3.989  -4.884   0.034  0.00  0.00    +0.250 C 
ATOM      2  O   UNL     1      -3.001  -4.176  -0.002  0.00  0.00    -0.270 OA
ATOM      3  N   UNL     1      -5.215  -4.329   0.105  0.00  0.00    -0.297 N 
ATOM      4  C   UNL     1      -5.371  -2.872   0.217  0.00  0.00    +0.108 C 
ATOM      5  C   UNL     1      -6.250  -2.562   1.432  0.00  0.00    +0.019 C 
ATOM      6  C   UNL     1      -7.569  -3.328   1.312  0.00  0.00    +0.006 C 
ATOM      7  C   UNL     1      -7.287  -4.832   1.290  0.00  0.00    +0.007 C 
ATOM      8  C   UNL     1      -6.420  -5.168   0.068  0.00  0.00    +0.111 C 
ENDROOT
BRANCH   1  13
ATOM      9  C   UNL     1      -4.404  -8.480  -0.977  0.00  0.00    +0.034 A 
ATOM     10  C   UNL     1      -3.570  -9.116  -0.063  0.00  0.00    +0.027 A 
ATOM     11  C   UNL     1      -2.877  -8.380   0.877  0.00  0.00    +0.048 A 
ATOM     12  C   UNL     1      -3.007  -7.000   0.916  0.00  0.00    +0.129 A 
ATOM     13  C   UNL     1      -3.845  -6.352  -0.002  0.00  0.00    +0.080 A 
ATOM     14  C   UNL     1      -4.540  -7.103  -0.953  0.00  0.00    +0.040 A 
BRANCH   9  18
ATOM     15  C   UNL     1      -6.413 -11.226  -2.593  0.00  0.00    +0.109 C 
ATOM     16  C   UNL     1      -5.585 -10.451  -1.600  0.00  0.00    +0.214 C 
ATOM     17  O   UNL     1      -5.350 -10.923  -0.508  0.00  0.00    -0.276 OA
ATOM     18  N   UNL     1      -5.104  -9.235  -1.927  0.00  0.00    -0.286 N 
ATOM     19  H   UNL     1      -5.244  -8.882  -2.820  0.00  0.00    +0.155 HD
ENDBRANCH   9  18
BRANCH  12  20
ATOM     20  O   UNL     1      -2.325  -6.278   1.841  0.00  0.00    -0.506 OA
ATOM     21  H   UNL     1      -1.450  -5.989   1.547  0.00  0.00    +0.292 HD
ENDBRANCH  12  20
ENDBRANCH   1  13
BRANCH   7  22
ATOM     22  C   UNL     1      -8.609  -5.598   1.204  0.00  0.00    +0.014 C 
BRANCH  22  23
ATOM     23  C   UNL     1      -8.336  -7.100   1.308  0.00  0.00    +0.096 C 
BRANCH  23  24
ATOM     24  C   UNL     1      -9.637  -7.855   1.223  0.00  0.00    +0.210 C 
ATOM     25  O   UNL     1     -10.681  -7.251   1.091  0.00  0.00    -0.276 OA
ATOM     26  N   UNL     1      -9.642  -9.201   1.292  0.00  0.00    -0.329 N 
ATOM     27  H   UNL     1      -8.807  -9.684   1.397  0.00  0.00    +0.145 HD
ATOM     28  H   UNL     1     -10.480  -9.687   1.237  0.00  0.00    +0.145 HD
ENDBRANCH  23  24
ENDBRANCH  22  23
ENDBRANCH   7  22
TORSDOF 6
