REMARK  Name = ZINC62552544
REMARK  4 active torsions:
REMARK  status: ('A' for Active; 'I' for Inactive)
REMARK    1  A    between atoms: C_7  and  O_23
REMARK    2  A    between atoms: C_12  and  C_14
REMARK    3  A    between atoms: C_14  and  O_15
REMARK    4  A    between atoms: O_15  and  C_16
REMARK                            x       y       z     vdW  Elec       q    Type
REMARK                         _______ _______ _______ _____ _____    ______ ____
ROOT
ATOM      1  C   UNL     1      -0.007   1.393   0.081  0.00  0.00    +0.000 A 
ATOM      2  C   UNL     1       1.183   2.099   0.069  0.00  0.00    +0.002 A 
ATOM      3  C   UNL     1       2.385   1.421   0.030  0.00  0.00    +0.024 A 
ATOM      4  C   UNL     1       2.400   0.031   0.003  0.00  0.00    +0.042 A 
ATOM      5  C   UNL     1       1.208  -0.675   0.019  0.00  0.00    +0.002 A 
ATOM      6  C   UNL     1       0.006   0.012   0.056  0.00  0.00    +0.008 A 
ATOM      7  C   UNL     1       1.186  -2.181   0.002  0.00  0.00    +0.148 C 
ATOM      8  C   UNL     1       2.507  -2.730  -0.537  0.00  0.00    +0.055 C 
ATOM      9  C   UNL     1       3.665  -2.081   0.231  0.00  0.00    +0.116 C 
ATOM     10  N   UNL     1       3.631  -0.637  -0.041  0.00  0.00    -0.268 N 
ATOM     11  C   UNL     1       4.764   0.033  -0.330  0.00  0.00    +0.257 C 
ATOM     12  O   UNL     1       4.712   1.198  -0.661  0.00  0.00    -0.272 OA
ENDROOT
BRANCH   7  13
ATOM     13  O   UNL     1       0.115  -2.628  -0.832  0.00  0.00    -0.387 OA
ATOM     14  H   UNL     1      -0.759  -2.331  -0.543  0.00  0.00    +0.210 HD
ENDBRANCH   7  13
BRANCH  11  15
ATOM     15  C   UNL     1       6.096  -0.667  -0.240  0.00  0.00    +0.325 C 
BRANCH  15  16
ATOM     16  O   UNL     1       7.145   0.276  -0.472  0.00  0.00    -0.483 OA
BRANCH  16  17
ATOM     17  C   UNL     1       8.419  -0.196  -0.426  0.00  0.00    +0.121 A 
ATOM     18  C   UNL     1       8.654  -1.539  -0.169  0.00  0.00    +0.047 A 
ATOM     19  C   UNL     1       9.950  -2.016  -0.123  0.00  0.00    +0.023 A 
ATOM     20  C   UNL     1      11.013  -1.156  -0.332  0.00  0.00    +0.041 A 
ATOM     21  C   UNL     1      10.781   0.184  -0.588  0.00  0.00    +0.023 A 
ATOM     22  C   UNL     1       9.486   0.664  -0.641  0.00  0.00    +0.047 A 
ATOM     23 CL   UNL     1      12.640  -1.758  -0.273  0.00  0.00    -0.084 Cl
ENDBRANCH  16  17
ENDBRANCH  15  16
ENDBRANCH  11  15
TORSDOF 4
