REMARK  Name = ZINC21741995
REMARK  7 active torsions:
REMARK  status: ('A' for Active; 'I' for Inactive)
REMARK    1  A    between atoms: C_1  and  N_2
REMARK    2  A    between atoms: C_6  and  C_8
REMARK    3  A    between atoms: C_8  and  C_10
REMARK    4  A    between atoms: C_8  and  O_16
REMARK    5  A    between atoms: O_16  and  C_17
REMARK    6  A    between atoms: C_17  and  C_19
REMARK    7  A    between atoms: C_24  and  N_25
REMARK                            x       y       z     vdW  Elec       q    Type
REMARK                         _______ _______ _______ _____ _____    ______ ____
ROOT
ATOM      1  C   UNL     1       2.539   1.879  -0.458  0.00  0.00    +0.292 C 
ENDROOT
BRANCH   1   7
ATOM      2  C   UNL     1       2.234   0.484   5.503  0.00  0.00    +0.129 C 
ATOM      3  N   UNL     1       2.358   0.252   4.062  0.00  0.00    -0.302 N 
ATOM      4  C   UNL     1       2.328   1.292   3.206  0.00  0.00    +0.306 C 
ATOM      5  O   UNL     1       2.198   2.424   3.630  0.00  0.00    -0.252 OA
ATOM      6  N   UNL     1       2.442   1.078   1.880  0.00  0.00    -0.237 N 
ATOM      7  C   UNL     1       2.412   2.119   1.024  0.00  0.00    +0.266 C 
ATOM      8  O   UNL     1       2.282   3.248   1.447  0.00  0.00    -0.271 OA
ATOM      9  H   UNL     1       2.475  -0.773   3.678  0.00  0.00    +0.150 HD
ATOM     10  H   UNL     1       2.560   0.054   1.497  0.00  0.00    +0.159 HD
ENDBRANCH   1   7
BRANCH   1  11
ATOM     11  C   UNL     1       1.347   1.096  -0.945  0.00  0.00    +0.002 A 
ATOM     12  C   UNL     1       0.180   1.754  -1.284  0.00  0.00    +0.008 A 
ATOM     13  C   UNL     1      -0.914   1.036  -1.730  0.00  0.00    +0.000 A 
ATOM     14  C   UNL     1      -0.840  -0.340  -1.836  0.00  0.00    +0.000 A 
ATOM     15  C   UNL     1       0.327  -0.999  -1.496  0.00  0.00    +0.000 A 
ATOM     16  C   UNL     1       1.421  -0.280  -1.050  0.00  0.00    +0.008 A 
ENDBRANCH   1  11
BRANCH   1  17
ATOM     17  O   UNL     1       2.597   3.154  -1.151  0.00  0.00    -0.443 OA
BRANCH  17  18
ATOM     18  C   UNL     1       3.298   3.194  -2.301  0.00  0.00    +0.342 C 
ATOM     19  O   UNL     1       3.847   2.191  -2.713  0.00  0.00    -0.245 OA
BRANCH  18  20
ATOM     20  C   UNL     1       3.400   4.453  -3.058  0.00  0.00    +0.081 A 
ATOM     21  C   UNL     1       2.878   5.636  -2.529  0.00  0.00    +0.032 A 
ATOM     22  C   UNL     1       2.981   6.812  -3.240  0.00  0.00    +0.019 A 
ATOM     23  C   UNL     1       3.592   6.826  -4.485  0.00  0.00    +0.017 A 
ATOM     24  C   UNL     1       4.108   5.665  -5.024  0.00  0.00    +0.024 A 
ATOM     25  C   UNL     1       4.018   4.471  -4.319  0.00  0.00    +0.039 A 
ATOM     26 BR   UNL     1       2.279   8.413  -2.519  0.00  0.00    -0.050 Br
BRANCH  25  27
ATOM     27  N   UNL     1       4.535   3.301  -4.859  0.00  0.00    -0.357 N 
ATOM     28  H   UNL     1       5.019   3.319  -5.848  0.00  0.00    +0.142 HD
ATOM     29  H   UNL     1       4.462   2.357  -4.300  0.00  0.00    +0.142 HD
ENDBRANCH  25  27
ENDBRANCH  18  20
ENDBRANCH  17  18
ENDBRANCH   1  17
TORSDOF 6
