REMARK  Name = ZINC08966309
REMARK  6 active torsions:
REMARK  status: ('A' for Active; 'I' for Inactive)
REMARK    1  A    between atoms: C_1  and  C_2
REMARK    2  A    between atoms: C_3  and  C_31
REMARK    3  A    between atoms: C_13  and  C_14
REMARK    4  A    between atoms: C_15  and  C_28
REMARK    5  A    between atoms: N_17  and  C_20
REMARK    6  A    between atoms: C_18  and  C_19
REMARK                            x       y       z     vdW  Elec       q    Type
REMARK                         _______ _______ _______ _____ _____    ______ ____
ROOT
ATOM      1  C   UNL     1       2.764  -0.926  13.005  0.00  0.00    +0.045 C 
ATOM      2  C   UNL     1       3.320  -0.143  11.844  0.00  0.00    -0.026 A 
ATOM      3  C   UNL     1       4.399   0.640  12.008  0.00  0.00    -0.008 A 
ATOM      4  S   UNL     1       4.657   1.334  10.386  0.00  0.00    -0.073 S 
ATOM      5  C   UNL     1       3.310   0.553   9.535  0.00  0.00    +0.116 A 
ATOM      6  C   UNL     1       2.697  -0.226  10.536  0.00  0.00    +0.075 A 
ATOM      7  C   UNL     1       1.555  -0.981  10.123  0.00  0.00    +0.263 A 
ATOM      8  O   UNL     1       0.963  -1.683  10.924  0.00  0.00    -0.267 OA
ATOM      9  N   UNL     1       1.136  -0.912   8.838  0.00  0.00    -0.292 N 
ATOM     10  C   UNL     1       1.792  -0.129   7.928  0.00  0.00    +0.141 A 
ATOM     11  N   UNL     1       2.854   0.581   8.294  0.00  0.00    -0.222 NA
ATOM     12  C   UNL     1       1.160  -0.214   6.608  0.00  0.00    -0.002 C 
ATOM     13  C   UNL     1       1.552   0.430   5.490  0.00  0.00    +0.018 C 
ATOM     14  C   UNL     1      -0.017  -1.153   6.736  0.00  0.00    +0.060 C 
ATOM     15  C   UNL     1      -0.001  -1.597   8.204  0.00  0.00    +0.131 C 
ATOM     16  C   UNL     1       5.199   0.876  13.263  0.00  0.00    +0.052 C 
ENDROOT
BRANCH  13  17
ATOM     17  C   UNL     1       0.735   0.348   4.269  0.00  0.00    +0.019 A 
ATOM     18  C   UNL     1       1.147  -0.159   3.015  0.00  0.00    +0.067 A 
ATOM     19  N   UNL     1       0.141  -0.067   2.191  0.00  0.00    -0.175 NA
ATOM     20  N   UNL     1      -0.946   0.504   2.862  0.00  0.00    -0.263 N 
ATOM     21  C   UNL     1      -0.579   0.753   4.133  0.00  0.00    +0.044 A 
ATOM     22  C   UNL     1      -1.442   1.360   5.209  0.00  0.00    +0.066 C 
ATOM     23  C   UNL     1       2.510  -0.715   2.690  0.00  0.00    +0.068 C 
BRANCH  20  24
ATOM     24  C   UNL     1      -2.263   0.779   2.282  0.00  0.00    +0.130 C 
ATOM     25  C   UNL     1      -2.118   1.758   1.105  0.00  0.00    +0.051 C 
ATOM     26  C   UNL     1      -3.434   1.804   0.293  0.00  0.00    +0.168 C 
ATOM     27  S   UNL     1      -4.144   0.132   0.581  0.00  0.00    -0.029 S 
ATOM     28  O   UNL     1      -5.381   0.267   1.268  0.00  0.00    -0.174 OA
ATOM     29  O   UNL     1      -4.096  -0.606  -0.633  0.00  0.00    -0.174 OA
ATOM     30  C   UNL     1      -2.883  -0.540   1.743  0.00  0.00    +0.192 C 
ENDBRANCH  20  24
ENDBRANCH  13  17
TORSDOF 2
