REMARK  Name = ZINC04151639
REMARK  13 active torsions:
REMARK  status: ('A' for Active; 'I' for Inactive)
REMARK    1  A    between atoms: C_1  and  C_2
REMARK    2  A    between atoms: C_2  and  C_3
REMARK    3  A    between atoms: C_2  and  C_4
REMARK    4  A    between atoms: C_4  and  C_6
REMARK    5  A    between atoms: C_4  and  N_9
REMARK    6  A    between atoms: C_10  and  C_12
REMARK    7  A    between atoms: C_14  and  N_24
REMARK    8  A    between atoms: C_19  and  C_21
REMARK    9  A    between atoms: C_21  and  S_22
REMARK   10  A    between atoms: S_22  and  C_23
REMARK   11  A    between atoms: N_27  and  C_28
REMARK   12  A    between atoms: C_32  and  S_34
REMARK   13  A    between atoms: S_34  and  C_35
REMARK                            x       y       z     vdW  Elec       q    Type
REMARK                         _______ _______ _______ _____ _____    ______ ____
ROOT
ATOM      1  C   UNL     1       0.909  -0.455   0.331  0.00  0.00    +0.182 C 
ATOM      2  C   UNL     1       1.486  -0.721  -1.076  0.00  0.00    +0.105 C 
ATOM      3  C   UNL     1       1.772  -2.245  -1.052  0.00  0.00    +0.043 C 
ATOM      4  C   UNL     1       0.596  -2.769  -0.191  0.00  0.00    +0.110 C 
ATOM      5  N   UNL     1       0.392  -1.734   0.839  0.00  0.00    -0.287 N 
ATOM      6  C   UNL     1      -0.175  -1.928   2.046  0.00  0.00    +0.226 C 
ATOM      7  O   UNL     1      -0.293  -0.999   2.817  0.00  0.00    -0.275 OA
ENDROOT
BRANCH   2   8
ATOM      8  N   UNL     1       2.723   0.036  -1.280  0.00  0.00    -0.294 N 
ATOM      9  C   UNL     1       3.116   0.362  -2.528  0.00  0.00    +0.304 C 
ATOM     10  O   UNL     1       2.443   0.027  -3.484  0.00  0.00    -0.252 OA
ATOM     11  N   UNL     1       4.255   1.058  -2.716  0.00  0.00    -0.269 N 
ATOM     12  H   UNL     1       3.260   0.303  -0.518  0.00  0.00    +0.151 HD
ATOM     13  H   UNL     1       4.752   1.390  -1.952  0.00  0.00    +0.156 HD
BRANCH  11  14
ATOM     14  C   UNL     1       4.719   1.302  -4.013  0.00  0.00    +0.036 A 
ATOM     15  C   UNL     1       5.395   2.483  -4.299  0.00  0.00    +0.023 A 
ATOM     16  C   UNL     1       5.854   2.725  -5.579  0.00  0.00    +0.003 A 
ATOM     17  C   UNL     1       5.644   1.796  -6.580  0.00  0.00    +0.015 A 
ATOM     18  C   UNL     1       4.970   0.613  -6.300  0.00  0.00    +0.009 A 
ATOM     19  C   UNL     1       4.511   0.364  -5.013  0.00  0.00    +0.038 A 
BRANCH  18  20
ATOM     20  S   UNL     1       4.703  -0.573  -7.576  0.00  0.00    -0.129 S 
ATOM     21  C   UNL     1       5.469   0.177  -9.039  0.00  0.00    +0.090 C 
ENDBRANCH  18  20
ENDBRANCH  11  14
ENDBRANCH   2   8
BRANCH   1  23
ATOM     22  N   UNL     1       0.074   1.868   0.170  0.00  0.00    -0.302 N 
ATOM     23  C   UNL     1      -0.209   0.552   0.245  0.00  0.00    +0.236 C 
ATOM     24  O   UNL     1      -1.363   0.178   0.243  0.00  0.00    -0.274 OA
ATOM     25  H   UNL     1       0.997   2.166   0.171  0.00  0.00    +0.150 HD
BRANCH  22  26
ATOM     26  C   UNL     1      -1.012   2.846   0.081  0.00  0.00    +0.161 C 
BRANCH  26  27
ATOM     27  C   UNL     1      -1.505   3.178   1.466  0.00  0.00    +0.231 C 
ATOM     28  O   UNL     1      -0.759   3.073   2.416  0.00  0.00    -0.274 OA
ATOM     29  N   UNL     1      -2.775   3.592   1.648  0.00  0.00    -0.328 N 
ATOM     30  H   UNL     1      -3.392   3.607   0.900  0.00  0.00    +0.145 HD
ATOM     31  H   UNL     1      -3.071   3.873   2.528  0.00  0.00    +0.145 HD
ENDBRANCH  26  27
BRANCH  26  33
ATOM     32  C   UNL     1       0.093   3.766  -1.963  0.00  0.00    +0.009 C 
ATOM     33  C   UNL     1      -0.499   4.118  -0.597  0.00  0.00    +0.012 C 
ATOM     34  C   UNL     1      -1.656   5.101  -0.780  0.00  0.00    +0.009 C 
ENDBRANCH  26  33
ENDBRANCH  22  26
ENDBRANCH   1  23
BRANCH   6  35
ATOM     35  C   UNL     1      -0.663  -3.299   2.438  0.00  0.00    +0.164 C 
BRANCH  35  36
ATOM     36  S   UNL     1      -1.371  -3.235   4.107  0.00  0.00    -0.155 S 
ATOM     37  C   UNL     1      -1.904  -4.939   4.423  0.00  0.00    +0.085 C 
ENDBRANCH  35  36
ENDBRANCH   6  35
TORSDOF 9
