REMARK  Name = ZINC34779524
REMARK  10 active torsions:
REMARK  status: ('A' for Active; 'I' for Inactive)
REMARK    1  A    between atoms: C_1  and  C_2
REMARK    2  A    between atoms: C_2  and  C_3
REMARK    3  A    between atoms: C_3  and  N_4
REMARK    4  A    between atoms: C_8  and  C_28
REMARK    5  A    between atoms: C_9  and  C_24
REMARK    6  A    between atoms: N_12  and  C_15
REMARK    7  A    between atoms: C_15  and  C_16
REMARK    8  A    between atoms: C_18  and  C_23
REMARK    9  A    between atoms: C_21  and  C_22
REMARK   10  A    between atoms: N_26  and  N_27
REMARK                            x       y       z     vdW  Elec       q    Type
REMARK                         _______ _______ _______ _____ _____    ______ ____
ROOT
ATOM      1  N   UNL     1       0.672  -2.088   1.273  0.00  0.00    -0.260 N 
ATOM      2  C   UNL     1      -0.307  -2.793   1.866  0.00  0.00    +0.265 A 
ATOM      3  O   UNL     1      -1.236  -2.223   2.408  0.00  0.00    -0.267 OA
ATOM      4  C   UNL     1      -0.242  -4.275   1.852  0.00  0.00    +0.074 A 
ATOM      5  C   UNL     1      -1.143  -5.195   2.402  0.00  0.00    -0.017 A 
ATOM      6  C   UNL     1      -0.851  -6.520   2.251  0.00  0.00    +0.081 A 
ATOM      7  S   UNL     1       0.681  -6.481   1.341  0.00  0.00    -0.065 S 
ATOM      8  C   UNL     1       0.871  -4.827   1.201  0.00  0.00    +0.098 A 
ATOM      9  N   UNL     1       1.819  -4.029   0.625  0.00  0.00    -0.283 N 
ATOM     10  C   UNL     1       1.707  -2.689   0.663  0.00  0.00    +0.333 A 
ATOM     11  O   UNL     1       2.564  -2.006   0.138  0.00  0.00    -0.246 OA
ATOM     12  C   UNL     1      -2.382  -4.742   3.131  0.00  0.00    +0.046 C 
ENDROOT
BRANCH   6  13
ATOM     13  C   UNL     1      -1.607  -7.683   2.719  0.00  0.00    +0.264 C 
ATOM     14  O   UNL     1      -2.647  -7.526   3.333  0.00  0.00    -0.268 OA
ATOM     15  N   UNL     1      -1.153  -8.927   2.470  0.00  0.00    -0.249 N 
ATOM     16  H   UNL     1      -0.326  -9.052   1.980  0.00  0.00    +0.169 HD
BRANCH  15  17
ATOM     17  N   UNL     1      -1.859 -10.012   2.907  0.00  0.00    -0.254 NA
ATOM     18  H   UNL     1      -2.807  -9.991   2.560  0.00  0.00    +0.140 HD
ATOM     19  H   UNL     1      -1.399 -10.872   2.647  0.00  0.00    +0.140 HD
ENDBRANCH  15  17
ENDBRANCH   6  13
BRANCH   1  20
ATOM     20  C   UNL     1       0.606  -0.625   1.288  0.00  0.00    +0.130 C 
BRANCH  20  22
ATOM     21  C   UNL     1      -0.229   1.392   0.071  0.00  0.00    +0.005 C 
ATOM     22  C   UNL     1      -0.159  -0.137   0.056  0.00  0.00    +0.018 C 
ENDBRANCH  20  22
ENDBRANCH   1  20
BRANCH   9  23
ATOM     23  C   UNL     1       2.968  -4.641  -0.046  0.00  0.00    +0.162 C 
BRANCH  23  24
ATOM     24  C   UNL     1       2.605  -4.959  -1.474  0.00  0.00    -0.024 A 
ATOM     25  C   UNL     1       1.386  -4.552  -1.984  0.00  0.00    +0.009 A 
ATOM     26  C   UNL     1       1.052  -4.844  -3.293  0.00  0.00    -0.050 A 
ATOM     27  C   UNL     1       1.938  -5.542  -4.093  0.00  0.00    +0.003 A 
ATOM     28  C   UNL     1       3.157  -5.948  -3.583  0.00  0.00    +0.004 A 
ATOM     29  C   UNL     1       3.492  -5.653  -2.275  0.00  0.00    -0.046 A 
ATOM     30  C   UNL     1       4.823  -6.091  -1.721  0.00  0.00    +0.044 C 
ATOM     31  C   UNL     1      -0.277  -4.401  -3.849  0.00  0.00    +0.044 C 
ENDBRANCH  23  24
ENDBRANCH   9  23
TORSDOF 6
