REMARK  Name = ZINC39942776
REMARK  9 active torsions:
REMARK  status: ('A' for Active; 'I' for Inactive)
REMARK    1  A    between atoms: C_1  and  C_2
REMARK    2  A    between atoms: C_2  and  C_3
REMARK    3  A    between atoms: C_2  and  C_4
REMARK    4  A    between atoms: C_2  and  C_5
REMARK    5  A    between atoms: C_5  and  C_6
REMARK    6  A    between atoms: C_13  and  C_17
REMARK    7  A    between atoms: N_19  and  N_20
REMARK    8  A    between atoms: C_21  and  C_22
REMARK    9  A    between atoms: C_23  and  C_24
REMARK                            x       y       z     vdW  Elec       q    Type
REMARK                         _______ _______ _______ _____ _____    ______ ____
ROOT
ATOM      1  C   UNL     1       1.521   0.294  -1.531  0.00  0.00    -0.009 C 
ATOM      2  C   UNL     1       1.103   1.752  -1.708  0.00  0.00    +0.009 C 
ATOM      3  C   UNL     1       0.054   1.874  -2.828  0.00  0.00    +0.054 C 
ATOM      4  C   UNL     1       0.619   1.149  -4.020  0.00  0.00    +0.050 C 
ATOM      5  N   UNL     1       0.802   1.495  -5.238  0.00  0.00    -0.158 NA
ATOM      6  N   UNL     1       1.453   0.639  -5.933  0.00  0.00    -0.148 NA
ATOM      7  C   UNL     1       1.780  -0.448  -5.281  0.00  0.00    +0.135 C 
ATOM      8  C   UNL     1       1.152  -0.280  -3.917  0.00  0.00    +0.091 C 
ATOM      9  C   UNL     1       2.191  -0.255  -2.795  0.00  0.00    +0.019 C 
ENDROOT
BRANCH   7  10
ATOM     10  C   UNL     1       2.578  -1.582  -5.768  0.00  0.00    +0.280 C 
ATOM     11  O   UNL     1       2.799  -2.529  -5.037  0.00  0.00    -0.267 OA
ATOM     12  N   UNL     1       3.067  -1.571  -7.024  0.00  0.00    -0.202 N 
ATOM     13  H   UNL     1       2.891  -0.816  -7.607  0.00  0.00    +0.178 HD
BRANCH  12  14
ATOM     14  N   UNL     1       3.828  -2.652  -7.488  0.00  0.00    -0.188 NA
ATOM     15  C   UNL     1       4.301  -2.642  -8.703  0.00  0.00    +0.130 C 
BRANCH  15  16
ATOM     16  C   UNL     1       5.071  -3.735  -9.173  0.00  0.00    +0.022 C 
ATOM     17  C   UNL     1       5.560  -3.724 -10.430  0.00  0.00    +0.009 C 
BRANCH  17  18
ATOM     18  C   UNL     1       6.360  -4.859 -10.918  0.00  0.00    -0.025 A 
ATOM     19  C   UNL     1       6.611  -5.953 -10.083  0.00  0.00    +0.008 A 
ATOM     20  C   UNL     1       7.361  -7.013 -10.548  0.00  0.00    +0.001 A 
ATOM     21  C   UNL     1       7.865  -6.996 -11.836  0.00  0.00    +0.000 A 
ATOM     22  C   UNL     1       7.622  -5.917 -12.669  0.00  0.00    +0.001 A 
ATOM     23  C   UNL     1       6.869  -4.853 -12.221  0.00  0.00    +0.008 A 
ENDBRANCH  17  18
ENDBRANCH  15  16
ENDBRANCH  12  14
ENDBRANCH   7  10
BRANCH   1  24
ATOM     24  C   UNL     1       0.282  -0.546  -1.216  0.00  0.00    +0.009 C 
BRANCH  24  26
ATOM     25  C   UNL     1       1.393  -1.443   0.834  0.00  0.00    +0.010 C 
ATOM     26  C   UNL     1       0.702  -1.819  -0.479  0.00  0.00    -0.037 C 
ATOM     27  C   UNL     1       1.670  -2.618  -1.353  0.00  0.00    +0.010 C 
ATOM     28  C   UNL     1      -0.535  -2.667  -0.179  0.00  0.00    +0.010 C 
ENDBRANCH  24  26
ENDBRANCH   1  24
TORSDOF 6
