REMARK  Name = ZINC02576497
REMARK  5 active torsions:
REMARK  status: ('A' for Active; 'I' for Inactive)
REMARK    1  A    between atoms: C_1  and  C_2
REMARK    2  A    between atoms: C_6  and  N_9
REMARK    3  A    between atoms: C_7  and  C_8
REMARK    4  A    between atoms: C_17  and  S_22
REMARK    5  A    between atoms: S_22  and  C_23
REMARK                            x       y       z     vdW  Elec       q    Type
REMARK                         _______ _______ _______ _____ _____    ______ ____
ROOT
ATOM      1  N   UNL     1       5.367  -2.615  -1.124  0.00  0.00    -0.327 N 
ATOM      2  C   UNL     1       4.553  -2.983   0.043  0.00  0.00    +0.124 C 
ATOM      3  C   UNL     1       3.225  -2.225  -0.005  0.00  0.00    +0.125 C 
ATOM      4  N   UNL     1       3.490  -0.779  -0.024  0.00  0.00    -0.312 N 
ATOM      5  C   UNL     1       4.304  -0.411  -1.191  0.00  0.00    +0.125 C 
ATOM      6  C   UNL     1       5.632  -1.169  -1.143  0.00  0.00    +0.124 C 
ATOM      7  C   UNL     1       2.307  -0.057   0.004  0.00  0.00    +0.127 A 
ATOM      8  C   UNL     1       2.330   1.335  -0.006  0.00  0.00    +0.079 A 
ATOM      9  C   UNL     1       1.117   2.017   0.024  0.00  0.00    +0.108 A 
ATOM     10  N   UNL     1      -0.018   1.321   0.062  0.00  0.00    -0.208 NA
ATOM     11  C   UNL     1      -0.001  -0.003   0.071  0.00  0.00    +0.215 A 
ATOM     12  N   UNL     1       1.134  -0.685   0.043  0.00  0.00    -0.200 NA
ATOM     13  N   UNL     1      -1.201  -0.691   0.111  0.00  0.00    -0.327 N 
ATOM     14  H   UNL     1      -2.039  -0.204   0.132  0.00  0.00    +0.145 HD
ATOM     15  H   UNL     1      -1.203  -1.661   0.118  0.00  0.00    +0.145 HD
ENDROOT
BRANCH   1  21
ATOM     16  C   UNL     1       8.337  -5.779  -3.432  0.00  0.00    +0.044 C 
ATOM     17  C   UNL     1       8.025  -4.885  -2.259  0.00  0.00    -0.046 A 
ATOM     18  C   UNL     1       8.920  -4.784  -1.210  0.00  0.00    +0.004 A 
ATOM     19  C   UNL     1       8.638  -3.965  -0.132  0.00  0.00    +0.002 A 
ATOM     20  C   UNL     1       7.460  -3.244  -0.101  0.00  0.00    +0.023 A 
ATOM     21  C   UNL     1       6.559  -3.342  -1.153  0.00  0.00    +0.033 A 
ATOM     22  C   UNL     1       6.843  -4.171  -2.232  0.00  0.00    -0.027 A 
ATOM     23  C   UNL     1       5.865  -4.286  -3.373  0.00  0.00    +0.046 C 
ENDBRANCH   1  21
BRANCH   9  24
ATOM     24  S   UNL     1       1.084   3.779   0.011  0.00  0.00    -0.070 S 
BRANCH  24  25
ATOM     25  C   UNL     1      -0.629   4.172  -0.120  0.00  0.00    +0.015 A 
ATOM     26  C   UNL     1      -1.230   4.237  -1.383  0.00  0.00    +0.016 A 
ATOM     27  C   UNL     1      -2.550   4.533  -1.513  0.00  0.00    +0.009 A 
ATOM     28  C   UNL     1      -3.327   4.790  -0.369  0.00  0.00    -0.018 A 
ATOM     29  C   UNL     1      -4.693   5.104  -0.475  0.00  0.00    +0.008 A 
ATOM     30  C   UNL     1      -5.418   5.348   0.651  0.00  0.00    +0.001 A 
ATOM     31  C   UNL     1      -4.826   5.290   1.912  0.00  0.00    +0.001 A 
ATOM     32  C   UNL     1      -3.506   4.989   2.053  0.00  0.00    +0.008 A 
ATOM     33  C   UNL     1      -2.726   4.731   0.913  0.00  0.00    -0.017 A 
ATOM     34  C   UNL     1      -1.361   4.418   1.021  0.00  0.00    +0.023 A 
ENDBRANCH  24  25
ENDBRANCH   9  24
TORSDOF 3
