REMARK  Name = ZINC09375927
REMARK  6 active torsions:
REMARK  status: ('A' for Active; 'I' for Inactive)
REMARK    1  A    between atoms: C_1  and  C_2
REMARK    2  A    between atoms: C_2  and  C_24
REMARK    3  A    between atoms: N_5  and  C_9
REMARK    4  A    between atoms: C_9  and  C_10
REMARK    5  A    between atoms: N_12  and  C_13
REMARK    6  A    between atoms: C_14  and  C_21
REMARK                            x       y       z     vdW  Elec       q    Type
REMARK                         _______ _______ _______ _____ _____    ______ ____
ROOT
ATOM      1  C   UNL     1      -4.607  -1.638  -8.697  0.00  0.00    +0.047 C 
ATOM      2  C   UNL     1      -5.059  -1.363  -7.262  0.00  0.00    +0.135 C 
ATOM      3  C   UNL     1      -3.858  -1.214  -6.349  0.00  0.00    +0.251 C 
ATOM      4  O   UNL     1      -3.009  -2.047  -6.113  0.00  0.00    -0.272 OA
ATOM      5  N   UNL     1      -3.930   0.037  -5.853  0.00  0.00    -0.215 N 
ATOM      6  C   UNL     1      -4.995   0.695  -6.326  0.00  0.00    +0.310 C 
ATOM      7  O   UNL     1      -5.270   1.840  -6.026  0.00  0.00    -0.252 OA
ATOM      8  N   UNL     1      -5.727  -0.053  -7.171  0.00  0.00    -0.281 N 
ATOM      9  H   UNL     1      -6.537   0.217  -7.631  0.00  0.00    +0.152 HD
ENDROOT
BRANCH   2  10
ATOM     10  C   UNL     1      -5.970  -2.458  -6.771  0.00  0.00    -0.012 A 
ATOM     11  C   UNL     1      -5.436  -3.578  -6.160  0.00  0.00    +0.010 A 
ATOM     12  C   UNL     1      -6.268  -4.585  -5.709  0.00  0.00    +0.050 A 
ATOM     13  C   UNL     1      -7.642  -4.475  -5.869  0.00  0.00    +0.162 A 
ATOM     14  C   UNL     1      -8.178  -3.349  -6.483  0.00  0.00    +0.162 A 
ATOM     15  C   UNL     1      -7.338  -2.340  -6.929  0.00  0.00    +0.055 A 
ATOM     16  O   UNL     1      -9.523  -3.219  -6.646  0.00  0.00    -0.485 OA
ATOM     17  C   UNL     1     -10.305  -4.412  -6.521  0.00  0.00    +0.270 C 
ATOM     18  C   UNL     1      -9.837  -5.164  -5.268  0.00  0.00    +0.270 C 
ATOM     19  O   UNL     1      -8.448  -5.477  -5.425  0.00  0.00    -0.485 OA
ENDBRANCH   2  10
BRANCH   5  20
ATOM     20  C   UNL     1      -2.960   0.608  -4.915  0.00  0.00    +0.214 C 
BRANCH  20  21
ATOM     21  C   UNL     1      -3.404   0.332  -3.502  0.00  0.00    +0.236 C 
ATOM     22  O   UNL     1      -4.429  -0.282  -3.298  0.00  0.00    -0.274 OA
ATOM     23  N   UNL     1      -2.660   0.767  -2.465  0.00  0.00    -0.278 N 
ATOM     24  H   UNL     1      -1.840   1.258  -2.629  0.00  0.00    +0.155 HD
BRANCH  23  25
ATOM     25  C   UNL     1      -3.069   0.512  -1.165  0.00  0.00    +0.084 A 
ATOM     26  C   UNL     1      -2.447   0.874   0.018  0.00  0.00    +0.068 A 
ATOM     27  C   UNL     1      -3.089   0.474   1.270  0.00  0.00    -0.023 A 
ATOM     28  C   UNL     1      -4.241  -0.206   1.129  0.00  0.00    -0.004 A 
ATOM     29  S   UNL     1      -4.479  -0.333  -0.626  0.00  0.00    -0.077 S 
ATOM     30  C   UNL     1      -4.842  -0.579   2.458  0.00  0.00    +0.043 C 
ATOM     31  C   UNL     1      -3.679  -0.420   3.467  0.00  0.00    +0.010 C 
ATOM     32  C   UNL     1      -2.800   0.632   2.763  0.00  0.00    +0.037 C 
BRANCH  26  33
ATOM     33  C   UNL     1      -1.187   1.624   0.017  0.00  0.00    +0.244 C 
ATOM     34  O   UNL     1      -1.204   2.841   0.023  0.00  0.00    -0.270 OA
ATOM     35  N   UNL     1      -0.011   0.966   0.007  0.00  0.00    -0.325 N 
ATOM     36  H   UNL     1       0.002  -0.004   0.002  0.00  0.00    +0.145 HD
ATOM     37  H   UNL     1       0.822   1.462   0.002  0.00  0.00    +0.145 HD
ENDBRANCH  26  33
ENDBRANCH  23  25
ENDBRANCH  20  21
ENDBRANCH   5  20
TORSDOF 5
