REMARK  Name = ZINC19776243
REMARK  4 active torsions:
REMARK  status: ('A' for Active; 'I' for Inactive)
REMARK    1  A    between atoms: C_1  and  C_2
REMARK    2  A    between atoms: C_11  and  C_13
REMARK    3  A    between atoms: C_13  and  C_15
REMARK    4  A    between atoms: C_19  and  N_20
REMARK                            x       y       z     vdW  Elec       q    Type
REMARK                         _______ _______ _______ _____ _____    ______ ____
ROOT
ATOM      1  C   UNL     1      -1.238  -0.781   0.015  0.00  0.00    +0.196 C 
ATOM      2  O   UNL     1      -2.311  -0.213   0.121  0.00  0.00    -0.287 OA
ENDROOT
BRANCH   1  13
ATOM      3  C   UNL     1       1.163  -6.841  -0.406  0.00  0.00    +0.109 C 
ATOM      4  C   UNL     1      -0.269  -7.304  -0.486  0.00  0.00    +0.217 C 
ATOM      5  O   UNL     1      -0.518  -8.487  -0.590  0.00  0.00    -0.276 OA
ATOM      6  N   UNL     1      -1.272  -6.405  -0.443  0.00  0.00    -0.271 N 
ATOM      7  C   UNL     1      -2.698  -6.736  -0.513  0.00  0.00    +0.118 C 
ATOM      8  C   UNL     1      -3.429  -5.386  -0.425  0.00  0.00    +0.056 C 
ATOM      9  C   UNL     1      -2.323  -4.362  -0.308  0.00  0.00    -0.024 A 
ATOM     10  C   UNL     1      -1.103  -5.026  -0.325  0.00  0.00    +0.040 A 
ATOM     11  C   UNL     1       0.080  -4.286  -0.230  0.00  0.00    +0.024 A 
ATOM     12  C   UNL     1       0.039  -2.917  -0.120  0.00  0.00    +0.013 A 
ATOM     13  C   UNL     1      -1.190  -2.252  -0.103  0.00  0.00    +0.023 A 
ATOM     14  C   UNL     1      -2.373  -2.990  -0.192  0.00  0.00    +0.017 A 
ENDBRANCH   1  13
BRANCH   1  15
ATOM     15  C   UNL     1       0.002  -0.005   0.003  0.00  0.00    +0.054 A 
ATOM     16  C   UNL     1       0.632   0.403  -1.254  0.00  0.00    -0.025 A 
ATOM     17  C   UNL     1       1.766   1.112  -1.121  0.00  0.00    -0.005 A 
ATOM     18  S   UNL     1       2.015   1.247   0.633  0.00  0.00    -0.078 S 
ATOM     19  C   UNL     1       0.627   0.373   1.184  0.00  0.00    +0.074 A 
ATOM     20  C   UNL     1       2.350   1.497  -2.453  0.00  0.00    +0.043 C 
ATOM     21  C   UNL     1       1.194   1.298  -3.458  0.00  0.00    +0.010 C 
ATOM     22  C   UNL     1       0.341   0.229  -2.745  0.00  0.00    +0.037 C 
BRANCH  19  23
ATOM     23  N   UNL     1       0.236   0.114   2.483  0.00  0.00    -0.352 N 
ATOM     24  H   UNL     1       0.842   0.483   3.324  0.00  0.00    +0.143 HD
ATOM     25  H   UNL     1      -0.681  -0.461   2.677  0.00  0.00    +0.143 HD
ENDBRANCH  19  23
ENDBRANCH   1  15
TORSDOF 3
