REMARK  Name = ZINC25124294
REMARK  15 active torsions:
REMARK  status: ('A' for Active; 'I' for Inactive)
REMARK    1  A    between atoms: C_1  and  C_2
REMARK    2  A    between atoms: C_2  and  C_3
REMARK    3  A    between atoms: C_3  and  C_4
REMARK    4  A    between atoms: C_4  and  N_5
REMARK    5  A    between atoms: N_5  and  C_6
REMARK    6  A    between atoms: C_7  and  N_19
REMARK    7  A    between atoms: N_8  and  C_15
REMARK    8  A    between atoms: C_15  and  C_16
REMARK    9  A    between atoms: C_16  and  C_17
REMARK   10  A    between atoms: C_16  and  C_18
REMARK   11  A    between atoms: C_20  and  C_22
REMARK   12  A    between atoms: C_22  and  N_23
REMARK   13  A    between atoms: N_23  and  C_24
REMARK   14  A    between atoms: N_23  and  C_31
REMARK   15  A    between atoms: C_24  and  C_25
REMARK                            x       y       z     vdW  Elec       q    Type
REMARK                         _______ _______ _______ _____ _____    ______ ____
ROOT
ATOM      1  N   UNL     1      -0.019   1.584   0.047  0.00  0.00    -0.266 N 
ATOM      2  C   UNL     1      -1.281   2.062   0.051  0.00  0.00    +0.203 C 
ATOM      3  O   UNL     1      -1.478   3.257  -0.021  0.00  0.00    -0.277 OA
ENDROOT
BRANCH   1   4
ATOM      4  C   UNL     1       1.073   2.477   0.067  0.00  0.00    +0.140 A 
ATOM      5  C   UNL     1       1.924   2.569  -1.015  0.00  0.00    +0.127 A 
ATOM      6  N   UNL     1       2.980   3.449  -0.966  0.00  0.00    -0.280 N 
ATOM      7  C   UNL     1       3.181   4.211   0.124  0.00  0.00    +0.331 A 
ATOM      8  O   UNL     1       4.120   4.983   0.148  0.00  0.00    -0.246 OA
ATOM      9  N   UNL     1       2.362   4.134   1.189  0.00  0.00    -0.273 N 
ATOM     10  H   UNL     1       2.548   4.763   2.072  0.00  0.00    +0.173 HD
ATOM     11  C   UNL     1       1.310   3.292   1.189  0.00  0.00    +0.277 A 
ATOM     12  O   UNL     1       0.571   3.235   2.157  0.00  0.00    -0.266 OA
BRANCH   5  13
ATOM     13  N   UNL     1       1.719   1.790  -2.129  0.00  0.00    -0.343 N 
ATOM     14  H   UNL     1       2.402   1.869  -2.988  0.00  0.00    +0.144 HD
ATOM     15  H   UNL     1       0.873   1.088  -2.161  0.00  0.00    +0.144 HD
ENDBRANCH   5  13
BRANCH   6  16
ATOM     16  C   UNL     1       3.892   3.557  -2.108  0.00  0.00    +0.131 C 
BRANCH  16  17
ATOM     17  C   UNL     1       3.376   4.626  -3.072  0.00  0.00    +0.003 C 
ATOM     18  C   UNL     1       3.420   5.994  -2.388  0.00  0.00    +0.009 C 
ATOM     19  C   UNL     1       4.257   4.653  -4.323  0.00  0.00    +0.009 C 
ENDBRANCH  16  17
ENDBRANCH   6  16
ENDBRANCH   1   4
BRANCH   1  20
ATOM     20  C   UNL     1       0.216   0.138   0.015  0.00  0.00    +0.114 C 
BRANCH  20  21
ATOM     21  C   UNL     1       0.411  -0.378   1.442  0.00  0.00    +0.019 C 
BRANCH  21  23
ATOM     22  C   UNL     1       0.853  -2.404   2.836  0.00  0.00    +0.004 C 
ATOM     23  C   UNL     1       0.657  -1.888   1.409  0.00  0.00    -0.002 C 
ENDBRANCH  21  23
ENDBRANCH  20  21
ENDBRANCH   1  20
BRANCH   2  24
ATOM     24  C   UNL     1      -2.447   1.111   0.145  0.00  0.00    +0.020 C 
BRANCH  24  25
ATOM     25  N   UNL     1      -3.703   1.861   0.008  0.00  0.00    +0.390 N 
ATOM     26  H   UNL     1      -3.609   2.788   0.593  0.00  0.00    -0.080 HD
BRANCH  25  27
ATOM     27  C   UNL     1      -4.834   1.097   0.550  0.00  0.00    -0.068 C 
ATOM     28  C   UNL     1      -5.764   1.813   1.532  0.00  0.00    -0.017 C 
ATOM     29  C   UNL     1      -4.797   0.740   2.038  0.00  0.00    -0.017 C 
ENDBRANCH  25  27
BRANCH  25  30
ATOM     30  C   UNL     1      -3.943   2.235  -1.392  0.00  0.00    -0.042 C 
BRANCH  30  31
ATOM     31  C   UNL     1      -5.096   3.202  -1.464  0.00  0.00    -0.064 A 
ATOM     32  C   UNL     1      -6.386   2.730  -1.616  0.00  0.00    +0.002 A 
ATOM     33  C   UNL     1      -7.444   3.617  -1.676  0.00  0.00    +0.000 A 
ATOM     34  C   UNL     1      -7.212   4.977  -1.594  0.00  0.00    +0.000 A 
ATOM     35  C   UNL     1      -5.921   5.450  -1.448  0.00  0.00    +0.000 A 
ATOM     36  C   UNL     1      -4.863   4.562  -1.382  0.00  0.00    +0.002 A 
ENDBRANCH  30  31
ENDBRANCH  25  30
ENDBRANCH  24  25
ENDBRANCH   2  24
TORSDOF 12
