REMARK  Name = ZINC35428859
REMARK  5 active torsions:
REMARK  status: ('A' for Active; 'I' for Inactive)
REMARK    1  A    between atoms: C_1  and  C_2
REMARK    2  A    between atoms: C_5  and  O_8
REMARK    3  A    between atoms: O_8  and  C_9
REMARK    4  A    between atoms: C_10  and  C_17
REMARK    5  A    between atoms: C_18  and  C_19
REMARK                            x       y       z     vdW  Elec       q    Type
REMARK                         _______ _______ _______ _____ _____    ______ ____
ROOT
ATOM      1  C   UNL     1       0.178  -4.770   1.168  0.00  0.00    +0.247 A 
ATOM      2  C   UNL     1       0.318  -6.146   1.349  0.00  0.00    +0.111 A 
ATOM      3  N   UNL     1       0.407  -6.364   2.739  0.00  0.00    -0.290 N 
ATOM      4  C   UNL     1       0.550  -7.426   3.601  0.00  0.00    +0.101 A 
ATOM      5  C   UNL     1       0.595  -7.234   4.920  0.00  0.00    +0.067 A 
ATOM      6  S   UNL     1       0.431  -5.459   5.037  0.00  0.00    -0.058 S 
ATOM      7  C   UNL     1       0.315  -5.119   3.295  0.00  0.00    +0.181 A 
ATOM      8  N   UNL     1       0.188  -4.200   2.369  0.00  0.00    -0.186 NA
ENDROOT
BRANCH   2   9
ATOM      9  C   UNL     1       0.362  -7.120   0.346  0.00  0.00    +0.039 C 
ATOM     10  C   UNL     1      -0.605  -7.141  -0.639  0.00  0.00    +0.098 C 
BRANCH  10  11
ATOM     11  C   UNL     1      -0.561  -8.115  -1.641  0.00  0.00    +0.380 C 
ATOM     12  O   UNL     1       0.416  -9.025  -1.645  0.00  0.00    -0.241 OA
ATOM     13  O   UNL     1      -1.497  -8.135  -2.594  0.00  0.00    -0.241 OA
ENDBRANCH  10  11
ENDBRANCH   2   9
BRANCH   1  14
ATOM     14  O   UNL     1       0.059  -4.129  -0.021  0.00  0.00    -0.436 OA
BRANCH  14  19
ATOM     15  C   UNL     1      -0.018   1.503   0.010  0.00  0.00    +0.044 C 
ATOM     16  C   UNL     1       0.003  -0.004   0.002  0.00  0.00    -0.050 A 
ATOM     17  C   UNL     1       0.261  -0.697   1.170  0.00  0.00    +0.007 A 
ATOM     18  C   UNL     1       0.280  -2.078   1.165  0.00  0.00    +0.046 A 
ATOM     19  C   UNL     1       0.040  -2.770  -0.013  0.00  0.00    +0.130 A 
ATOM     20  C   UNL     1      -0.219  -2.072  -1.184  0.00  0.00    +0.046 A 
ATOM     21  C   UNL     1      -0.242  -0.691  -1.173  0.00  0.00    +0.007 A 
ENDBRANCH  14  19
ENDBRANCH   1  14
TORSDOF 4
