REMARK  Name = ZINC22417191
REMARK  8 active torsions:
REMARK  status: ('A' for Active; 'I' for Inactive)
REMARK    1  A    between atoms: C_1  and  N_2
REMARK    2  A    between atoms: N_2  and  C_3
REMARK    3  A    between atoms: N_2  and  C_4
REMARK    4  A    between atoms: C_7  and  C_10
REMARK    5  A    between atoms: C_10  and  C_12
REMARK    6  A    between atoms: C_10  and  N_23
REMARK    7  A    between atoms: C_12  and  N_13
REMARK    8  A    between atoms: N_16  and  C_17
REMARK                            x       y       z     vdW  Elec       q    Type
REMARK                         _______ _______ _______ _____ _____    ______ ____
ROOT
ATOM      1  C   UNL     1       0.008  -2.801  -4.929  0.00  0.00    -0.020 C 
ENDROOT
BRANCH   1   5
ATOM      2  C   UNL     1       0.216  -0.140  -1.592  0.00  0.00    +0.029 A 
ATOM      3  C   UNL     1       0.162  -1.512  -1.385  0.00  0.00    +0.023 A 
ATOM      4  C   UNL     1       0.094  -2.370  -2.466  0.00  0.00    +0.004 A 
ATOM      5  C   UNL     1       0.081  -1.863  -3.753  0.00  0.00    -0.059 A 
ATOM      6  C   UNL     1       0.134  -0.497  -3.962  0.00  0.00    +0.004 A 
ATOM      7  C   UNL     1       0.196   0.366  -2.885  0.00  0.00    +0.023 A 
BRANCH   2   9
ATOM      8  C   UNL     1       0.334   2.178  -0.721  0.00  0.00    +0.129 C 
ATOM      9  N   UNL     1       0.283   0.730  -0.501  0.00  0.00    -0.336 N 
ATOM     10  C   UNL     1       0.304   0.195   0.862  0.00  0.00    +0.129 C 
ENDBRANCH   2   9
ENDBRANCH   1   5
BRANCH   1  11
ATOM     11  N   UNL     1      -0.887  -2.239  -5.950  0.00  0.00    +0.385 N 
ATOM     12  C   UNL     1      -1.031  -3.188  -7.083  0.00  0.00    -0.078 C 
ATOM     13  C   UNL     1      -2.363  -2.751  -7.744  0.00  0.00    -0.020 C 
ATOM     14  C   UNL     1      -3.241  -2.367  -6.531  0.00  0.00    -0.020 C 
ATOM     15  C   UNL     1      -2.247  -2.065  -5.394  0.00  0.00    -0.078 C 
ATOM     16  H   UNL     1      -0.529  -1.355  -6.278  0.00  0.00    -0.081 HD
ENDBRANCH   1  11
BRANCH   1  17
ATOM     17  C   UNL     1       1.407  -2.984  -5.523  0.00  0.00    +0.095 C 
BRANCH  17  18
ATOM     18  N   UNL     1       2.265  -3.663  -4.550  0.00  0.00    -0.301 N 
ATOM     19  C   UNL     1       3.576  -3.835  -4.812  0.00  0.00    +0.300 C 
ATOM     20  O   UNL     1       4.046  -3.427  -5.856  0.00  0.00    -0.253 OA
ATOM     21  N   UNL     1       4.366  -4.460  -3.916  0.00  0.00    -0.297 N 
ATOM     22  H   UNL     1       1.891  -3.989  -3.716  0.00  0.00    +0.150 HD
ATOM     23  H   UNL     1       3.991  -4.785  -3.083  0.00  0.00    +0.151 HD
BRANCH  21  24
ATOM     24  C   UNL     1       5.791  -4.647  -4.201  0.00  0.00    +0.074 C 
ATOM     25  C   UNL     1       6.563  -3.393  -3.788  0.00  0.00    +0.022 C 
ATOM     26  C   UNL     1       8.051  -3.588  -4.085  0.00  0.00    +0.002 C 
ATOM     27  C   UNL     1       8.575  -4.792  -3.299  0.00  0.00    +0.000 C 
ATOM     28  C   UNL     1       7.803  -6.046  -3.713  0.00  0.00    +0.002 C 
ATOM     29  C   UNL     1       6.314  -5.851  -3.415  0.00  0.00    +0.022 C 
ENDBRANCH  21  24
ENDBRANCH  17  18
ENDBRANCH   1  17
TORSDOF 6
