REMARK  Name = ZINC45334352
REMARK  7 active torsions:
REMARK  status: ('A' for Active; 'I' for Inactive)
REMARK    1  A    between atoms: C_1  and  C_2
REMARK    2  A    between atoms: C_2  and  C_3
REMARK    3  A    between atoms: C_3  and  C_29
REMARK    4  A    between atoms: N_6  and  C_10
REMARK    5  A    between atoms: C_10  and  C_11
REMARK    6  A    between atoms: C_14  and  C_24
REMARK    7  A    between atoms: C_17  and  C_19
REMARK                            x       y       z     vdW  Elec       q    Type
REMARK                         _______ _______ _______ _____ _____    ______ ____
ROOT
ATOM      1  C   UNL     1      -4.210   1.363  -1.565  0.00  0.00    +0.215 C 
ENDROOT
BRANCH   1   5
ATOM      2  C   UNL     1      -1.433  -0.534   0.013  0.00  0.00    +0.138 C 
ATOM      3  C   UNL     1      -2.192  -0.043  -1.205  0.00  0.00    +0.251 C 
ATOM      4  O   UNL     1      -1.933  -0.267  -2.368  0.00  0.00    -0.272 OA
ATOM      5  N   UNL     1      -3.214   0.692  -0.725  0.00  0.00    -0.215 N 
ATOM      6  C   UNL     1      -3.207   0.734   0.612  0.00  0.00    +0.310 C 
ATOM      7  O   UNL     1      -4.031   1.335   1.273  0.00  0.00    -0.252 OA
ATOM      8  N   UNL     1      -2.187   0.036   1.143  0.00  0.00    -0.281 N 
ATOM      9  H   UNL     1      -1.987  -0.072   2.086  0.00  0.00    +0.152 HD
BRANCH   2  10
ATOM     10  C   UNL     1      -1.441  -2.039   0.076  0.00  0.00    -0.015 A 
ATOM     11  C   UNL     1      -0.400  -2.759  -0.481  0.00  0.00    +0.007 A 
ATOM     12  C   UNL     1      -0.406  -4.140  -0.423  0.00  0.00    +0.020 A 
ATOM     13  C   UNL     1      -1.454  -4.802   0.191  0.00  0.00    +0.041 A 
ATOM     14  C   UNL     1      -2.496  -4.081   0.747  0.00  0.00    +0.020 A 
ATOM     15  C   UNL     1      -2.486  -2.700   0.694  0.00  0.00    +0.007 A 
ATOM     16 CL   UNL     1      -1.463  -6.537   0.262  0.00  0.00    -0.084 Cl
ENDBRANCH   2  10
BRANCH   2  18
ATOM     17  C   UNL     1      -0.019   1.526   0.010  0.00  0.00    +0.007 C 
ATOM     18  C   UNL     1       0.002  -0.004   0.002  0.00  0.00    +0.037 C 
ENDBRANCH   2  18
ENDBRANCH   1   5
BRANCH   1  19
ATOM     19  C   UNL     1      -5.368   0.431  -1.812  0.00  0.00    +0.253 C 
ATOM     20  O   UNL     1      -5.362  -0.684  -1.335  0.00  0.00    -0.272 OA
ATOM     21  N   UNL     1      -6.410   0.837  -2.564  0.00  0.00    -0.183 N 
ATOM     22  C   UNL     1      -7.603   0.033  -2.879  0.00  0.00    +0.144 C 
ATOM     23  C   UNL     1      -8.453   0.974  -3.755  0.00  0.00    +0.090 C 
ATOM     24  C   UNL     1      -7.628   2.237  -3.842  0.00  0.00    +0.104 C 
ATOM     25  N   UNL     1      -6.537   2.087  -3.166  0.00  0.00    -0.178 NA
BRANCH  24  26
ATOM     26  C   UNL     1      -8.008   3.449  -4.575  0.00  0.00    +0.150 A 
ATOM     27  C   UNL     1      -7.272   4.594  -4.668  0.00  0.00    +0.051 A 
ATOM     28  C   UNL     1      -8.014   5.488  -5.462  0.00  0.00    +0.042 A 
ATOM     29  C   UNL     1      -9.153   4.856  -5.813  0.00  0.00    +0.196 A 
ATOM     30  O   UNL     1      -9.144   3.623  -5.281  0.00  0.00    -0.462 OA
ENDBRANCH  24  26
BRANCH  22  31
ATOM     31  C   UNL     1      -7.220  -1.207  -3.644  0.00  0.00    +0.013 A 
ATOM     32  C   UNL     1      -7.727  -2.460  -3.547  0.00  0.00    +0.013 A 
ATOM     33  C   UNL     1      -7.216  -3.455  -4.360  0.00  0.00    +0.008 A 
ATOM     34  C   UNL     1      -6.223  -3.147  -5.230  0.00  0.00    +0.045 A 
ATOM     35  S   UNL     1      -5.985  -1.405  -4.919  0.00  0.00    -0.100 S 
ENDBRANCH  22  31
ENDBRANCH   1  19
TORSDOF 6
