REMARK  Name = ZINC64874191
REMARK  7 active torsions:
REMARK  status: ('A' for Active; 'I' for Inactive)
REMARK    1  A    between atoms: C_1  and  C_2
REMARK    2  A    between atoms: C_2  and  O_3
REMARK    3  A    between atoms: O_3  and  C_4
REMARK    4  A    between atoms: C_7  and  C_10
REMARK    5  A    between atoms: C_24  and  C_25
REMARK    6  A    between atoms: N_27  and  C_28
REMARK    7  A    between atoms: C_31  and  C_34
REMARK                            x       y       z     vdW  Elec       q    Type
REMARK                         _______ _______ _______ _____ _____    ______ ____
ROOT
ATOM      1  C   UNL     1      -2.006  -6.075  -0.014  0.00  0.00    +0.174 C 
ATOM      2  C   UNL     1      -2.757  -6.504   1.227  0.00  0.00    +0.041 C 
ATOM      3  C   UNL     1      -4.048  -6.895   1.187  0.00  0.00    +0.018 C 
ATOM      4  C   UNL     1      -4.777  -7.299   2.446  0.00  0.00    +0.051 C 
ATOM      5  C   UNL     1      -3.791  -7.926   3.433  0.00  0.00    +0.014 C 
ATOM      6  C   UNL     1      -2.693  -6.901   3.734  0.00  0.00    +0.080 C 
ATOM      7  C   UNL     1      -2.049  -6.480   2.443  0.00  0.00    +0.163 C 
ATOM      8  O   UNL     1      -0.891  -6.112   2.449  0.00  0.00    -0.292 OA
ATOM      9  N   UNL     1      -4.750  -6.948   0.006  0.00  0.00    -0.302 N 
ATOM     10  C   UNL     1      -4.038  -6.876  -1.174  0.00  0.00    +0.134 A 
ATOM     11  N   UNL     1      -2.747  -6.473  -1.208  0.00  0.00    -0.238 N 
ATOM     12  N   UNL     1      -2.317  -6.515  -2.532  0.00  0.00    -0.176 NA
ATOM     13  C   UNL     1      -3.300  -6.921  -3.290  0.00  0.00    +0.149 A 
ATOM     14  C   UNL     1      -4.421  -7.165  -2.469  0.00  0.00    +0.096 A 
ATOM     15  H   UNL     1      -5.716  -7.034   0.003  0.00  0.00    +0.153 HD
ENDROOT
BRANCH   1  19
ATOM     16  C   UNL     1      -1.531  -1.828   0.012  0.00  0.00    +0.121 A 
ATOM     17  C   UNL     1      -0.415  -2.652  -0.001  0.00  0.00    +0.046 A 
ATOM     18  C   UNL     1      -0.571  -4.025  -0.009  0.00  0.00    +0.009 A 
ATOM     19  C   UNL     1      -1.838  -4.578  -0.004  0.00  0.00    -0.018 A 
ATOM     20  C   UNL     1      -2.952  -3.759   0.008  0.00  0.00    +0.009 A 
ATOM     21  C   UNL     1      -2.801  -2.386   0.022  0.00  0.00    +0.046 A 
BRANCH  16  22
ATOM     22  O   UNL     1      -1.380  -0.478   0.021  0.00  0.00    -0.492 OA
BRANCH  22  24
ATOM     23  C   UNL     1      -0.073   1.555   0.021  0.00  0.00    +0.048 C 
ATOM     24  C   UNL     1      -0.042   0.025   0.009  0.00  0.00    +0.225 C 
ENDBRANCH  22  24
ENDBRANCH  16  22
ENDBRANCH   1  19
BRANCH  14  25
ATOM     25  C   UNL     1      -5.742  -7.633  -2.908  0.00  0.00    +0.253 C 
ATOM     26  O   UNL     1      -6.630  -7.801  -2.092  0.00  0.00    -0.270 OA
ATOM     27  N   UNL     1      -5.971  -7.876  -4.213  0.00  0.00    -0.281 N 
ATOM     28  H   UNL     1      -5.286  -7.678  -4.871  0.00  0.00    +0.155 HD
BRANCH  27  29
ATOM     29  C   UNL     1      -7.197  -8.413  -4.620  0.00  0.00    +0.034 A 
ATOM     30  C   UNL     1      -8.367  -8.052  -3.965  0.00  0.00    +0.023 A 
ATOM     31  C   UNL     1      -9.575  -8.584  -4.369  0.00  0.00    +0.005 A 
ATOM     32  C   UNL     1      -9.621  -9.476  -5.425  0.00  0.00    -0.050 A 
ATOM     33  C   UNL     1      -8.458  -9.837  -6.079  0.00  0.00    +0.005 A 
ATOM     34  C   UNL     1      -7.247  -9.304  -5.684  0.00  0.00    +0.023 A 
ATOM     35  C   UNL     1     -10.942 -10.055  -5.862  0.00  0.00    +0.044 C 
ENDBRANCH  27  29
ENDBRANCH  14  25
TORSDOF 5
