REMARK  Name = ZINC42016093
REMARK  3 active torsions:
REMARK  status: ('A' for Active; 'I' for Inactive)
REMARK    1  A    between atoms: C_4  and  N_17
REMARK    2  A    between atoms: C_6  and  C_7
REMARK    3  A    between atoms: N_11  and  C_12
REMARK                            x       y       z     vdW  Elec       q    Type
REMARK                         _______ _______ _______ _____ _____    ______ ____
ROOT
ATOM      1  C   UNL     1      -0.036   0.998  -1.425  0.00  0.00    +0.013 A 
ATOM      2  C   UNL     1       1.139   1.651  -1.735  0.00  0.00    +0.018 A 
ATOM      3  C   UNL     1       2.338   1.218  -1.200  0.00  0.00    +0.039 A 
ATOM      4  C   UNL     1       2.367   0.120  -0.347  0.00  0.00    +0.039 A 
ATOM      5  C   UNL     1       1.192  -0.542  -0.030  0.00  0.00    +0.035 A 
ATOM      6  C   UNL     1      -0.017  -0.104  -0.570  0.00  0.00    +0.022 A 
ATOM      7 BR   UNL     1       3.944   2.119  -1.631  0.00  0.00    -0.048 Br
ENDROOT
BRANCH   6   8
ATOM      8  C   UNL     1      -1.277  -0.807  -0.236  0.00  0.00    +0.182 A 
ATOM      9  N   UNL     1      -1.407  -2.084   0.052  0.00  0.00    -0.108 NA
ATOM     10  N   UNL     1      -2.636  -2.367   0.293  0.00  0.00    -0.023 NA
ATOM     11  N   UNL     1      -3.371  -1.314   0.180  0.00  0.00    -0.043 NA
ATOM     12  N   UNL     1      -2.513  -0.255  -0.165  0.00  0.00    -0.222 N 
BRANCH  12  13
ATOM     13  C   UNL     1      -2.877   1.145  -0.398  0.00  0.00    +0.111 C 
ATOM     14  C   UNL     1      -3.764   1.660   0.754  0.00  0.00    +0.027 C 
ATOM     15  C   UNL     1      -4.788   2.591   0.059  0.00  0.00    +0.002 C 
ATOM     16  C   UNL     1      -5.080   1.848  -1.268  0.00  0.00    +0.002 C 
ATOM     17  C   UNL     1      -3.714   1.265  -1.684  0.00  0.00    +0.027 C 
ENDBRANCH  12  13
ENDBRANCH   6   8
BRANCH   4  18
ATOM     18  N   UNL     1       3.581  -0.316   0.191  0.00  0.00    -0.357 N 
ATOM     19  H   UNL     1       4.404   0.148  -0.030  0.00  0.00    +0.142 HD
ATOM     20  H   UNL     1       3.601  -1.081   0.786  0.00  0.00    +0.142 HD
ENDBRANCH   4  18
TORSDOF 3
