REMARK  Name = ZINC43221885
REMARK  13 active torsions:
REMARK  status: ('A' for Active; 'I' for Inactive)
REMARK    1  A    between atoms: C_1  and  C_2
REMARK    2  A    between atoms: C_2  and  C_3
REMARK    3  A    between atoms: C_7  and  C_38
REMARK    4  A    between atoms: C_8  and  N_9
REMARK    5  A    between atoms: C_14  and  C_29
REMARK    6  A    between atoms: C_17  and  C_22
REMARK    7  A    between atoms: C_17  and  C_26
REMARK    8  A    between atoms: C_22  and  C_24
REMARK    9  A    between atoms: C_22  and  O_25
REMARK   10  A    between atoms: C_31  and  C_37
REMARK   11  A    between atoms: C_32  and  O_36
REMARK   12  A    between atoms: C_33  and  C_35
REMARK   13  A    between atoms: C_38  and  C_39
REMARK                            x       y       z     vdW  Elec       q    Type
REMARK                         _______ _______ _______ _____ _____    ______ ____
ROOT
ATOM      1  N   UNL     1      -1.306  -0.400   2.467  0.00  0.00    -0.209 N 
ATOM      2  C   UNL     1      -1.757   0.857   2.787  0.00  0.00    +0.229 C 
ATOM      3  O   UNL     1      -1.119   1.887   2.819  0.00  0.00    -0.275 OA
ATOM      4  C   UNL     1      -3.160   0.678   3.076  0.00  0.00    +0.077 C 
ATOM      5  C   UNL     1      -4.399   1.462   3.184  0.00  0.00    -0.027 C 
ATOM      6  N   UNL     1      -5.494   0.444   3.066  0.00  0.00    +0.397 N 
ATOM      7  C   UNL     1      -4.851  -0.877   2.770  0.00  0.00    +0.074 C 
ATOM      8  C   UNL     1      -3.558  -0.451   2.043  0.00  0.00    +0.089 C 
ATOM      9  C   UNL     1      -2.322  -1.285   2.243  0.00  0.00    +0.229 C 
ATOM     10  O   UNL     1      -2.245  -2.494   2.214  0.00  0.00    -0.275 OA
ATOM     11  H   UNL     1      -6.005   0.389   3.934  0.00  0.00    -0.083 HD
ATOM     12  H   UNL     1      -6.118   0.698   2.314  0.00  0.00    -0.083 HD
ENDROOT
BRANCH   5  13
ATOM     13  C   UNL     1      -4.486   2.466   2.063  0.00  0.00    -0.060 A 
ATOM     14  C   UNL     1      -4.910   2.065   0.809  0.00  0.00    +0.009 A 
ATOM     15  C   UNL     1      -4.990   2.983  -0.220  0.00  0.00    -0.009 A 
ATOM     16  C   UNL     1      -4.646   4.308   0.005  0.00  0.00    +0.123 A 
ATOM     17  C   UNL     1      -4.221   4.708   1.264  0.00  0.00    -0.009 A 
ATOM     18  C   UNL     1      -4.147   3.787   2.291  0.00  0.00    +0.009 A 
ATOM     19  C   UNL     1      -3.845   6.146   1.512  0.00  0.00    +0.047 C 
ATOM     20  C   UNL     1      -5.452   2.546  -1.587  0.00  0.00    +0.047 C 
BRANCH  16  21
ATOM     21  O   UNL     1      -4.723   5.213  -1.006  0.00  0.00    -0.506 OA
ATOM     22  H   UNL     1      -5.581   5.654  -1.074  0.00  0.00    +0.292 HD
ENDBRANCH  16  21
ENDBRANCH   5  13
BRANCH   1  28
ATOM     23  C   UNL     1       0.721  -0.605   1.166  0.00  0.00    -0.026 A 
ATOM     24  C   UNL     1       2.060  -0.933   1.079  0.00  0.00    +0.005 A 
ATOM     25  C   UNL     1       2.732  -1.398   2.194  0.00  0.00    +0.001 A 
ATOM     26  C   UNL     1       2.067  -1.536   3.399  0.00  0.00    +0.005 A 
ATOM     27  C   UNL     1       0.729  -1.209   3.491  0.00  0.00    -0.026 A 
ATOM     28  C   UNL     1       0.052  -0.737   2.375  0.00  0.00    +0.050 A 
BRANCH  23  30
ATOM     29  C   UNL     1      -0.006   1.432  -0.047  0.00  0.00    +0.009 C 
ATOM     30  C   UNL     1      -0.012  -0.098  -0.050  0.00  0.00    +0.033 C 
ENDBRANCH  23  30
BRANCH  27  31
ATOM     31  C   UNL     1       0.005  -1.359   4.805  0.00  0.00    +0.033 C 
ATOM     32  C   UNL     1      -0.699  -2.717   4.846  0.00  0.00    +0.009 C 
ENDBRANCH  27  31
ENDBRANCH   1  28
BRANCH   7  33
ATOM     33  C   UNL     1      -5.721  -1.701   1.855  0.00  0.00    +0.349 C 
ATOM     34  O   UNL     1      -6.800  -1.269   1.487  0.00  0.00    -0.248 OA
ATOM     35  O   UNL     1      -5.346  -2.800   1.484  0.00  0.00    -0.248 OA
ENDBRANCH   7  33
BRANCH   7  36
ATOM     36  C   UNL     1      -4.551  -1.636   4.064  0.00  0.00    +0.112 C 
ATOM     37  C   UNL     1      -5.840  -1.797   4.872  0.00  0.00    +0.037 C 
BRANCH  36  38
ATOM     38  O   UNL     1      -4.022  -2.926   3.748  0.00  0.00    -0.393 OA
ATOM     39  H   UNL     1      -4.620  -3.478   3.226  0.00  0.00    +0.210 HD
ENDBRANCH  36  38
ENDBRANCH   7  36
TORSDOF 8
