REMARK  Name = ZINC04518740
REMARK  8 active torsions:
REMARK  status: ('A' for Active; 'I' for Inactive)
REMARK    1  A    between atoms: C_1  and  C_2
REMARK    2  A    between atoms: C_2  and  C_3
REMARK    3  A    between atoms: C_6  and  C_9
REMARK    4  A    between atoms: C_11  and  C_29
REMARK    5  A    between atoms: N_15  and  C_20
REMARK    6  A    between atoms: C_23  and  O_26
REMARK    7  A    between atoms: O_26  and  C_27
REMARK    8  A    between atoms: C_27  and  C_28
REMARK                            x       y       z     vdW  Elec       q    Type
REMARK                         _______ _______ _______ _____ _____    ______ ____
ROOT
ATOM      1  C   UNL     1      -0.748   5.605   0.037  0.00  0.00    +0.163 A 
ATOM      2  N   UNL     1       0.573   5.665   0.025  0.00  0.00    -0.220 NA
ATOM      3  C   UNL     1       1.311   4.554   0.013  0.00  0.00    +0.154 A 
ATOM      4  C   UNL     1       0.659   3.321   0.013  0.00  0.00    +0.117 A 
ATOM      5  C   UNL     1      -0.748   3.303   0.026  0.00  0.00    +0.170 A 
ATOM      6  N   UNL     1      -1.404   4.450   0.038  0.00  0.00    -0.208 NA
ATOM      7  N   UNL     1      -1.127   1.972   0.018  0.00  0.00    -0.245 N 
ATOM      8  C   UNL     1      -0.014   1.212   0.009  0.00  0.00    +0.333 A 
ATOM      9  O   UNL     1       0.002  -0.004   0.002  0.00  0.00    -0.246 OA
ATOM     10  N   UNL     1       1.077   2.002   0.003  0.00  0.00    -0.303 N 
ATOM     11  H   UNL     1       1.998   1.698  -0.007  0.00  0.00    +0.171 HD
ENDROOT
BRANCH   1  15
ATOM     12  C   UNL     1      -2.971   9.229   0.076  0.00  0.00    -0.048 A 
ATOM     13  C   UNL     1      -1.589   9.269   0.063  0.00  0.00    +0.004 A 
ATOM     14  C   UNL     1      -0.862   8.095   0.050  0.00  0.00    +0.012 A 
ATOM     15  C   UNL     1      -1.524   6.869   0.051  0.00  0.00    +0.019 A 
ATOM     16  C   UNL     1      -2.917   6.835   0.058  0.00  0.00    +0.012 A 
ATOM     17  C   UNL     1      -3.633   8.014   0.077  0.00  0.00    +0.004 A 
BRANCH  12  19
ATOM     18  C   UNL     1      -4.040  10.956  -1.347  0.00  0.00    +0.009 C 
ATOM     19  C   UNL     1      -3.759  10.513   0.091  0.00  0.00    +0.032 C 
ENDBRANCH  12  19
ENDBRANCH   1  15
BRANCH   7  20
ATOM     20  C   UNL     1      -2.446   1.495   0.021  0.00  0.00    +0.053 A 
ATOM     21  C   UNL     1      -3.508   2.389   0.035  0.00  0.00    +0.030 A 
ATOM     22  C   UNL     1      -4.806   1.919   0.033  0.00  0.00    +0.047 A 
ATOM     23  C   UNL     1      -5.050   0.553   0.027  0.00  0.00    +0.121 A 
ATOM     24  C   UNL     1      -3.989  -0.341   0.018  0.00  0.00    +0.047 A 
ATOM     25  C   UNL     1      -2.690   0.128   0.015  0.00  0.00    +0.030 A 
BRANCH  23  26
ATOM     26  O   UNL     1      -6.328   0.091   0.031  0.00  0.00    -0.492 OA
BRANCH  26  27
ATOM     27  C   UNL     1      -7.371   1.067   0.041  0.00  0.00    +0.225 C 
ATOM     28  C   UNL     1      -8.729   0.363   0.044  0.00  0.00    +0.048 C 
ENDBRANCH  26  27
ENDBRANCH  23  26
ENDBRANCH   7  20
BRANCH   3  29
ATOM     29  C   UNL     1       2.790   4.629   0.000  0.00  0.00    +0.262 C 
ATOM     30  O   UNL     1       3.450   3.608  -0.011  0.00  0.00    -0.269 OA
ATOM     31  N   UNL     1       3.405   5.828   0.001  0.00  0.00    -0.324 N 
ATOM     32  H   UNL     1       2.878   6.643   0.009  0.00  0.00    +0.145 HD
ATOM     33  H   UNL     1       4.374   5.877  -0.008  0.00  0.00    +0.145 HD
ENDBRANCH   3  29
TORSDOF 6
