REMARK  Name = ZINC40222104
REMARK  4 active torsions:
REMARK  status: ('A' for Active; 'I' for Inactive)
REMARK    1  A    between atoms: C_5  and  C_9
REMARK    2  A    between atoms: C_5  and  N_11
REMARK    3  A    between atoms: C_12  and  C_14
REMARK    4  A    between atoms: C_14  and  C_15
REMARK                            x       y       z     vdW  Elec       q    Type
REMARK                         _______ _______ _______ _____ _____    ______ ____
ROOT
ATOM      1  N   UNL     1       0.983   0.745  -4.439  0.00  0.00    -0.297 N 
ATOM      2  C   UNL     1       0.024   0.197  -5.211  0.00  0.00    +0.214 C 
ATOM      3  O   UNL     1      -1.044  -0.110  -4.724  0.00  0.00    -0.276 OA
ATOM      4  H   UNL     1       1.837   0.991  -4.828  0.00  0.00    +0.150 HD
ENDROOT
BRANCH   1   9
ATOM      5  C   UNL     1      -0.019   1.521   0.010  0.00  0.00    +0.000 C 
ATOM      6  C   UNL     1       1.413   2.078  -0.000  0.00  0.00    +0.000 C 
ATOM      7  C   UNL     1       2.247   1.248  -0.992  0.00  0.00    +0.003 C 
ATOM      8  C   UNL     1       2.049   1.604  -2.479  0.00  0.00    +0.041 C 
ATOM      9  C   UNL     1       0.729   0.977  -2.974  0.00  0.00    +0.121 C 
ATOM     10  C   UNL     1       0.584  -0.436  -2.403  0.00  0.00    +0.041 C 
ATOM     11  C   UNL     1      -0.512  -0.532  -1.344  0.00  0.00    +0.003 C 
ATOM     12  C   UNL     1       0.002  -0.004   0.002  0.00  0.00    +0.000 C 
BRANCH   9  13
ATOM     13  C   UNL     1      -0.410   1.856  -2.936  0.00  0.00    +0.088 C 
ATOM     14  N   UNL     1      -1.310   2.549  -2.905  0.00  0.00    -0.194 NA
ENDBRANCH   9  13
ENDBRANCH   1   9
BRANCH   2  15
ATOM     15  C   UNL     1       0.278  -0.035  -6.678  0.00  0.00    +0.099 C 
BRANCH  15  16
ATOM     16  C   UNL     1      -0.962  -0.664  -7.317  0.00  0.00    +0.001 C 
ATOM     17  C   UNL     1      -1.173  -2.100  -6.787  0.00  0.00    +0.007 C 
ATOM     18  C   UNL     1      -1.072  -3.006  -8.051  0.00  0.00    -0.010 C 
ATOM     19  C   UNL     1      -2.376  -2.708  -8.851  0.00  0.00    +0.004 C 
ATOM     20  C   UNL     1      -2.186  -1.269  -9.385  0.00  0.00    +0.004 C 
ATOM     21  C   UNL     1      -0.754  -0.835  -8.853  0.00  0.00    -0.007 C 
ATOM     22  C   UNL     1      -0.005  -2.217  -8.889  0.00  0.00    +0.007 C 
ENDBRANCH  15  16
ENDBRANCH   2  15
TORSDOF 4
