REMARK  Name = ZINC64622197
REMARK  5 active torsions:
REMARK  status: ('A' for Active; 'I' for Inactive)
REMARK    1  A    between atoms: C_1  and  C_2
REMARK    2  A    between atoms: C_2  and  C_3
REMARK    3  A    between atoms: C_6  and  C_9
REMARK    4  A    between atoms: C_24  and  C_26
REMARK    5  A    between atoms: N_32  and  C_34
REMARK                            x       y       z     vdW  Elec       q    Type
REMARK                         _______ _______ _______ _____ _____    ______ ____
ROOT
ATOM      1  C   UNL     1      -5.368  -1.578   0.378  0.00  0.00    +0.133 C 
ATOM      2  C   UNL     1      -5.846  -3.033   0.442  0.00  0.00    +0.131 C 
ATOM      3  C   UNL     1      -7.357  -2.986   0.625  0.00  0.00    -0.035 C 
ATOM      4  C   UNL     1      -7.623  -3.683   1.724  0.00  0.00    -0.001 A 
ATOM      5  C   UNL     1      -8.896  -4.048   2.368  0.00  0.00    +0.010 A 
ATOM      6  C   UNL     1      -8.801  -4.774   3.513  0.00  0.00    +0.001 A 
ATOM      7  C   UNL     1      -7.583  -5.168   4.076  0.00  0.00    +0.002 A 
ATOM      8  C   UNL     1      -6.366  -4.880   3.549  0.00  0.00    +0.026 A 
ATOM      9  C   UNL     1      -6.336  -4.125   2.341  0.00  0.00    +0.043 A 
ATOM     10  N   UNL     1      -5.307  -3.732   1.610  0.00  0.00    -0.375 N 
ATOM     11  C   UNL     1      -8.261  -2.197  -0.290  0.00  0.00    +0.052 C 
ATOM     12  C   UNL     1      -7.670  -0.777  -0.378  0.00  0.00    +0.113 C 
ATOM     13  N   UNL     1      -6.221  -0.864  -0.585  0.00  0.00    -0.290 N 
ATOM     14  C   UNL     1      -5.665  -0.284  -1.667  0.00  0.00    +0.239 C 
ATOM     15  O   UNL     1      -4.483  -0.432  -1.895  0.00  0.00    -0.273 OA
ATOM     16  H   UNL     1      -4.367  -3.871   1.805  0.00  0.00    +0.160 HD
ENDROOT
BRANCH  14  17
ATOM     17  C   UNL     1      -6.513   0.547  -2.595  0.00  0.00    +0.182 C 
ATOM     18  C   UNL     1      -7.252  -0.360  -3.546  0.00  0.00    +0.007 C 
ATOM     19  C   UNL     1      -6.641  -0.745  -4.670  0.00  0.00    +0.066 C 
ATOM     20  C   UNL     1      -5.271  -0.251  -4.912  0.00  0.00    +0.252 C 
ATOM     21  O   UNL     1      -4.549  -0.801  -5.721  0.00  0.00    -0.269 OA
ATOM     22  N   UNL     1      -4.835   0.821  -4.220  0.00  0.00    -0.236 N 
ATOM     23  N   UNL     1      -5.653   1.465  -3.347  0.00  0.00    -0.222 NA
ATOM     24  C   UNL     1      -3.462   1.296  -4.413  0.00  0.00    +0.153 C 
ATOM     25  H   UNL     1      -6.201   2.170  -3.817  0.00  0.00    +0.146 HD
ENDBRANCH  14  17
BRANCH   1  29
ATOM     26  C   UNL     1      -1.301  -1.448  -0.923  0.00  0.00    -0.048 A 
ATOM     27  C   UNL     1      -2.160  -2.403  -1.434  0.00  0.00    +0.004 A 
ATOM     28  C   UNL     1      -3.476  -2.445  -1.013  0.00  0.00    +0.006 A 
ATOM     29  C   UNL     1      -3.933  -1.533  -0.081  0.00  0.00    -0.025 A 
ATOM     30  C   UNL     1      -3.074  -0.578   0.431  0.00  0.00    +0.006 A 
ATOM     31  C   UNL     1      -1.757  -0.538   0.013  0.00  0.00    +0.004 A 
BRANCH  26  33
ATOM     32  C   UNL     1       0.988  -2.292  -0.478  0.00  0.00    +0.009 C 
ATOM     33  C   UNL     1       0.134  -1.401  -1.382  0.00  0.00    +0.032 C 
ENDBRANCH  26  33
ENDBRANCH   1  29
TORSDOF 3
