REMARK  Name = ZINC11153984
REMARK  5 active torsions:
REMARK  status: ('A' for Active; 'I' for Inactive)
REMARK    1  A    between atoms: C_1  and  C_2
REMARK    2  A    between atoms: C_6  and  N_9
REMARK    3  A    between atoms: C_7  and  C_8
REMARK    4  A    between atoms: C_10  and  S_14
REMARK    5  A    between atoms: S_14  and  C_15
REMARK                            x       y       z     vdW  Elec       q    Type
REMARK                         _______ _______ _______ _____ _____    ______ ____
ROOT
ATOM      1  N   UNL     1       0.356   3.338  -4.016  0.00  0.00    -0.187 N 
ATOM      2  C   UNL     1       0.767   3.106  -2.744  0.00  0.00    +0.215 A 
ATOM      3  N   UNL     1       1.895   2.432  -2.820  0.00  0.00    -0.101 NA
ATOM      4  N   UNL     1       2.218   2.233  -4.046  0.00  0.00    -0.022 NA
ATOM      5  N   UNL     1       1.340   2.754  -4.833  0.00  0.00    -0.038 NA
ENDROOT
BRANCH   1  11
ATOM      6  C   UNL     1      -1.769   6.736  -6.867  0.00  0.00    +0.044 C 
ATOM      7  C   UNL     1      -1.857   5.669  -5.807  0.00  0.00    -0.046 A 
ATOM      8  C   UNL     1      -3.079   5.359  -5.238  0.00  0.00    +0.004 A 
ATOM      9  C   UNL     1      -3.164   4.380  -4.265  0.00  0.00    +0.002 A 
ATOM     10  C   UNL     1      -2.027   3.709  -3.858  0.00  0.00    +0.028 A 
ATOM     11  C   UNL     1      -0.799   4.018  -4.427  0.00  0.00    +0.073 A 
ATOM     12  C   UNL     1      -0.716   5.005  -5.400  0.00  0.00    -0.022 A 
ATOM     13  C   UNL     1       0.616   5.348  -6.015  0.00  0.00    +0.046 C 
ENDBRANCH   1  11
BRANCH   2  14
ATOM     14  S   UNL     1      -0.058   3.605  -1.269  0.00  0.00    -0.071 S 
BRANCH  14  15
ATOM     15  C   UNL     1       1.079   2.933  -0.030  0.00  0.00    +0.140 C 
ATOM     16  C   UNL     1       0.611   3.336   1.370  0.00  0.00    +0.024 C 
ATOM     17  C   UNL     1      -0.905   3.373   1.440  0.00  0.00    +0.003 C 
ATOM     18  C   UNL     1      -1.559   2.011   1.292  0.00  0.00    +0.019 C 
ATOM     19  C   UNL     1      -1.347   1.455  -0.123  0.00  0.00    +0.104 C 
ATOM     20  N   UNL     1      -0.059   0.743  -0.153  0.00  0.00    -0.314 N 
ATOM     21  C   UNL     1       1.089   1.421  -0.117  0.00  0.00    +0.226 C 
ATOM     22  O   UNL     1       2.145   0.825  -0.152  0.00  0.00    -0.275 OA
ATOM     23  H   UNL     1      -0.045  -0.226  -0.204  0.00  0.00    +0.149 HD
ENDBRANCH  14  15
ENDBRANCH   2  14
TORSDOF 3
