REMARK  Name = ZINC13582351
REMARK  4 active torsions:
REMARK  status: ('A' for Active; 'I' for Inactive)
REMARK    1  A    between atoms: C_1  and  C_2
REMARK    2  A    between atoms: C_2  and  N_3
REMARK    3  A    between atoms: N_11  and  N_12
REMARK    4  A    between atoms: C_13  and  C_15
REMARK                            x       y       z     vdW  Elec       q    Type
REMARK                         _______ _______ _______ _____ _____    ______ ____
ROOT
ATOM      1  N   UNL     1       3.567  -2.026  -4.441  0.00  0.00    -0.203 N 
ATOM      2  C   UNL     1       4.751  -2.467  -4.910  0.00  0.00    +0.276 C 
ATOM      3  O   UNL     1       5.737  -2.419  -4.207  0.00  0.00    -0.270 OA
ATOM      4  H   UNL     1       2.777  -2.065  -5.004  0.00  0.00    +0.177 HD
ENDROOT
BRANCH   1  13
ATOM      5  N   UNL     1       0.697  -0.391  -1.238  0.00  0.00    -0.266 N 
ATOM      6  C   UNL     1       0.034  -0.915  -2.343  0.00  0.00    +0.046 A 
ATOM      7  C   UNL     1      -1.318  -1.000  -2.655  0.00  0.00    +0.024 A 
ATOM      8  C   UNL     1      -1.721  -1.581  -3.840  0.00  0.00    +0.002 A 
ATOM      9  C   UNL     1      -0.789  -2.086  -4.731  0.00  0.00    +0.001 A 
ATOM     10  C   UNL     1       0.558  -2.011  -4.438  0.00  0.00    +0.012 A 
ATOM     11  C   UNL     1       0.974  -1.427  -3.247  0.00  0.00    +0.028 A 
ATOM     12  C   UNL     1       2.306  -1.194  -2.642  0.00  0.00    +0.153 C 
ATOM     13  N   UNL     1       3.476  -1.512  -3.141  0.00  0.00    -0.174 NA
ATOM     14  C   UNL     1       2.029  -0.519  -1.358  0.00  0.00    +0.271 C 
ATOM     15  O   UNL     1       2.860  -0.147  -0.550  0.00  0.00    -0.268 OA
BRANCH   5  17
ATOM     16  C   UNL     1      -0.141   1.728  -0.350  0.00  0.00    +0.025 C 
ATOM     17  C   UNL     1       0.027   0.230  -0.093  0.00  0.00    +0.111 C 
ENDBRANCH   5  17
ENDBRANCH   1  13
BRANCH   2  18
ATOM     18  C   UNL     1       4.848  -3.020  -6.309  0.00  0.00    +0.297 C 
ATOM     19  C   UNL     1       4.566  -1.906  -7.327  0.00  0.00    +0.283 C 
ATOM     20  O   UNL     1       4.680  -2.461  -8.641  0.00  0.00    -0.484 OA
ATOM     21  C   UNL     1       5.769  -3.242  -8.883  0.00  0.00    +0.162 A 
ATOM     22  C   UNL     1       6.137  -3.510 -10.193  0.00  0.00    +0.049 A 
ATOM     23  C   UNL     1       7.238  -4.303 -10.454  0.00  0.00    +0.004 A 
ATOM     24  C   UNL     1       7.974  -4.833  -9.411  0.00  0.00    +0.004 A 
ATOM     25  C   UNL     1       7.613  -4.569  -8.103  0.00  0.00    +0.049 A 
ATOM     26  C   UNL     1       6.511  -3.772  -7.834  0.00  0.00    +0.163 A 
ATOM     27  O   UNL     1       6.172  -3.515  -6.541  0.00  0.00    -0.472 OA
ENDBRANCH   2  18
TORSDOF 3
