REMARK  Name = ZINC32534242
REMARK  8 active torsions:
REMARK  status: ('A' for Active; 'I' for Inactive)
REMARK    1  A    between atoms: C_1  and  C_2
REMARK    2  A    between atoms: C_2  and  C_3
REMARK    3  A    between atoms: C_3  and  C_4
REMARK    4  A    between atoms: C_11  and  N_20
REMARK    5  A    between atoms: C_12  and  C_18
REMARK    6  A    between atoms: C_13  and  C_15
REMARK    7  A    between atoms: C_15  and  C_16
REMARK    8  A    between atoms: C_15  and  C_17
REMARK                            x       y       z     vdW  Elec       q    Type
REMARK                         _______ _______ _______ _____ _____    ______ ____
ROOT
ATOM      1  C   UNL     1       0.759  -1.493  -1.066  0.00  0.00    +0.070 A 
ATOM      2  C   UNL     1       1.672  -2.482  -0.723  0.00  0.00    +0.045 A 
ATOM      3  C   UNL     1       1.095  -3.696  -0.971  0.00  0.00    +0.222 A 
ATOM      4  N   UNL     1      -0.138  -3.468  -1.453  0.00  0.00    -0.246 N 
ATOM      5  H   UNL     1      -0.781  -4.144  -1.718  0.00  0.00    +0.192 HD
ATOM      6  N   UNL     1      -0.332  -2.079  -1.499  0.00  0.00    -0.176 NA
ATOM      7  O   UNL     1       1.731  -4.870  -0.737  0.00  0.00    -0.423 OA
ATOM      8  C   UNL     1       2.856  -4.834   0.006  0.00  0.00    +0.200 C 
ATOM      9  C   UNL     1       3.523  -3.698   0.306  0.00  0.00    +0.094 C 
ATOM     10  C   UNL     1       3.068  -2.342  -0.173  0.00  0.00    +0.074 C 
ENDROOT
BRANCH  10  11
ATOM     11  C   UNL     1       4.008  -1.840  -1.270  0.00  0.00    -0.004 C 
ATOM     12  C   UNL     1       5.386  -1.554  -0.670  0.00  0.00    +0.008 C 
ATOM     13  C   UNL     1       4.138  -2.908  -2.358  0.00  0.00    +0.008 C 
ENDBRANCH  10  11
BRANCH   8  14
ATOM     14  N   UNL     1       3.352  -6.021   0.486  0.00  0.00    -0.328 N 
ATOM     15  H   UNL     1       2.895  -6.853   0.287  0.00  0.00    +0.145 HD
ATOM     16  H   UNL     1       4.159  -6.027   1.023  0.00  0.00    +0.145 HD
ENDBRANCH   8  14
BRANCH   9  17
ATOM     17  C   UNL     1       4.706  -3.785   1.108  0.00  0.00    +0.100 C 
ATOM     18  N   UNL     1       5.645  -3.853   1.745  0.00  0.00    -0.191 NA
ENDBRANCH   9  17
BRANCH   1  19
ATOM     19  C   UNL     1       0.981  -0.007  -0.953  0.00  0.00    +0.057 C 
BRANCH  19  21
ATOM     20  C   UNL     1       0.642   2.002   0.493  0.00  0.00    +0.004 C 
ATOM     21  C   UNL     1       0.418   0.493   0.379  0.00  0.00    +0.003 C 
ENDBRANCH  19  21
ENDBRANCH   1  19
TORSDOF 5
