REMARK  Name = ZINC01062592
REMARK  12 active torsions:
REMARK  status: ('A' for Active; 'I' for Inactive)
REMARK    1  A    between atoms: C_1  and  O_2
REMARK    2  A    between atoms: O_2  and  C_3
REMARK    3  A    between atoms: C_8  and  N_9
REMARK    4  A    between atoms: N_9  and  C_10
REMARK    5  A    between atoms: C_10  and  N_12
REMARK    6  A    between atoms: N_12  and  C_13
REMARK    7  A    between atoms: C_16  and  N_20
REMARK    8  A    between atoms: N_20  and  C_21
REMARK    9  A    between atoms: C_21  and  N_23
REMARK   10  A    between atoms: N_23  and  C_24
REMARK   11  A    between atoms: C_29  and  O_30
REMARK   12  A    between atoms: O_30  and  C_31
REMARK                            x       y       z     vdW  Elec       q    Type
REMARK                         _______ _______ _______ _____ _____    ______ ____
ROOT
ATOM      1  C   UNL     1      -2.875  -4.178   0.392  0.00  0.00    +0.053 A 
ATOM      2  C   UNL     1      -1.652  -4.733   0.041  0.00  0.00    +0.046 A 
ATOM      3  C   UNL     1      -1.531  -6.101  -0.104  0.00  0.00    +0.064 A 
ATOM      4  C   UNL     1      -2.633  -6.922   0.102  0.00  0.00    +0.053 A 
ATOM      5  C   UNL     1      -3.856  -6.367   0.453  0.00  0.00    +0.046 A 
ATOM      6  C   UNL     1      -3.976  -4.999   0.603  0.00  0.00    +0.064 A 
ATOM      7 CL   UNL     1      -5.504  -4.305   1.048  0.00  0.00    -0.082 Cl
ATOM      8 CL   UNL     1      -0.001  -6.796  -0.543  0.00  0.00    -0.082 Cl
ENDROOT
BRANCH   1   9
ATOM      9  N   UNL     1      -2.997  -2.789   0.540  0.00  0.00    -0.295 N 
ATOM     10  H   UNL     1      -3.552  -2.424   1.247  0.00  0.00    +0.154 HD
BRANCH   9  11
ATOM     11  C   UNL     1      -2.345  -1.962  -0.301  0.00  0.00    +0.139 C 
ATOM     12  S   UNL     1      -1.431  -2.606  -1.598  0.00  0.00    -0.018 S 
BRANCH  11  13
ATOM     13  N   UNL     1      -2.412  -0.628  -0.120  0.00  0.00    -0.294 N 
ATOM     14  H   UNL     1      -2.890  -0.265   0.642  0.00  0.00    +0.154 HD
BRANCH  13  20
ATOM     15  C   UNL     1      -1.152   1.387  -0.582  0.00  0.00    +0.141 A 
ATOM     16  C   UNL     1      -0.541   2.236  -1.490  0.00  0.00    +0.047 A 
ATOM     17  C   UNL     1      -0.566   1.940  -2.840  0.00  0.00    +0.004 A 
ATOM     18  C   UNL     1      -1.200   0.796  -3.289  0.00  0.00    +0.002 A 
ATOM     19  C   UNL     1      -1.813  -0.057  -2.390  0.00  0.00    +0.027 A 
ATOM     20  C   UNL     1      -1.792   0.234  -1.034  0.00  0.00    +0.075 A 
BRANCH  15  22
ATOM     21  C   UNL     1      -0.459   2.878   1.135  0.00  0.00    +0.277 C 
ATOM     22  O   UNL     1      -1.133   1.680   0.745  0.00  0.00    -0.493 OA
ENDBRANCH  15  22
ENDBRANCH  13  20
ENDBRANCH  11  13
ENDBRANCH   9  11
ENDBRANCH   1   9
BRANCH   4  23
ATOM     23  N   UNL     1      -2.510  -8.310  -0.046  0.00  0.00    -0.295 N 
ATOM     24  H   UNL     1      -1.741  -8.771   0.325  0.00  0.00    +0.154 HD
BRANCH  23  25
ATOM     25  C   UNL     1      -3.460  -9.005  -0.702  0.00  0.00    +0.139 C 
ATOM     26  S   UNL     1      -4.751  -8.179  -1.466  0.00  0.00    -0.018 S 
BRANCH  25  27
ATOM     27  N   UNL     1      -3.394 -10.350  -0.758  0.00  0.00    -0.294 N 
ATOM     28  H   UNL     1      -2.705 -10.822  -0.266  0.00  0.00    +0.154 HD
BRANCH  27  29
ATOM     29  C   UNL     1      -4.322 -11.066  -1.526  0.00  0.00    +0.075 A 
ATOM     30  C   UNL     1      -4.659 -10.625  -2.798  0.00  0.00    +0.027 A 
ATOM     31  C   UNL     1      -5.570 -11.335  -3.556  0.00  0.00    +0.002 A 
ATOM     32  C   UNL     1      -6.155 -12.480  -3.047  0.00  0.00    +0.004 A 
ATOM     33  C   UNL     1      -5.828 -12.923  -1.778  0.00  0.00    +0.047 A 
ATOM     34  C   UNL     1      -4.912 -12.219  -1.014  0.00  0.00    +0.141 A 
BRANCH  34  35
ATOM     35  O   UNL     1      -4.589 -12.653   0.234  0.00  0.00    -0.493 OA
ATOM     36  C   UNL     1      -5.233 -13.842   0.694  0.00  0.00    +0.277 C 
ENDBRANCH  34  35
ENDBRANCH  27  29
ENDBRANCH  25  27
ENDBRANCH  23  25
ENDBRANCH   4  23
TORSDOF 10
