REMARK  Name = ZINC51587281
REMARK  5 active torsions:
REMARK  status: ('A' for Active; 'I' for Inactive)
REMARK    1  A    between atoms: C_2  and  C_3
REMARK    2  A    between atoms: C_3  and  N_4
REMARK    3  A    between atoms: C_5  and  C_7
REMARK    4  A    between atoms: C_7  and  N_8
REMARK    5  A    between atoms: N_11  and  C_12
REMARK                            x       y       z     vdW  Elec       q    Type
REMARK                         _______ _______ _______ _____ _____    ______ ____
ROOT
ATOM      1  N   UNL     1       1.857   7.166  -0.556  0.00  0.00    -0.291 N 
ATOM      2  C   UNL     1       3.017   7.853  -0.570  0.00  0.00    +0.304 C 
ATOM      3  O   UNL     1       3.070   8.946  -1.099  0.00  0.00    -0.252 OA
ATOM      4  N   UNL     1       4.118   7.327   0.002  0.00  0.00    -0.269 N 
ATOM      5  H   UNL     1       1.815   6.294  -0.134  0.00  0.00    +0.151 HD
ATOM      6  H   UNL     1       4.061   6.486   0.482  0.00  0.00    +0.156 HD
ENDROOT
BRANCH   4   7
ATOM      7  C   UNL     1       5.346   7.995  -0.097  0.00  0.00    +0.038 A 
ATOM      8  C   UNL     1       6.524   7.270  -0.213  0.00  0.00    +0.027 A 
ATOM      9  C   UNL     1       7.736   7.927  -0.310  0.00  0.00    +0.051 A 
ATOM     10  C   UNL     1       7.778   9.312  -0.292  0.00  0.00    +0.167 A 
ATOM     11  C   UNL     1       6.598  10.043  -0.176  0.00  0.00    +0.169 A 
ATOM     12  C   UNL     1       5.384   9.383  -0.083  0.00  0.00    +0.073 A 
ATOM     13  O   UNL     1       6.905  11.374  -0.183  0.00  0.00    -0.447 OA
ATOM     14  C   UNL     1       8.312  11.442   0.091  0.00  0.00    +0.254 C 
ATOM     15  O   UNL     1       8.827  10.186  -0.373  0.00  0.00    -0.448 OA
ATOM     16  C   UNL     1       8.554  11.597   1.588  0.00  0.00    +0.093 C 
ATOM     17  C   UNL     1       7.963  12.926   2.066  0.00  0.00    +0.008 C 
ATOM     18  C   UNL     1       8.622  14.078   1.305  0.00  0.00    +0.000 C 
ATOM     19  C   UNL     1       8.357  13.921  -0.194  0.00  0.00    +0.008 C 
ATOM     20  C   UNL     1       8.947  12.595  -0.679  0.00  0.00    +0.093 C 
ENDBRANCH   4   7
BRANCH   1  21
ATOM     21  C   UNL     1       0.660   7.738  -1.177  0.00  0.00    +0.201 C 
BRANCH  21  23
ATOM     22  N   UNL     1      -1.703   7.095  -1.524  0.00  0.00    -0.303 N 
ATOM     23  C   UNL     1      -0.492   6.778  -1.025  0.00  0.00    +0.231 C 
ATOM     24  O   UNL     1      -0.329   5.721  -0.454  0.00  0.00    -0.274 OA
ATOM     25  H   UNL     1      -1.833   7.940  -1.981  0.00  0.00    +0.150 HD
BRANCH  22  26
ATOM     26  C   UNL     1      -2.823   6.162  -1.376  0.00  0.00    +0.193 C 
BRANCH  26  28
ATOM     27  C   UNL     1      -4.985   7.194  -2.499  0.00  0.00    +0.005 C 
ATOM     28  C   UNL     1      -4.026   6.736  -2.001  0.00  0.00    -0.087 C 
ENDBRANCH  26  28
ENDBRANCH  22  26
ENDBRANCH  21  23
ENDBRANCH   1  21
TORSDOF 5
