REMARK  Name = ZINC48456151
REMARK  11 active torsions:
REMARK  status: ('A' for Active; 'I' for Inactive)
REMARK    1  A    between atoms: C_1  and  C_2
REMARK    2  A    between atoms: C_2  and  C_3
REMARK    3  A    between atoms: C_2  and  O_4
REMARK    4  A    between atoms: O_4  and  C_5
REMARK    5  A    between atoms: C_8  and  N_11
REMARK    6  A    between atoms: N_14  and  C_15
REMARK    7  A    between atoms: C_15  and  C_16
REMARK    8  A    between atoms: C_16  and  C_18
REMARK    9  A    between atoms: C_16  and  N_23
REMARK   10  A    between atoms: N_23  and  C_24
REMARK   11  A    between atoms: N_23  and  C_25
REMARK                            x       y       z     vdW  Elec       q    Type
REMARK                         _______ _______ _______ _____ _____    ______ ____
ROOT
ATOM      1  N   UNL     1      -2.474  -5.322  -2.560  0.00  0.00    -0.269 N 
ATOM      2  C   UNL     1      -3.761  -5.620  -2.824  0.00  0.00    +0.304 C 
ATOM      3  O   UNL     1      -4.651  -4.922  -2.377  0.00  0.00    -0.253 OA
ATOM      4  N   UNL     1      -4.063  -6.692  -3.584  0.00  0.00    -0.300 N 
ATOM      5  H   UNL     1      -1.768  -5.917  -2.857  0.00  0.00    +0.156 HD
ATOM      6  H   UNL     1      -3.353  -7.249  -3.940  0.00  0.00    +0.150 HD
ENDROOT
BRANCH   1  10
ATOM      7  C   UNL     1      -1.525  -1.843  -0.466  0.00  0.00    +0.121 A 
ATOM      8  C   UNL     1      -2.678  -2.548  -0.154  0.00  0.00    +0.047 A 
ATOM      9  C   UNL     1      -2.993  -3.700  -0.847  0.00  0.00    +0.027 A 
ATOM     10  C   UNL     1      -2.155  -4.153  -1.857  0.00  0.00    +0.035 A 
ATOM     11  C   UNL     1      -1.001  -3.447  -2.169  0.00  0.00    +0.027 A 
ATOM     12  C   UNL     1      -0.690  -2.292  -1.479  0.00  0.00    +0.047 A 
BRANCH   7  13
ATOM     13  O   UNL     1      -1.215  -0.709   0.217  0.00  0.00    -0.489 OA
BRANCH  13  15
ATOM     14  C   UNL     1      -0.302   1.520   0.015  0.00  0.00    +0.051 C 
ATOM     15  C   UNL     1      -0.075   0.027  -0.230  0.00  0.00    +0.167 C 
ATOM     16  C   UNL     1       1.164  -0.434   0.542  0.00  0.00    +0.051 C 
ENDBRANCH  13  15
ENDBRANCH   7  13
ENDBRANCH   1  10
BRANCH   4  17
ATOM     17  C   UNL     1      -5.463  -7.016  -3.871  0.00  0.00    +0.095 C 
BRANCH  17  18
ATOM     18  C   UNL     1      -5.533  -8.337  -4.639  0.00  0.00    -0.020 C 
BRANCH  18  19
ATOM     19  C   UNL     1      -5.024  -9.454  -3.765  0.00  0.00    -0.052 A 
ATOM     20  C   UNL     1      -3.734  -9.928  -3.913  0.00  0.00    +0.009 A 
ATOM     21  C   UNL     1      -3.307 -10.934  -3.111  0.00  0.00    +0.045 A 
ATOM     22  S   UNL     1      -4.749 -11.242  -2.105  0.00  0.00    -0.105 S 
ATOM     23  C   UNL     1      -5.822 -10.006  -2.818  0.00  0.00    +0.047 A 
ENDBRANCH  18  19
BRANCH  18  24
ATOM     24  N   UNL     1      -6.926  -8.609  -5.018  0.00  0.00    +0.382 N 
ATOM     25  C   UNL     1      -7.388  -7.578  -5.958  0.00  0.00    -0.096 C 
ATOM     26  C   UNL     1      -7.011  -9.928  -5.659  0.00  0.00    -0.096 C 
ATOM     27  H   UNL     1      -7.508  -8.598  -4.194  0.00  0.00    -0.082 HD
ENDBRANCH  18  24
ENDBRANCH  17  18
ENDBRANCH   4  17
TORSDOF 7
