REMARK  Name = ZINC04311508
REMARK  4 active torsions:
REMARK  status: ('A' for Active; 'I' for Inactive)
REMARK    1  A    between atoms: C_10  and  C_18
REMARK    2  A    between atoms: C_12  and  C_16
REMARK    3  A    between atoms: C_13  and  N_15
REMARK    4  A    between atoms: C_22  and  N_24
REMARK                            x       y       z     vdW  Elec       q    Type
REMARK                         _______ _______ _______ _____ _____    ______ ____
ROOT
ATOM      1  C   UNL     1      -0.017   1.372   0.010  0.00  0.00    +0.002 A 
ATOM      2  C   UNL     1       1.170   2.091   0.002  0.00  0.00    +0.002 A 
ATOM      3  C   UNL     1       2.384   1.437  -0.013  0.00  0.00    +0.028 A 
ATOM      4  C   UNL     1       2.424   0.051  -0.020  0.00  0.00    +0.071 A 
ATOM      5  C   UNL     1       1.223  -0.683  -0.013  0.00  0.00    +0.091 A 
ATOM      6  C   UNL     1       0.002  -0.004   0.002  0.00  0.00    +0.030 A 
ATOM      7  N   UNL     1       1.556  -2.002  -0.025  0.00  0.00    -0.214 NA
ATOM      8  C   UNL     1       2.852  -2.125  -0.039  0.00  0.00    +0.203 A 
ATOM      9  N   UNL     1       3.437  -0.882  -0.033  0.00  0.00    -0.299 N 
ATOM     10  C   UNL     1       4.884  -0.670  -0.036  0.00  0.00    +0.164 C 
ATOM     11  C   UNL     1       5.583  -1.964  -0.352  0.00  0.00    +0.092 C 
ATOM     12  C   UNL     1       4.954  -3.164  -0.347  0.00  0.00    +0.104 C 
ATOM     13  N   UNL     1       3.611  -3.287  -0.059  0.00  0.00    -0.273 N 
ATOM     14  H   UNL     1       3.211  -4.152   0.123  0.00  0.00    +0.156 HD
ENDROOT
BRANCH  10  15
ATOM     15  C   UNL     1       5.322  -0.183   1.321  0.00  0.00    -0.017 A 
ATOM     16  C   UNL     1       5.106  -0.966   2.440  0.00  0.00    +0.006 A 
ATOM     17  C   UNL     1       5.508  -0.518   3.685  0.00  0.00    +0.003 A 
ATOM     18  C   UNL     1       6.126   0.712   3.811  0.00  0.00    +0.033 A 
ATOM     19  C   UNL     1       6.343   1.494   2.692  0.00  0.00    +0.127 A 
ATOM     20  C   UNL     1       5.945   1.045   1.446  0.00  0.00    +0.038 A 
BRANCH  19  21
ATOM     21  N   UNL     1       7.005   2.811   2.827  0.00  0.00    +0.056 N 
ATOM     22  O   UNL     1       7.356   3.202   3.916  0.00  0.00    -0.126 OA
ATOM     23  O   UNL     1       7.195   3.495   1.849  0.00  0.00    -0.126 OA
ENDBRANCH  19  21
ENDBRANCH  10  15
BRANCH  12  24
ATOM     24  N   UNL     1       5.678  -4.296  -0.638  0.00  0.00    -0.345 N 
ATOM     25  H   UNL     1       6.623  -4.227  -0.843  0.00  0.00    +0.144 HD
ATOM     26  H   UNL     1       5.243  -5.163  -0.638  0.00  0.00    +0.144 HD
ENDBRANCH  12  24
BRANCH  11  27
ATOM     27  C   UNL     1       6.978  -1.925  -0.674  0.00  0.00    +0.100 C 
ATOM     28  N   UNL     1       8.085  -1.895  -0.929  0.00  0.00    -0.191 NA
ENDBRANCH  11  27
TORSDOF 4
