REMARK  Name = ZINC06922359
REMARK  7 active torsions:
REMARK  status: ('A' for Active; 'I' for Inactive)
REMARK    1  A    between atoms: C_1  and  C_2
REMARK    2  A    between atoms: C_5  and  N_9
REMARK    3  A    between atoms: C_6  and  C_8
REMARK    4  A    between atoms: C_14  and  C_15
REMARK    5  A    between atoms: C_18  and  O_23
REMARK    6  A    between atoms: C_19  and  O_21
REMARK    7  A    between atoms: O_21  and  C_22
REMARK                            x       y       z     vdW  Elec       q    Type
REMARK                         _______ _______ _______ _____ _____    ______ ____
ROOT
ATOM      1  N   UNL     1      -0.635  -4.066  -0.074  0.00  0.00    -0.225 NA
ATOM      2  C   UNL     1      -0.562  -4.739  -1.200  0.00  0.00    +0.166 C 
ATOM      3  N   UNL     1      -0.499  -4.250  -2.487  0.00  0.00    -0.260 N 
ATOM      4  C   UNL     1      -0.429  -5.075  -3.518  0.00  0.00    +0.256 C 
ATOM      5  C   UNL     1      -0.423  -6.520  -3.220  0.00  0.00    +0.078 C 
ATOM      6  C   UNL     1      -0.359  -7.575  -4.072  0.00  0.00    +0.028 C 
ATOM      7  S   UNL     1      -0.515  -6.508  -1.436  0.00  0.00    -0.049 S 
ATOM      8  O   UNL     1      -0.372  -4.661  -4.662  0.00  0.00    -0.269 OA
ATOM      9  H   UNL     1      -0.505  -3.292  -2.638  0.00  0.00    +0.157 HD
ENDROOT
BRANCH   1  14
ATOM     10  C   UNL     1      -0.992   1.567  -0.166  0.00  0.00    +0.044 C 
ATOM     11  C   UNL     1      -0.896   0.063  -0.141  0.00  0.00    -0.050 A 
ATOM     12  C   UNL     1      -1.739  -0.694  -0.936  0.00  0.00    +0.005 A 
ATOM     13  C   UNL     1      -1.658  -2.070  -0.919  0.00  0.00    +0.028 A 
ATOM     14  C   UNL     1      -0.721  -2.701  -0.096  0.00  0.00    +0.069 A 
ATOM     15  C   UNL     1       0.127  -1.931   0.703  0.00  0.00    -0.025 A 
ATOM     16  C   UNL     1       0.038  -0.555   0.671  0.00  0.00    +0.008 A 
ATOM     17  C   UNL     1       1.141  -2.602   1.594  0.00  0.00    +0.046 C 
ENDBRANCH   1  14
BRANCH   6  18
ATOM     18  C   UNL     1      -0.538  -8.941  -3.564  0.00  0.00    -0.020 A 
ATOM     19  C   UNL     1      -1.112  -9.152  -2.305  0.00  0.00    +0.012 A 
ATOM     20  C   UNL     1      -1.278 -10.435  -1.831  0.00  0.00    +0.050 A 
ATOM     21  C   UNL     1      -0.877 -11.521  -2.599  0.00  0.00    +0.158 A 
ATOM     22  C   UNL     1      -0.305 -11.319  -3.854  0.00  0.00    +0.162 A 
ATOM     23  C   UNL     1      -0.140 -10.037  -4.340  0.00  0.00    +0.057 A 
BRANCH  22  24
ATOM     24  O   UNL     1       0.086 -12.385  -4.602  0.00  0.00    -0.491 OA
ATOM     25  C   UNL     1       0.665 -12.105  -5.878  0.00  0.00    +0.277 C 
ENDBRANCH  22  24
BRANCH  21  26
ATOM     26  O   UNL     1      -1.044 -12.783  -2.125  0.00  0.00    -0.503 OA
ATOM     27  H   UNL     1      -1.893 -13.182  -2.359  0.00  0.00    +0.292 HD
ENDBRANCH  21  26
ENDBRANCH   6  18
TORSDOF 4
