REMARK  Name = ZINC59459474
REMARK  5 active torsions:
REMARK  status: ('A' for Active; 'I' for Inactive)
REMARK    1  A    between atoms: C_1  and  O_2
REMARK    2  A    between atoms: O_2  and  C_3
REMARK    3  A    between atoms: C_5  and  C_11
REMARK    4  A    between atoms: C_8  and  O_9
REMARK    5  A    between atoms: N_19  and  C_20
REMARK                            x       y       z     vdW  Elec       q    Type
REMARK                         _______ _______ _______ _____ _____    ______ ____
ROOT
ATOM      1  C   UNL     1       1.451  -0.436  -3.535  0.00  0.00    +0.191 C 
ATOM      2  N   UNL     1       1.782  -0.906  -4.887  0.00  0.00    -0.307 N 
ATOM      3  C   UNL     1       0.869  -0.612  -5.901  0.00  0.00    +0.125 A 
ATOM      4  C   UNL     1       0.054   0.490  -5.718  0.00  0.00    +0.115 A 
ATOM      5  S   UNL     1      -0.916   0.516  -7.190  0.00  0.00    -0.055 S 
ATOM      6  C   UNL     1      -0.260  -0.843  -7.938  0.00  0.00    +0.132 A 
ATOM      7  S   UNL     1      -0.675  -1.518  -9.456  0.00  0.00    -0.024 S 
ATOM      8  N   UNL     1       0.672  -1.276  -7.061  0.00  0.00    -0.285 N 
ATOM      9  C   UNL     1       0.081   1.309  -4.590  0.00  0.00    +0.256 C 
ATOM     10  O   UNL     1      -0.563   2.342  -4.535  0.00  0.00    -0.269 OA
ATOM     11  N   UNL     1       0.860   0.901  -3.557  0.00  0.00    -0.289 N 
ATOM     12  H   UNL     1       2.599  -1.398  -5.067  0.00  0.00    +0.150 HD
ATOM     13  H   UNL     1       1.027   1.508  -2.819  0.00  0.00    +0.151 HD
ENDROOT
BRANCH   1  16
ATOM     14  C   UNL     1      -1.331  -1.821  -1.387  0.00  0.00    +0.163 A 
ATOM     15  C   UNL     1      -0.430  -0.940  -1.965  0.00  0.00    +0.056 A 
ATOM     16  C   UNL     1       0.473  -1.395  -2.908  0.00  0.00    -0.005 A 
ATOM     17  C   UNL     1       0.480  -2.727  -3.276  0.00  0.00    +0.026 A 
ATOM     18  C   UNL     1      -0.416  -3.611  -2.703  0.00  0.00    +0.063 A 
ATOM     19  C   UNL     1      -1.320  -3.163  -1.752  0.00  0.00    +0.173 A 
ATOM     20 BR   UNL     1      -0.403  -5.433  -3.211  0.00  0.00    -0.046 Br
BRANCH  14  22
ATOM     21  C   UNL     1      -2.175   0.016  -0.133  0.00  0.00    +0.277 C 
ATOM     22  O   UNL     1      -2.220  -1.374  -0.460  0.00  0.00    -0.491 OA
ENDBRANCH  14  22
BRANCH  19  23
ATOM     23  O   UNL     1      -2.199  -4.031  -1.184  0.00  0.00    -0.503 OA
ATOM     24  H   UNL     1      -3.036  -4.113  -1.661  0.00  0.00    +0.292 HD
ENDBRANCH  19  23
ENDBRANCH   1  16
BRANCH   8  25
ATOM     25  C   UNL     1       1.434  -2.414  -7.355  0.00  0.00    +0.049 A 
ATOM     26  C   UNL     1       2.659  -2.284  -7.996  0.00  0.00    +0.026 A 
ATOM     27  C   UNL     1       3.409  -3.408  -8.284  0.00  0.00    +0.002 A 
ATOM     28  C   UNL     1       2.941  -4.661  -7.934  0.00  0.00    +0.000 A 
ATOM     29  C   UNL     1       1.721  -4.794  -7.295  0.00  0.00    +0.002 A 
ATOM     30  C   UNL     1       0.970  -3.673  -7.000  0.00  0.00    +0.026 A 
ENDBRANCH   8  25
TORSDOF 4
