REMARK  Name = ZINC38999617
REMARK  5 active torsions:
REMARK  status: ('A' for Active; 'I' for Inactive)
REMARK    1  A    between atoms: C_1  and  C_2
REMARK    2  A    between atoms: C_4  and  C_8
REMARK    3  A    between atoms: N_10  and  N_11
REMARK    4  A    between atoms: C_12  and  C_13
REMARK    5  A    between atoms: C_18  and  O_19
REMARK                            x       y       z     vdW  Elec       q    Type
REMARK                         _______ _______ _______ _____ _____    ______ ____
ROOT
ATOM      1  N   UNL     1      -2.588  -4.173   2.448  0.00  0.00    -0.188 NA
ATOM      2  C   UNL     1      -3.776  -4.691   2.516  0.00  0.00    +0.142 C 
ENDROOT
BRANCH   2   3
ATOM      3  C   UNL     1      -4.193  -5.423   3.725  0.00  0.00    +0.038 A 
ATOM      4  C   UNL     1      -5.469  -5.987   3.799  0.00  0.00    +0.027 A 
ATOM      5  C   UNL     1      -5.853  -6.671   4.934  0.00  0.00    +0.015 A 
ATOM      6  C   UNL     1      -4.979  -6.802   6.000  0.00  0.00    +0.032 A 
ATOM      7  C   UNL     1      -3.714  -6.248   5.938  0.00  0.00    +0.056 A 
ATOM      8  C   UNL     1      -3.310  -5.563   4.803  0.00  0.00    +0.139 A 
ATOM      9  I   UNL     1      -2.402  -6.453   7.559  0.00  0.00    -0.040 I 
ATOM     10  I   UNL     1      -7.767  -7.516   5.044  0.00  0.00    -0.044 I 
BRANCH   8  11
ATOM     11  O   UNL     1      -2.065  -5.024   4.740  0.00  0.00    -0.505 OA
ATOM     12  H   UNL     1      -2.011  -4.117   5.070  0.00  0.00    +0.292 HD
ENDBRANCH   8  11
ENDBRANCH   2   3
BRANCH   1  15
ATOM     13  C   UNL     1      -0.958  -2.939   1.229  0.00  0.00    +0.262 C 
ATOM     14  O   UNL     1      -0.190  -3.058   2.161  0.00  0.00    -0.271 OA
ATOM     15  N   UNL     1      -2.191  -3.477   1.299  0.00  0.00    -0.205 N 
ATOM     16  H   UNL     1      -2.805  -3.381   0.554  0.00  0.00    +0.177 HD
BRANCH  13  20
ATOM     17  C   UNL     1      -0.018   1.503   0.010  0.00  0.00    +0.067 C 
ATOM     18  C   UNL     1       0.002  -0.004   0.002  0.00  0.00    +0.059 C 
ATOM     19  C   UNL     1      -1.086  -0.777   0.003  0.00  0.00    +0.035 C 
ATOM     20  C   UNL     1      -0.531  -2.190  -0.007  0.00  0.00    +0.240 C 
ATOM     21  N   UNL     1       0.926  -1.973  -0.013  0.00  0.00    -0.170 NA
ATOM     22  N   UNL     1       1.125  -0.756  -0.013  0.00  0.00    -0.159 NA
ENDBRANCH  13  20
ENDBRANCH   1  15
TORSDOF 4
