REMARK  Name = ZINC63908666
REMARK  3 active torsions:
REMARK  status: ('A' for Active; 'I' for Inactive)
REMARK    1  A    between atoms: C_7  and  C_10
REMARK    2  A    between atoms: C_16  and  C_18
REMARK    3  A    between atoms: N_21  and  C_24
REMARK                            x       y       z     vdW  Elec       q    Type
REMARK                         _______ _______ _______ _____ _____    ______ ____
ROOT
ATOM      1  C   UNL     1       2.256  -3.669   0.249  0.00  0.00    +0.020 C 
ATOM      2  C   UNL     1       1.877  -4.502   1.477  0.00  0.00    +0.027 C 
ATOM      3  C   UNL     1       0.534  -5.194   1.225  0.00  0.00    +0.108 C 
ATOM      4  N   UNL     1       0.626  -5.965  -0.023  0.00  0.00    -0.301 N 
ATOM      5  C   UNL     1       1.069  -5.281  -1.245  0.00  0.00    +0.108 C 
ATOM      6  C   UNL     1       2.406  -4.588  -0.965  0.00  0.00    +0.027 C 
ATOM      7  C   UNL     1       0.311  -7.276  -0.045  0.00  0.00    +0.219 C 
ATOM      8  O   UNL     1       0.024  -7.848   0.986  0.00  0.00    -0.275 OA
ENDROOT
BRANCH   1  15
ATOM      9  C   UNL     1       3.402   0.773   0.341  0.00  0.00    +0.001 A 
ATOM     10  C   UNL     1       4.756   0.998   0.626  0.00  0.00    +0.002 A 
ATOM     11  C   UNL     1       5.631  -0.005   0.850  0.00  0.00    +0.026 A 
ATOM     12  C   UNL     1       5.199  -1.359   0.805  0.00  0.00    +0.043 A 
ATOM     13  N   UNL     1       5.842  -2.488   0.983  0.00  0.00    -0.380 N 
ATOM     14  C   UNL     1       4.896  -3.597   0.818  0.00  0.00    +0.145 C 
ATOM     15  C   UNL     1       3.560  -2.960   0.507  0.00  0.00    -0.038 C 
ATOM     16  C   UNL     1       3.773  -1.624   0.506  0.00  0.00    -0.001 A 
ATOM     17  C   UNL     1       2.888  -0.476   0.275  0.00  0.00    +0.010 A 
ATOM     18  H   UNL     1       6.786  -2.575   1.190  0.00  0.00    +0.160 HD
ENDBRANCH   1  15
BRANCH   7  19
ATOM     19  C   UNL     1       0.316  -8.030  -1.349  0.00  0.00    +0.078 C 
ATOM     20  C   UNL     1      -1.007  -7.791  -2.083  0.00  0.00    +0.028 C 
ATOM     21  C   UNL     1      -1.021  -8.608  -3.377  0.00  0.00    +0.090 C 
ATOM     22  N   UNL     1      -0.867 -10.033  -3.060  0.00  0.00    -0.252 NA
ATOM     23  C   UNL     1       0.418 -10.293  -2.398  0.00  0.00    +0.090 C 
ATOM     24  C   UNL     1       0.475  -9.527  -1.074  0.00  0.00    +0.028 C 
BRANCH  22  25
ATOM     25  C   UNL     1      -1.014 -10.860  -4.266  0.00  0.00    +0.340 C 
ATOM     26  N   UNL     1       0.088 -10.594  -5.199  0.00  0.00    -0.294 N 
ATOM     27  C   UNL     1       0.766 -11.811  -5.362  0.00  0.00    +0.073 A 
ATOM     28  C   UNL     1       1.878 -12.140  -6.126  0.00  0.00    +0.027 A 
ATOM     29  C   UNL     1       2.364 -13.434  -6.118  0.00  0.00    +0.002 A 
ATOM     30  C   UNL     1       1.744 -14.401  -5.350  0.00  0.00    +0.004 A 
ATOM     31  C   UNL     1       0.637 -14.081  -4.588  0.00  0.00    +0.048 A 
ATOM     32  C   UNL     1       0.140 -12.783  -4.589  0.00  0.00    +0.145 A 
ATOM     33  O   UNL     1      -0.921 -12.246  -3.927  0.00  0.00    -0.456 OA
ATOM     34  H   UNL     1       0.305  -9.747  -5.618  0.00  0.00    +0.151 HD
ENDBRANCH  22  25
ENDBRANCH   7  19
TORSDOF 3
