REMARK  Name = ZINC38994284
REMARK  9 active torsions:
REMARK  status: ('A' for Active; 'I' for Inactive)
REMARK    1  A    between atoms: C_1  and  C_2
REMARK    2  A    between atoms: C_5  and  C_34
REMARK    3  A    between atoms: C_6  and  N_8
REMARK    4  A    between atoms: C_9  and  C_11
REMARK    5  A    between atoms: C_11  and  S_12
REMARK    6  A    between atoms: S_12  and  C_13
REMARK    7  A    between atoms: C_17  and  C_21
REMARK    8  A    between atoms: N_19  and  N_20
REMARK    9  A    between atoms: C_24  and  C_27
REMARK                            x       y       z     vdW  Elec       q    Type
REMARK                         _______ _______ _______ _____ _____    ______ ____
ROOT
ATOM      1  C   UNL     1      -0.394  -3.107   7.470  0.00  0.00    +0.214 C 
ATOM      2  N   UNL     1      -1.678  -3.844   7.334  0.00  0.00    -0.228 NA
ATOM      3  N   UNL     1      -1.425  -5.092   8.071  0.00  0.00    -0.234 NA
ATOM      4  C   UNL     1      -0.017  -5.428   7.758  0.00  0.00    +0.185 C 
ATOM      5  N   UNL     1       0.644  -4.160   7.377  0.00  0.00    -0.197 NA
ATOM      6  H   UNL     1      -1.886  -4.033   6.365  0.00  0.00    +0.143 HD
ATOM      7  H   UNL     1      -2.048  -5.825   7.767  0.00  0.00    +0.143 HD
ENDROOT
BRANCH   4   8
ATOM      8  C   UNL     1       0.666  -6.024   8.990  0.00  0.00    +0.187 C 
ATOM      9  C   UNL     1       0.019  -7.342   9.377  0.00  0.00    +0.034 C 
ATOM     10  C   UNL     1      -0.458  -7.116  10.616  0.00  0.00    +0.091 C 
ATOM     11  N   UNL     1      -0.178  -5.845  11.007  0.00  0.00    -0.154 NA
ATOM     12  N   UNL     1       0.441  -5.176  10.172  0.00  0.00    -0.176 NA
BRANCH  10  13
ATOM     13  C   UNL     1      -1.188  -8.113  11.438  0.00  0.00    +0.002 A 
ATOM     14  C   UNL     1      -1.417  -9.395  10.941  0.00  0.00    +0.011 A 
ATOM     15  C   UNL     1      -2.096 -10.319  11.709  0.00  0.00    +0.020 A 
ATOM     16  C   UNL     1      -2.549  -9.974  12.971  0.00  0.00    +0.041 A 
ATOM     17  C   UNL     1      -2.322  -8.702  13.469  0.00  0.00    +0.020 A 
ATOM     18  C   UNL     1      -1.639  -7.773  12.711  0.00  0.00    +0.011 A 
ATOM     19 CL   UNL     1      -3.402 -11.141  13.932  0.00  0.00    -0.084 Cl
ENDBRANCH  10  13
ENDBRANCH   4   8
BRANCH   5  20
ATOM     20  N   UNL     1       1.186  -4.240   6.030  0.00  0.00    -0.264 NA
ATOM     21  H   UNL     1       1.678  -3.393   5.788  0.00  0.00    +0.137 HD
ATOM     22  H   UNL     1       1.784  -5.047   5.928  0.00  0.00    +0.137 HD
ENDBRANCH   5  20
BRANCH   1  23
ATOM     23  S   UNL     1      -0.205  -1.908   6.122  0.00  0.00    -0.115 S 
BRANCH  23  24
ATOM     24  C   UNL     1      -1.320  -0.553   6.580  0.00  0.00    +0.168 C 
BRANCH  24  26
ATOM     25  N   UNL     1      -2.119   1.569   5.592  0.00  0.00    -0.285 N 
ATOM     26  C   UNL     1      -1.352   0.468   5.472  0.00  0.00    +0.227 C 
ATOM     27  O   UNL     1      -0.687   0.298   4.472  0.00  0.00    -0.275 OA
ATOM     28  H   UNL     1      -2.584   1.748   6.424  0.00  0.00    +0.155 HD
BRANCH  25  34
ATOM     29  C   UNL     1      -1.937   2.402   0.750  0.00  0.00    +0.044 C 
ATOM     30  C   UNL     1      -2.160   2.887   2.160  0.00  0.00    -0.049 A 
ATOM     31  C   UNL     1      -2.488   4.210   2.391  0.00  0.00    +0.004 A 
ATOM     32  C   UNL     1      -2.695   4.659   3.683  0.00  0.00    +0.005 A 
ATOM     33  C   UNL     1      -2.573   3.785   4.746  0.00  0.00    -0.029 A 
ATOM     34  C   UNL     1      -2.243   2.456   4.517  0.00  0.00    +0.037 A 
ATOM     35  C   UNL     1      -2.042   2.008   3.218  0.00  0.00    +0.027 A 
ATOM     36  C   UNL     1      -2.797   4.275   6.154  0.00  0.00    +0.045 C 
ENDBRANCH  25  34
ENDBRANCH  24  26
ENDBRANCH  23  24
ENDBRANCH   1  23
TORSDOF 7
