REMARK  Name = ZINC32508903
REMARK  9 active torsions:
REMARK  status: ('A' for Active; 'I' for Inactive)
REMARK    1  A    between atoms: C_1  and  C_2
REMARK    2  A    between atoms: C_2  and  C_3
REMARK    3  A    between atoms: C_3  and  N_4
REMARK    4  A    between atoms: C_9  and  C_13
REMARK    5  A    between atoms: N_11  and  C_12
REMARK    6  A    between atoms: N_16  and  C_17
REMARK    7  A    between atoms: C_18  and  C_24
REMARK    8  A    between atoms: N_20  and  C_23
REMARK    9  A    between atoms: C_21  and  C_22
REMARK                            x       y       z     vdW  Elec       q    Type
REMARK                         _______ _______ _______ _____ _____    ______ ____
ROOT
ATOM      1  N   UNL     1       1.545   1.992   1.001  0.00  0.00    -0.279 N 
ATOM      2  C   UNL     1       0.707   1.334   1.832  0.00  0.00    +0.281 A 
ATOM      3  O   UNL     1       0.797   0.128   1.982  0.00  0.00    -0.265 OA
ATOM      4  C   UNL     1      -0.279   2.076   2.519  0.00  0.00    +0.152 A 
ATOM      5  C   UNL     1      -0.343   3.461   2.320  0.00  0.00    +0.120 A 
ATOM      6  C   UNL     1      -1.396   3.943   3.120  0.00  0.00    +0.086 A 
ATOM      7  N   UNL     1      -1.940   2.937   3.750  0.00  0.00    -0.174 NA
ATOM      8  N   UNL     1      -1.269   1.755   3.409  0.00  0.00    -0.260 N 
ATOM      9  C   UNL     1      -1.574   0.414   3.915  0.00  0.00    +0.173 C 
ATOM     10  C   UNL     1      -1.834   5.382   3.220  0.00  0.00    +0.070 C 
ATOM     11  N   UNL     1       0.533   4.050   1.470  0.00  0.00    -0.212 NA
ATOM     12  C   UNL     1       1.438   3.343   0.838  0.00  0.00    +0.203 A 
ATOM     13  N   UNL     1       2.306   3.982  -0.016  0.00  0.00    -0.282 N 
ATOM     14  H   UNL     1       3.003   3.395  -0.631  0.00  0.00    +0.155 HD
ENDROOT
BRANCH  13  15
ATOM     15  C   UNL     1       2.302   5.387  -0.102  0.00  0.00    +0.077 A 
ATOM     16  C   UNL     1       1.190   6.194  -0.385  0.00  0.00    +0.081 A 
ATOM     17  N   UNL     1       1.577   7.444  -0.379  0.00  0.00    -0.175 NA
ATOM     18  N   UNL     1       2.947   7.481  -0.092  0.00  0.00    -0.270 N 
ATOM     19  C   UNL     1       3.372   6.202   0.081  0.00  0.00    +0.057 A 
ATOM     20  C   UNL     1       4.776   5.767   0.411  0.00  0.00    +0.067 C 
ATOM     21  C   UNL     1       3.775   8.685   0.010  0.00  0.00    +0.172 C 
ATOM     22  C   UNL     1      -0.210   5.705  -0.650  0.00  0.00    +0.069 C 
ENDBRANCH  13  15
BRANCH   1  23
ATOM     23  C   UNL     1       2.574   1.249   0.269  0.00  0.00    +0.128 C 
BRANCH  23  25
ATOM     24  C   UNL     1       3.085   0.012  -1.841  0.00  0.00    +0.005 C 
ATOM     25  C   UNL     1       2.010   0.787  -1.076  0.00  0.00    +0.018 C 
ENDBRANCH  23  25
ENDBRANCH   1  23
TORSDOF 3
