REMARK  Name = ZINC48007217
REMARK  9 active torsions:
REMARK  status: ('A' for Active; 'I' for Inactive)
REMARK    1  A    between atoms: C_1  and  C_2
REMARK    2  A    between atoms: N_7  and  C_8
REMARK    3  A    between atoms: C_8  and  C_9
REMARK    4  A    between atoms: C_8  and  C_10
REMARK    5  A    between atoms: C_10  and  N_11
REMARK    6  A    between atoms: N_14  and  C_15
REMARK    7  A    between atoms: C_15  and  C_16
REMARK    8  A    between atoms: C_16  and  C_17
REMARK    9  A    between atoms: C_17  and  N_18
REMARK                            x       y       z     vdW  Elec       q    Type
REMARK                         _______ _______ _______ _____ _____    ______ ____
ROOT
ATOM      1  N   UNL     1      -0.780   1.937   0.765  0.00  0.00    -0.301 N 
ATOM      2  C   UNL     1      -1.053   3.210   0.418  0.00  0.00    +0.300 C 
ATOM      3  O   UNL     1      -0.598   4.129   1.071  0.00  0.00    -0.253 OA
ATOM      4  N   UNL     1      -1.831   3.465  -0.652  0.00  0.00    -0.299 N 
ATOM      5  H   UNL     1      -1.083   1.206   0.204  0.00  0.00    +0.150 HD
ATOM      6  H   UNL     1      -2.254   2.734  -1.130  0.00  0.00    +0.150 HD
ENDROOT
BRANCH   1   7
ATOM      7  C   UNL     1      -0.026   1.656   1.989  0.00  0.00    +0.090 C 
BRANCH   7   8
ATOM      8  C   UNL     1       0.044   0.144   2.210  0.00  0.00    -0.054 C 
ATOM      9  C   UNL     1       0.909  -0.153   3.437  0.00  0.00    -0.012 C 
BRANCH   8  16
ATOM     10  C   UNL     1      -0.825  -2.416   1.452  0.00  0.00    -0.013 C 
ATOM     11  C   UNL     1       0.612  -1.954   1.201  0.00  0.00    -0.071 C 
ATOM     12  C   UNL     1       1.151  -2.630  -0.062  0.00  0.00    -0.016 C 
ATOM     13  C   UNL     1       2.589  -2.165  -0.309  0.00  0.00    -0.003 C 
ATOM     14  C   UNL     1       2.610  -0.638  -0.414  0.00  0.00    -0.019 C 
ATOM     15  C   UNL     1       2.017  -0.036   0.862  0.00  0.00    -0.078 C 
ATOM     16  N   UNL     1       0.634  -0.497   1.028  0.00  0.00    +0.384 N 
ATOM     17  H   UNL     1       0.097  -0.248   0.210  0.00  0.00    -0.081 HD
ENDBRANCH   8  16
ENDBRANCH   7   8
ENDBRANCH   1   7
BRANCH   4  18
ATOM     18  C   UNL     1      -2.039   4.846  -1.094  0.00  0.00    +0.107 C 
BRANCH  18  19
ATOM     19  C   UNL     1      -2.955   4.857  -2.320  0.00  0.00    +0.038 C 
BRANCH  19  20
ATOM     20  C   UNL     1      -3.173   6.299  -2.781  0.00  0.00    +0.119 C 
BRANCH  20  21
ATOM     21  N   UNL     1      -4.050   6.310  -3.955  0.00  0.00    -0.224 N 
ATOM     22  C   UNL     1      -3.613   6.230  -5.230  0.00  0.00    +0.246 C 
ATOM     23  O   UNL     1      -2.465   6.141  -5.610  0.00  0.00    -0.273 OA
ATOM     24  C   UNL     1      -4.857   6.277  -6.080  0.00  0.00    +0.113 C 
ATOM     25  C   UNL     1      -4.990   5.007  -6.931  0.00  0.00    +0.035 C 
ATOM     26  C   UNL     1      -5.624   5.508  -8.255  0.00  0.00    +0.003 C 
ATOM     27  C   UNL     1      -4.946   6.886  -8.463  0.00  0.00    +0.003 C 
ATOM     28  C   UNL     1      -4.831   7.471  -7.037  0.00  0.00    +0.035 C 
ATOM     29  N   UNL     1      -5.955   6.386  -5.118  0.00  0.00    -0.285 N 
ATOM     30  C   UNL     1      -5.385   6.393  -3.896  0.00  0.00    +0.309 C 
ATOM     31  O   UNL     1      -6.013   6.470  -2.858  0.00  0.00    -0.252 OA
ATOM     32  H   UNL     1      -6.902   6.440  -5.319  0.00  0.00    +0.151 HD
ENDBRANCH  20  21
ENDBRANCH  19  20
ENDBRANCH  18  19
ENDBRANCH   4  18
TORSDOF 7
