REMARK  Name = ZINC12898539
REMARK  10 active torsions:
REMARK  status: ('A' for Active; 'I' for Inactive)
REMARK    1  A    between atoms: C_1  and  C_2
REMARK    2  A    between atoms: C_2  and  C_4
REMARK    3  A    between atoms: C_2  and  O_15
REMARK    4  A    between atoms: N_6  and  C_7
REMARK    5  A    between atoms: C_8  and  C_12
REMARK    6  A    between atoms: O_15  and  C_16
REMARK    7  A    between atoms: C_16  and  C_18
REMARK    8  A    between atoms: C_21  and  S_24
REMARK    9  A    between atoms: S_24  and  N_27
REMARK   10  A    between atoms: N_27  and  C_28
REMARK                            x       y       z     vdW  Elec       q    Type
REMARK                         _______ _______ _______ _____ _____    ______ ____
ROOT
ATOM      1  O   UNL     1      -3.596   1.777  -0.091  0.00  0.00    -0.449 OA
ENDROOT
BRANCH   1   3
ATOM      2  C   UNL     1      -2.602   0.061   1.322  0.00  0.00    +0.062 C 
ATOM      3  C   UNL     1      -2.482   0.853   0.018  0.00  0.00    +0.259 C 
BRANCH   3   4
ATOM      4  C   UNL     1      -1.187   1.624   0.017  0.00  0.00    +0.258 C 
ATOM      5  O   UNL     1      -1.204   2.836   0.023  0.00  0.00    -0.271 OA
ATOM      6  N   UNL     1      -0.011   0.966   0.007  0.00  0.00    -0.276 N 
ATOM      7  H   UNL     1       0.002  -0.004   0.002  0.00  0.00    +0.155 HD
BRANCH   6   8
ATOM      8  C   UNL     1       1.180   1.675  -0.000  0.00  0.00    +0.084 A 
ATOM      9  C   UNL     1       2.479   1.181  -0.010  0.00  0.00    +0.065 A 
ATOM     10  C   UNL     1       3.544   2.156  -0.021  0.00  0.00    +0.022 A 
ATOM     11  C   UNL     1       3.190   3.453  -0.010  0.00  0.00    +0.048 A 
ATOM     12  S   UNL     1       1.410   3.392   0.007  0.00  0.00    -0.081 S 
BRANCH   9  13
ATOM     13  C   UNL     1       2.755  -0.259  -0.012  0.00  0.00    +0.244 C 
ATOM     14  O   UNL     1       1.833  -1.054  -0.006  0.00  0.00    -0.270 OA
ATOM     15  N   UNL     1       4.027  -0.702  -0.022  0.00  0.00    -0.325 N 
ATOM     16  H   UNL     1       4.761  -0.068  -0.026  0.00  0.00    +0.145 HD
ATOM     17  H   UNL     1       4.210  -1.654  -0.023  0.00  0.00    +0.145 HD
ENDBRANCH   9  13
ENDBRANCH   6   8
ENDBRANCH   3   4
ENDBRANCH   1   3
BRANCH   1  18
ATOM     18  C   UNL     1      -4.707   1.327  -0.706  0.00  0.00    +0.340 C 
ATOM     19  O   UNL     1      -4.744   0.193  -1.139  0.00  0.00    -0.245 OA
BRANCH  18  20
ATOM     20  C   UNL     1      -5.880   2.212  -0.853  0.00  0.00    +0.059 A 
ATOM     21  C   UNL     1      -5.844   3.514  -0.351  0.00  0.00    +0.017 A 
ATOM     22  C   UNL     1      -6.941   4.338  -0.497  0.00  0.00    +0.029 A 
ATOM     23  C   UNL     1      -8.080   3.872  -1.129  0.00  0.00    +0.105 A 
ATOM     24  C   UNL     1      -8.125   2.580  -1.624  0.00  0.00    +0.029 A 
ATOM     25  C   UNL     1      -7.033   1.748  -1.490  0.00  0.00    +0.017 A 
BRANCH  23  26
ATOM     26  S   UNL     1      -9.479   4.928  -1.305  0.00  0.00    +0.059 S 
ATOM     27  O   UNL     1      -8.992   6.261  -1.244  0.00  0.00    -0.153 OA
ATOM     28  O   UNL     1     -10.221   4.438  -2.414  0.00  0.00    -0.153 OA
BRANCH  26  29
ATOM     29  N   UNL     1     -10.430   4.709   0.033  0.00  0.00    -0.187 NA
ATOM     30  H   UNL     1     -11.316   4.325  -0.059  0.00  0.00    +0.148 HD
BRANCH  29  31
ATOM     31  C   UNL     1      -9.932   5.096   1.356  0.00  0.00    +0.077 C 
ATOM     32  C   UNL     1     -10.374   4.250   2.552  0.00  0.00    +0.022 C 
ATOM     33  C   UNL     1     -10.946   5.656   2.356  0.00  0.00    +0.022 C 
ENDBRANCH  29  31
ENDBRANCH  26  29
ENDBRANCH  23  26
ENDBRANCH  18  20
ENDBRANCH   1  18
TORSDOF 9
