REMARK  Name = ZINC02406991
REMARK  8 active torsions:
REMARK  status: ('A' for Active; 'I' for Inactive)
REMARK    1  A    between atoms: C_1  and  C_2
REMARK    2  A    between atoms: C_2  and  C_4
REMARK    3  A    between atoms: C_2  and  N_12
REMARK    4  A    between atoms: C_4  and  C_5
REMARK    5  A    between atoms: C_5  and  C_6
REMARK    6  A    between atoms: C_13  and  C_15
REMARK    7  A    between atoms: N_26  and  C_29
REMARK    8  A    between atoms: C_27  and  N_28
REMARK                            x       y       z     vdW  Elec       q    Type
REMARK                         _______ _______ _______ _____ _____    ______ ____
ROOT
ATOM      1  C   UNL     1       0.950  -2.140  -0.019  0.00  0.00    +0.104 A 
ATOM      2  C   UNL     1       1.288  -0.707  -0.014  0.00  0.00    +0.123 A 
ATOM      3  C   UNL     1       0.002  -0.004   0.002  0.00  0.00    +0.166 A 
ATOM      4  N   UNL     1      -0.016   1.312   0.009  0.00  0.00    -0.225 NA
ATOM      5  C   UNL     1       1.136   1.994   0.002  0.00  0.00    +0.092 A 
ATOM      6  C   UNL     1       1.126   3.402   0.008  0.00  0.00    +0.030 A 
ATOM      7  C   UNL     1       2.301   4.087   0.001  0.00  0.00    +0.002 A 
ATOM      8  C   UNL     1       3.522   3.416  -0.015  0.00  0.00    +0.002 A 
ATOM      9  C   UNL     1       3.573   2.057  -0.022  0.00  0.00    +0.030 A 
ATOM     10  C   UNL     1       2.378   1.312  -0.015  0.00  0.00    +0.090 A 
ATOM     11  N   UNL     1       2.416  -0.025  -0.022  0.00  0.00    -0.241 NA
ATOM     12  N   UNL     1      -0.986  -0.970   0.006  0.00  0.00    -0.280 N 
ATOM     13  C   UNL     1      -0.439  -2.218  -0.006  0.00  0.00    +0.117 A 
ENDROOT
BRANCH  12  14
ATOM     14  C   UNL     1      -2.362  -0.703   0.021  0.00  0.00    +0.051 A 
ATOM     15  C   UNL     1      -3.152  -1.063  -1.063  0.00  0.00    +0.029 A 
ATOM     16  C   UNL     1      -4.507  -0.799  -1.047  0.00  0.00    +0.042 A 
ATOM     17  C   UNL     1      -5.080  -0.175   0.049  0.00  0.00    +0.142 A 
ATOM     18  C   UNL     1      -4.294   0.185   1.131  0.00  0.00    +0.078 A 
ATOM     19  C   UNL     1      -2.938  -0.083   1.122  0.00  0.00    +0.049 A 
ATOM     20 CL   UNL     1      -5.013   0.968   2.504  0.00  0.00    -0.081 Cl
ATOM     21  F   UNL     1      -6.406   0.082   0.062  0.00  0.00    -0.204 F 
ENDBRANCH  12  14
BRANCH   1  23
ATOM     22  N   UNL     1       2.332  -3.782   1.127  0.00  0.00    -0.309 N 
ATOM     23  C   UNL     1       1.888  -3.260  -0.033  0.00  0.00    +0.250 C 
ATOM     24  O   UNL     1       2.269  -3.721  -1.094  0.00  0.00    -0.270 OA
ATOM     25  H   UNL     1       2.028  -3.415   1.972  0.00  0.00    +0.149 HD
BRANCH  22  27
ATOM     26  C   UNL     1       4.700  -4.372   0.976  0.00  0.00    +0.028 C 
ATOM     27  C   UNL     1       3.273  -4.905   1.112  0.00  0.00    +0.070 C 
BRANCH  27  28
ATOM     28  C   UNL     1       3.145  -5.695   2.417  0.00  0.00    +0.026 C 
BRANCH  28  29
ATOM     29  C   UNL     1       1.756  -6.332   2.494  0.00  0.00    +0.037 C 
BRANCH  29  30
ATOM     30  C   UNL     1       1.631  -7.109   3.778  0.00  0.00    -0.047 A 
ATOM     31  C   UNL     1       1.986  -8.445   3.816  0.00  0.00    +0.003 A 
ATOM     32  C   UNL     1       1.875  -9.156   4.995  0.00  0.00    +0.000 A 
ATOM     33  C   UNL     1       1.400  -8.536   6.135  0.00  0.00    +0.000 A 
ATOM     34  C   UNL     1       1.040  -7.202   6.097  0.00  0.00    +0.000 A 
ATOM     35  C   UNL     1       1.156  -6.488   4.918  0.00  0.00    +0.003 A 
ENDBRANCH  29  30
ENDBRANCH  28  29
ENDBRANCH  27  28
ENDBRANCH  22  27
ENDBRANCH   1  23
BRANCH  13  36
ATOM     36  N   UNL     1      -1.156  -3.386  -0.005  0.00  0.00    -0.343 N 
ATOM     37  H   UNL     1      -2.126  -3.360   0.005  0.00  0.00    +0.144 HD
ATOM     38  H   UNL     1      -0.694  -4.239  -0.014  0.00  0.00    +0.144 HD
ENDBRANCH  13  36
TORSDOF 7
