REMARK  Name = ZINC17252638
REMARK  2 active torsions:
REMARK  status: ('A' for Active; 'I' for Inactive)
REMARK    1  A    between atoms: C_1  and  C_2
REMARK    2  A    between atoms: N_4  and  C_11
REMARK                            x       y       z     vdW  Elec       q    Type
REMARK                         _______ _______ _______ _____ _____    ______ ____
ROOT
ATOM      1  C   UNL     1       0.930  -1.785  -1.399  0.00  0.00    +0.051 C 
ATOM      2  C   UNL     1       1.060  -0.471  -0.673  0.00  0.00    +0.030 A 
ATOM      3  C   UNL     1       2.231   0.202  -0.681  0.00  0.00    +0.101 A 
ATOM      4  N   UNL     1       2.333   1.392  -0.013  0.00  0.00    -0.274 N 
ATOM      5  C   UNL     1       1.278   1.897   0.652  0.00  0.00    +0.331 A 
ATOM      6  O   UNL     1       1.391   2.956   1.239  0.00  0.00    -0.246 OA
ATOM      7  N   UNL     1       0.100   1.248   0.676  0.00  0.00    -0.275 N 
ATOM      8  H   UNL     1      -0.674   1.638   1.175  0.00  0.00    +0.173 HD
ATOM      9  C   UNL     1      -0.042   0.072   0.030  0.00  0.00    +0.257 A 
ATOM     10  O   UNL     1      -1.108  -0.516   0.051  0.00  0.00    -0.267 OA
ENDROOT
BRANCH   4  11
ATOM     11  C   UNL     1       3.603   2.122  -0.021  0.00  0.00    +0.226 C 
ATOM     12  C   UNL     1       4.346   1.916   1.334  0.00  0.00    +0.091 C 
ATOM     13  C   UNL     1       5.686   1.372   0.888  0.00  0.00    +0.176 C 
ATOM     14  C   UNL     1       5.215   0.595  -0.403  0.00  0.00    +0.168 C 
ATOM     15  O   UNL     1       4.480   1.589  -1.061  0.00  0.00    -0.349 OA
ATOM     16  C   UNL     1       6.542   0.023  -0.830  0.00  0.00    +0.145 C 
ATOM     17  N   UNL     1       7.245  -0.231   0.451  0.00  0.00    -0.198 NA
ATOM     18  O   UNL     1       6.392   0.341   1.535  0.00  0.00    -0.294 OA
ATOM     19  H   UNL     1       8.158   0.199   0.444  0.00  0.00    +0.154 HD
ENDBRANCH   4  11
TORSDOF 1
