REMARK  Name = ZINC63524028
REMARK  7 active torsions:
REMARK  status: ('A' for Active; 'I' for Inactive)
REMARK    1  A    between atoms: C_1  and  C_2
REMARK    2  A    between atoms: C_2  and  C_3
REMARK    3  A    between atoms: C_3  and  C_4
REMARK    4  A    between atoms: C_4  and  N_5
REMARK    5  A    between atoms: C_6  and  C_10
REMARK    6  A    between atoms: C_10  and  N_11
REMARK    7  A    between atoms: C_24  and  C_25
REMARK                            x       y       z     vdW  Elec       q    Type
REMARK                         _______ _______ _______ _____ _____    ______ ____
ROOT
ATOM      1  N   UNL     1       4.740  -1.469   1.443  0.00  0.00    -0.287 NA
ATOM      2  C   UNL     1       3.882  -0.380   0.955  0.00  0.00    +0.090 C 
ATOM      3  C   UNL     1       4.458   0.967   1.413  0.00  0.00    +0.053 C 
ATOM      4  C   UNL     1       5.927   0.984   1.075  0.00  0.00    -0.016 A 
ATOM      5  C   UNL     1       6.840   2.104   1.011  0.00  0.00    +0.003 A 
ATOM      6  C   UNL     1       6.678   3.476   1.230  0.00  0.00    +0.010 A 
ATOM      7  C   UNL     1       7.791   4.265   1.076  0.00  0.00    +0.001 A 
ATOM      8  C   UNL     1       9.023   3.739   0.720  0.00  0.00    +0.002 A 
ATOM      9  C   UNL     1       9.211   2.386   0.496  0.00  0.00    +0.026 A 
ATOM     10  C   UNL     1       8.099   1.560   0.646  0.00  0.00    +0.047 A 
ATOM     11  N   UNL     1       7.935   0.212   0.505  0.00  0.00    -0.356 N 
ATOM     12  H   UNL     1       8.635  -0.413   0.259  0.00  0.00    +0.166 HD
ATOM     13  C   UNL     1       6.634  -0.126   0.762  0.00  0.00    +0.037 A 
ATOM     14  C   UNL     1       6.023  -1.506   0.723  0.00  0.00    +0.101 C 
ATOM     15  C   UNL     1       6.964  -2.504   1.401  0.00  0.00    +0.031 C 
ENDROOT
BRANCH   1  16
ATOM     16  C   UNL     1       4.049  -2.763   1.354  0.00  0.00    +0.163 C 
BRANCH  16  18
ATOM     17  N   UNL     1       3.095  -3.180   3.682  0.00  0.00    -0.228 N 
ATOM     18  C   UNL     1       2.958  -2.822   2.392  0.00  0.00    +0.165 A 
ATOM     19  N   UNL     1       1.692  -2.533   2.214  0.00  0.00    -0.112 NA
ATOM     20  N   UNL     1       1.083  -2.705   3.336  0.00  0.00    -0.023 NA
ATOM     21  N   UNL     1       1.926  -3.102   4.224  0.00  0.00    -0.044 NA
BRANCH  17  22
ATOM     22  C   UNL     1       4.335  -3.589   4.345  0.00  0.00    +0.147 C 
BRANCH  22  23
ATOM     23  C   UNL     1       4.566  -5.084   4.119  0.00  0.00    +0.023 C 
BRANCH  23  25
ATOM     24  C   UNL     1       6.152  -6.981   4.478  0.00  0.00    +0.004 C 
ATOM     25  C   UNL     1       5.921  -5.485   4.705  0.00  0.00    -0.002 C 
ENDBRANCH  23  25
ENDBRANCH  22  23
ENDBRANCH  17  22
ENDBRANCH  16  18
ENDBRANCH   1  16
TORSDOF 5
