REMARK  Name = ZINC08560024
REMARK  3 active torsions:
REMARK  status: ('A' for Active; 'I' for Inactive)
REMARK    1  A    between atoms: C_1  and  C_2
REMARK    2  A    between atoms: C_7  and  C_23
REMARK    3  A    between atoms: C_13  and  C_18
REMARK                            x       y       z     vdW  Elec       q    Type
REMARK                         _______ _______ _______ _____ _____    ______ ____
ROOT
ATOM      1  C   UNL     1      -2.065  -5.517   1.289  0.00  0.00    +0.090 C 
ATOM      2  C   UNL     1      -1.450  -4.203   0.882  0.00  0.00    +0.150 A 
ATOM      3  N   UNL     1      -0.151  -3.998   0.640  0.00  0.00    -0.198 NA
ATOM      4  C   UNL     1       0.040  -2.749   0.314  0.00  0.00    +0.219 A 
ATOM      5  N   UNL     1      -1.162  -2.121   0.339  0.00  0.00    -0.221 N 
ATOM      6  N   UNL     1      -2.103  -3.080   0.711  0.00  0.00    -0.153 NA
ATOM      7  C   UNL     1      -1.336  -0.710   0.020  0.00  0.00    +0.176 C 
ATOM      8  C   UNL     1       0.007  -0.014  -0.001  0.00  0.00    +0.041 C 
ATOM      9  C   UNL     1       1.170  -0.698  -0.028  0.00  0.00    +0.020 C 
ATOM     10  N   UNL     1       1.203  -2.072  -0.013  0.00  0.00    -0.287 N 
ATOM     11  C   UNL     1       2.495   0.026  -0.082  0.00  0.00    +0.063 C 
ATOM     12  C   UNL     1       2.380   1.361   0.656  0.00  0.00    +0.068 C 
ATOM     13  C   UNL     1       1.274   2.187  -0.010  0.00  0.00    +0.091 C 
ATOM     14  C   UNL     1      -0.002   1.393   0.002  0.00  0.00    +0.164 C 
ATOM     15  O   UNL     1      -1.066   1.980   0.009  0.00  0.00    -0.292 OA
ATOM     16  H   UNL     1       2.018  -2.554  -0.226  0.00  0.00    +0.155 HD
ENDROOT
BRANCH   7  17
ATOM     17  C   UNL     1      -1.987  -0.582  -1.333  0.00  0.00    -0.011 A 
ATOM     18  C   UNL     1      -1.325  -0.987  -2.451  0.00  0.00    +0.006 A 
ATOM     19  C   UNL     1      -1.914  -0.883  -3.710  0.00  0.00    +0.001 A 
ATOM     20  C   UNL     1      -3.162  -0.362  -3.860  0.00  0.00    +0.008 A 
ATOM     21  C   UNL     1      -3.874   0.072  -2.729  0.00  0.00    -0.018 A 
ATOM     22  C   UNL     1      -3.278  -0.039  -1.447  0.00  0.00    -0.012 A 
ATOM     23  C   UNL     1      -3.990   0.396  -0.316  0.00  0.00    +0.009 A 
ATOM     24  C   UNL     1      -5.238   0.918  -0.466  0.00  0.00    +0.001 A 
ATOM     25  C   UNL     1      -5.823   1.028  -1.726  0.00  0.00    +0.001 A 
ATOM     26  C   UNL     1      -5.164   0.617  -2.843  0.00  0.00    +0.008 A 
ENDBRANCH   7  17
BRANCH  12  27
ATOM     27  C   UNL     1       3.690   2.103   0.570  0.00  0.00    +0.109 A 
ATOM     28  C   UNL     1       4.448   2.484   1.613  0.00  0.00    +0.045 A 
ATOM     29  C   UNL     1       5.578   3.144   1.079  0.00  0.00    +0.041 A 
ATOM     30  C   UNL     1       5.443   3.127  -0.259  0.00  0.00    +0.195 A 
ATOM     31  O   UNL     1       4.300   2.490  -0.562  0.00  0.00    -0.468 OA
ENDBRANCH  12  27
TORSDOF 2
