REMARK  Name = ZINC36530114
REMARK  17 active torsions:
REMARK  status: ('A' for Active; 'I' for Inactive)
REMARK    1  A    between atoms: C_1  and  C_2
REMARK    2  A    between atoms: C_2  and  C_3
REMARK    3  A    between atoms: C_2  and  C_4
REMARK    4  A    between atoms: C_2  and  C_5
REMARK    5  A    between atoms: C_5  and  C_6
REMARK    6  A    between atoms: C_6  and  C_7
REMARK    7  A    between atoms: C_6  and  C_8
REMARK    8  A    between atoms: C_6  and  N_9
REMARK    9  A    between atoms: C_10  and  C_12
REMARK   10  A    between atoms: C_12  and  C_14
REMARK   11  A    between atoms: C_12  and  N_23
REMARK   12  A    between atoms: C_15  and  O_22
REMARK   13  A    between atoms: C_17  and  O_21
REMARK   14  A    between atoms: C_19  and  O_20
REMARK   15  A    between atoms: N_23  and  C_24
REMARK   16  A    between atoms: C_25  and  C_27
REMARK   17  A    between atoms: C_29  and  N_34
REMARK                            x       y       z     vdW  Elec       q    Type
REMARK                         _______ _______ _______ _____ _____    ______ ____
ROOT
ATOM      1  C   UNL     1       5.288  -1.174  -5.403  0.00  0.00    +0.199 C 
ENDROOT
BRANCH   1   2
ATOM      2  C   UNL     1       4.408  -0.613  -6.489  0.00  0.00    +0.065 A 
ATOM      3  C   UNL     1       4.712   0.613  -7.064  0.00  0.00    +0.129 A 
ATOM      4  C   UNL     1       3.901   1.129  -8.063  0.00  0.00    +0.091 A 
ATOM      5  C   UNL     1       2.788   0.421  -8.489  0.00  0.00    +0.124 A 
ATOM      6  C   UNL     1       2.485  -0.805  -7.916  0.00  0.00    +0.091 A 
ATOM      7  C   UNL     1       3.298  -1.324  -6.919  0.00  0.00    +0.129 A 
BRANCH   7   8
ATOM      8  O   UNL     1       3.004  -2.527  -6.360  0.00  0.00    -0.506 OA
ATOM      9  H   UNL     1       2.424  -2.471  -5.588  0.00  0.00    +0.292 HD
ENDBRANCH   7   8
BRANCH   5  10
ATOM     10  O   UNL     1       1.994   0.928  -9.469  0.00  0.00    -0.507 OA
ATOM     11  H   UNL     1       2.256   0.667 -10.362  0.00  0.00    +0.292 HD
ENDBRANCH   5  10
BRANCH   3  12
ATOM     12  O   UNL     1       5.803   1.307  -6.646  0.00  0.00    -0.506 OA
ATOM     13  H   UNL     1       6.565   1.233  -7.236  0.00  0.00    +0.292 HD
ENDBRANCH   3  12
ENDBRANCH   1   2
BRANCH   1  15
ATOM     14  N   UNL     1       3.984  -0.146  -3.570  0.00  0.00    -0.308 N 
ATOM     15  C   UNL     1       5.178  -0.312  -4.171  0.00  0.00    +0.239 C 
ATOM     16  O   UNL     1       6.165   0.232  -3.722  0.00  0.00    -0.273 OA
ATOM     17  H   UNL     1       3.195  -0.582  -3.929  0.00  0.00    +0.149 HD
BRANCH  14  18
ATOM     18  C   UNL     1       3.877   0.692  -2.373  0.00  0.00    +0.030 C 
ATOM     19  C   UNL     1       4.433   2.085  -2.674  0.00  0.00    +0.031 C 
ATOM     20  C   UNL     1       4.679   0.058  -1.234  0.00  0.00    +0.031 C 
BRANCH  18  21
ATOM     21  C   UNL     1       2.409   0.806  -1.960  0.00  0.00    +0.031 C 
BRANCH  21  23
ATOM     22  C   UNL     1       1.234  -0.325  -3.853  0.00  0.00    +0.010 C 
ATOM     23  C   UNL     1       1.545   1.025  -3.204  0.00  0.00    -0.036 C 
ATOM     24  C   UNL     1       2.300   1.908  -4.200  0.00  0.00    +0.010 C 
ATOM     25  C   UNL     1       0.238   1.712  -2.803  0.00  0.00    +0.010 C 
ENDBRANCH  21  23
ENDBRANCH  18  21
ENDBRANCH  14  18
ENDBRANCH   1  15
BRANCH   1  26
ATOM     26  N   UNL     1       6.679  -1.194  -5.862  0.00  0.00    -0.285 N 
ATOM     27  C   UNL     1       7.537  -0.025  -5.652  0.00  0.00    +0.133 C 
ATOM     28  C   UNL     1       7.170  -2.288  -6.479  0.00  0.00    +0.251 C 
ATOM     29  O   UNL     1       6.490  -3.292  -6.567  0.00  0.00    -0.270 OA
BRANCH  28  30
ATOM     30  C   UNL     1       8.531  -2.266  -7.047  0.00  0.00    +0.086 A 
ATOM     31  C   UNL     1       8.902  -1.261  -7.944  0.00  0.00    +0.049 A 
ATOM     32  C   UNL     1      10.175  -1.246  -8.470  0.00  0.00    +0.127 A 
ATOM     33  C   UNL     1      11.090  -2.224  -8.116  0.00  0.00    +0.036 A 
ATOM     34  C   UNL     1      10.737  -3.223  -7.231  0.00  0.00    +0.054 A 
ATOM     35  C   UNL     1       9.461  -3.250  -6.686  0.00  0.00    +0.191 A 
ATOM     36  O   UNL     1       9.114  -4.228  -5.812  0.00  0.00    -0.287 OA
BRANCH  32  37
ATOM     37  N   UNL     1      10.567  -0.181  -9.421  0.00  0.00    +0.056 N 
ATOM     38  O   UNL     1       9.771   0.674  -9.732  0.00  0.00    -0.126 OA
ATOM     39  O   UNL     1      11.684  -0.165  -9.885  0.00  0.00    -0.126 OA
ENDBRANCH  32  37
ENDBRANCH  28  30
ENDBRANCH   1  26
TORSDOF 11
