REMARK  Name = ZINC42523013
REMARK  6 active torsions:
REMARK  status: ('A' for Active; 'I' for Inactive)
REMARK    1  A    between atoms: C_1  and  C_2
REMARK    2  A    between atoms: C_5  and  N_9
REMARK    3  A    between atoms: N_9  and  S_10
REMARK    4  A    between atoms: S_10  and  C_13
REMARK    5  A    between atoms: C_13  and  C_15
REMARK    6  A    between atoms: C_13  and  C_16
REMARK                            x       y       z     vdW  Elec       q    Type
REMARK                         _______ _______ _______ _____ _____    ______ ____
ROOT
ATOM      1  N   UNL     1       0.061  -4.067   0.082  0.00  0.00    -0.220 N 
ATOM      2  H   UNL     1      -0.596  -4.491  -0.492  0.00  0.00    +0.173 HD
ENDROOT
BRANCH   1   7
ATOM      3  C   UNL     1       0.092   1.574   0.665  0.00  0.00    +0.045 C 
ATOM      4  C   UNL     1       0.084   0.075   0.510  0.00  0.00    -0.037 A 
ATOM      5  C   UNL     1      -0.022  -0.488  -0.749  0.00  0.00    +0.006 A 
ATOM      6  C   UNL     1      -0.030  -1.861  -0.894  0.00  0.00    +0.025 A 
ATOM      7  C   UNL     1       0.069  -2.678   0.226  0.00  0.00    +0.049 A 
ATOM      8  C   UNL     1       0.176  -2.109   1.488  0.00  0.00    +0.039 A 
ATOM      9  C   UNL     1       0.189  -0.734   1.627  0.00  0.00    +0.018 A 
ATOM     10  I   UNL     1       0.358   0.124   3.530  0.00  0.00    -0.043 I 
ENDBRANCH   1   7
BRANCH   1  11
ATOM     11  S   UNL     1       1.173  -4.989   0.890  0.00  0.00    +0.056 S 
ATOM     12  O   UNL     1       1.026  -4.621   2.255  0.00  0.00    -0.154 OA
ATOM     13  O   UNL     1       0.915  -6.321   0.468  0.00  0.00    -0.154 OA
BRANCH  11  14
ATOM     14  C   UNL     1       2.783  -4.435   0.264  0.00  0.00    +0.260 C 
ATOM     15  C   UNL     1       2.805  -4.556  -1.262  0.00  0.00    +0.046 C 
BRANCH  14  16
ATOM     16  C   UNL     1       3.873  -5.294   0.851  0.00  0.00    +0.381 C 
ATOM     17  O   UNL     1       4.043  -6.429   0.441  0.00  0.00    -0.244 OA
ATOM     18  O   UNL     1       4.586  -4.853   1.737  0.00  0.00    -0.244 OA
ENDBRANCH  14  16
ENDBRANCH  11  14
ENDBRANCH   1  11
TORSDOF 4
