REMARK  Name = ZINC67359257
REMARK  8 active torsions:
REMARK  status: ('A' for Active; 'I' for Inactive)
REMARK    1  A    between atoms: C_1  and  C_2
REMARK    2  A    between atoms: C_2  and  C_4
REMARK    3  A    between atoms: C_2  and  N_10
REMARK    4  A    between atoms: N_8  and  C_9
REMARK    5  A    between atoms: N_13  and  N_14
REMARK    6  A    between atoms: C_15  and  C_17
REMARK    7  A    between atoms: C_17  and  C_18
REMARK    8  A    between atoms: C_18  and  C_19
REMARK                            x       y       z     vdW  Elec       q    Type
REMARK                         _______ _______ _______ _____ _____    ______ ____
ROOT
ATOM      1  N   UNL     1      -1.372  -0.511   0.012  0.00  0.00    -0.289 N 
ATOM      2  C   UNL     1      -2.029  -0.655   1.181  0.00  0.00    +0.316 C 
ATOM      3  O   UNL     1      -1.480  -0.364   2.226  0.00  0.00    -0.251 OA
ATOM      4  N   UNL     1      -3.293  -1.122   1.190  0.00  0.00    -0.218 N 
ATOM      5  H   UNL     1      -1.810  -0.743  -0.822  0.00  0.00    +0.151 HD
ATOM      6  H   UNL     1      -3.765  -1.225   2.031  0.00  0.00    +0.174 HD
ENDROOT
BRANCH   4   7
ATOM      7  N   UNL     1      -3.925  -1.457  -0.014  0.00  0.00    -0.233 N 
ATOM      8  C   UNL     1      -5.190  -1.923  -0.005  0.00  0.00    +0.229 C 
ATOM      9  O   UNL     1      -5.780  -2.053   1.047  0.00  0.00    -0.274 OA
ATOM     10  H   UNL     1      -3.453  -1.353  -0.855  0.00  0.00    +0.173 HD
BRANCH   8  11
ATOM     11  C   UNL     1      -5.870  -2.284  -1.300  0.00  0.00    +0.097 C 
BRANCH  11  12
ATOM     12  C   UNL     1      -7.287  -2.783  -1.011  0.00  0.00    +0.013 C 
BRANCH  12  13
ATOM     13  C   UNL     1      -7.977  -3.149  -2.326  0.00  0.00    -0.011 C 
ATOM     14  C   UNL     1      -8.157  -1.889  -3.175  0.00  0.00    +0.003 C 
ATOM     15  C   UNL     1      -8.848  -2.255  -4.491  0.00  0.00    +0.000 C 
ATOM     16  C   UNL     1     -10.216  -2.871  -4.194  0.00  0.00    +0.000 C 
ATOM     17  C   UNL     1     -10.036  -4.131  -3.345  0.00  0.00    +0.000 C 
ATOM     18  C   UNL     1      -9.346  -3.765  -2.030  0.00  0.00    +0.003 C 
ENDBRANCH  12  13
ENDBRANCH  11  12
ENDBRANCH   8  11
ENDBRANCH   4   7
BRANCH   1  20
ATOM     19  C   UNL     1      -0.019   1.526   0.010  0.00  0.00    +0.036 C 
ATOM     20  C   UNL     1       0.002  -0.004   0.002  0.00  0.00    +0.139 C 
BRANCH  20  21
ATOM     21  C   UNL     1       0.707  -0.490  -1.238  0.00  0.00    +0.153 A 
ATOM     22  N   UNL     1       0.229  -0.486  -2.452  0.00  0.00    -0.133 NA
ATOM     23  N   UNL     1       1.101  -0.972  -3.263  0.00  0.00    -0.138 NA
ATOM     24  C   UNL     1       2.175  -1.307  -2.603  0.00  0.00    +0.224 A 
ATOM     25  N   UNL     1       1.958  -1.007  -1.300  0.00  0.00    -0.319 N 
ATOM     26  C   UNL     1       2.887  -1.203  -0.183  0.00  0.00    +0.151 C 
ENDBRANCH  20  21
ENDBRANCH   1  20
TORSDOF 6
