REMARK  Name = ZINC01847424
REMARK  3 active torsions:
REMARK  status: ('A' for Active; 'I' for Inactive)
REMARK    1  A    between atoms: C_1  and  O_2
REMARK    2  A    between atoms: O_2  and  C_3
REMARK    3  A    between atoms: C_3  and  C_5
REMARK                            x       y       z     vdW  Elec       q    Type
REMARK                         _______ _______ _______ _____ _____    ______ ____
ROOT
ATOM      1  C   UNL     1      -2.410   3.752   0.288  0.00  0.00    +0.119 C 
ATOM      2  C   UNL     1      -1.245   3.083   0.112  0.00  0.00    +0.097 C 
ATOM      3  C   UNL     1      -1.199   1.595   0.017  0.00  0.00    +0.258 C 
ATOM      4  O   UNL     1      -2.230   0.955  -0.048  0.00  0.00    -0.269 OA
ATOM      5  N   UNL     1      -0.011   0.966   0.007  0.00  0.00    -0.306 N 
ATOM      6  C   UNL     1       1.255   1.681  -0.001  0.00  0.00    +0.093 C 
ATOM      7  C   UNL     1       2.349   0.871   0.686  0.00  0.00    +0.024 C 
ATOM      8  C   UNL     1       2.047   0.746   2.180  0.00  0.00    +0.002 C 
ATOM      9  C   UNL     1       1.975   2.145   2.796  0.00  0.00    +0.002 C 
ATOM     10  C   UNL     1       0.848   2.933   2.127  0.00  0.00    +0.024 C 
ATOM     11  C   UNL     1       1.127   3.066   0.627  0.00  0.00    +0.091 C 
ATOM     12  N   UNL     1      -0.027   3.748   0.006  0.00  0.00    -0.335 N 
ATOM     13  H   UNL     1      -0.022  -0.134   0.006  0.00  0.00    +0.149 HD
ATOM     14  H   UNL     1       0.111   4.716  -0.497  0.00  0.00    +0.147 HD
ENDROOT
BRANCH   1  15
ATOM     15  C   UNL     1      -2.410   5.212   0.371  0.00  0.00    +0.334 C 
ATOM     16  O   UNL     1      -1.364   5.826   0.283  0.00  0.00    -0.246 OA
BRANCH  15  18
ATOM     17  C   UNL     1      -3.496   7.303   0.619  0.00  0.00    +0.280 C 
ATOM     18  O   UNL     1      -3.570   5.878   0.547  0.00  0.00    -0.465 OA
ENDBRANCH  15  18
ENDBRANCH   1  15
TORSDOF 2
