REMARK  Name = ZINC05559836
REMARK  5 active torsions:
REMARK  status: ('A' for Active; 'I' for Inactive)
REMARK    1  A    between atoms: C_8  and  O_9
REMARK    2  A    between atoms: C_10  and  N_12
REMARK    3  A    between atoms: N_12  and  C_13
REMARK    4  A    between atoms: C_13  and  N_15
REMARK    5  A    between atoms: C_16  and  C_18
REMARK                            x       y       z     vdW  Elec       q    Type
REMARK                         _______ _______ _______ _____ _____    ______ ____
ROOT
ATOM      1  C   UNL     1      -1.160   3.829   2.783  0.00  0.00    +0.141 C 
ATOM      2  S   UNL     1      -1.349   2.822   4.155  0.00  0.00    -0.018 S 
ENDROOT
BRANCH   1   3
ATOM      3  N   UNL     1      -0.539   3.359   1.683  0.00  0.00    -0.267 N 
ATOM      4  C   UNL     1      -0.066   2.097   1.663  0.00  0.00    +0.225 C 
ATOM      5  O   UNL     1      -0.200   1.384   2.635  0.00  0.00    -0.275 OA
ATOM      6  H   UNL     1      -0.432   3.929   0.906  0.00  0.00    +0.157 HD
BRANCH   4   7
ATOM      7  C   UNL     1       0.629   1.572   0.434  0.00  0.00    +0.048 C 
ATOM      8  C   UNL     1       1.859   2.432   0.137  0.00  0.00    +0.019 C 
ATOM      9  C   UNL     1       2.564   1.898  -1.112  0.00  0.00    -0.009 C 
ATOM     10  C   UNL     1       2.999   0.451  -0.873  0.00  0.00    +0.007 C 
ATOM     11  C   UNL     1       1.769  -0.409  -0.576  0.00  0.00    -0.009 C 
ATOM     12  C   UNL     1       1.064   0.124   0.673  0.00  0.00    +0.019 C 
ATOM     13  C   UNL     1       0.810  -0.355  -1.766  0.00  0.00    +0.007 C 
ATOM     14  C   UNL     1       0.374   1.092  -2.005  0.00  0.00    -0.009 C 
ATOM     15  C   UNL     1       1.605   1.952  -2.302  0.00  0.00    +0.007 C 
ATOM     16  C   UNL     1      -0.331   1.625  -0.757  0.00  0.00    +0.019 C 
ENDBRANCH   4   7
ENDBRANCH   1   3
BRANCH   1  17
ATOM     17  N   UNL     1      -1.633   5.091   2.803  0.00  0.00    -0.296 N 
ATOM     18  H   UNL     1      -1.457   5.686   2.058  0.00  0.00    +0.154 HD
BRANCH  17  27
ATOM     19  C   UNL     1      -4.107   5.186   5.531  0.00  0.00    +0.003 A 
ATOM     20  C   UNL     1      -3.886   6.410   6.086  0.00  0.00    +0.012 A 
ATOM     21  C   UNL     1      -2.892   7.250   5.559  0.00  0.00    +0.025 A 
ATOM     22  C   UNL     1      -2.126   6.814   4.450  0.00  0.00    +0.007 A 
ATOM     23  C   UNL     1      -1.133   7.656   3.924  0.00  0.00    +0.010 A 
ATOM     24  C   UNL     1      -0.917   8.879   4.482  0.00  0.00    +0.004 A 
ATOM     25  C   UNL     1      -1.667   9.312   5.572  0.00  0.00    +0.046 A 
ATOM     26  C   UNL     1      -2.642   8.522   6.113  0.00  0.00    +0.125 A 
ATOM     27  C   UNL     1      -2.376   5.541   3.896  0.00  0.00    +0.040 A 
ATOM     28  C   UNL     1      -3.364   4.748   4.439  0.00  0.00    +0.024 A 
BRANCH  26  29
ATOM     29  O   UNL     1      -3.365   8.959   7.176  0.00  0.00    -0.506 OA
ATOM     30  H   UNL     1      -4.167   9.441   6.935  0.00  0.00    +0.292 HD
ENDBRANCH  26  29
ENDBRANCH  17  27
ENDBRANCH   1  17
TORSDOF 5
