REMARK  Name = ZINC36545347
REMARK  16 active torsions:
REMARK  status: ('A' for Active; 'I' for Inactive)
REMARK    1  A    between atoms: C_1  and  C_2
REMARK    2  A    between atoms: C_2  and  C_3
REMARK    3  A    between atoms: C_2  and  C_4
REMARK    4  A    between atoms: C_2  and  C_5
REMARK    5  A    between atoms: C_5  and  C_6
REMARK    6  A    between atoms: C_6  and  C_7
REMARK    7  A    between atoms: C_6  and  C_8
REMARK    8  A    between atoms: C_6  and  N_9
REMARK    9  A    between atoms: C_10  and  C_12
REMARK   10  A    between atoms: C_12  and  C_14
REMARK   11  A    between atoms: C_12  and  N_21
REMARK   12  A    between atoms: C_17  and  O_20
REMARK   13  A    between atoms: N_21  and  C_22
REMARK   14  A    between atoms: C_29  and  C_31
REMARK   15  A    between atoms: C_35  and  O_38
REMARK   16  A    between atoms: C_36  and  O_37
REMARK                            x       y       z     vdW  Elec       q    Type
REMARK                         _______ _______ _______ _____ _____    ______ ____
ROOT
ATOM      1  C   UNL     1       5.396  -0.647  -4.205  0.00  0.00    +0.198 C 
ENDROOT
BRANCH   1   2
ATOM      2  C   UNL     1       5.367  -2.026  -4.812  0.00  0.00    -0.018 A 
ATOM      3  C   UNL     1       6.212  -3.009  -4.331  0.00  0.00    +0.009 A 
ATOM      4  C   UNL     1       6.189  -4.274  -4.886  0.00  0.00    +0.046 A 
ATOM      5  C   UNL     1       5.316  -4.557  -5.927  0.00  0.00    +0.117 A 
ATOM      6  C   UNL     1       4.469  -3.569  -6.407  0.00  0.00    +0.046 A 
ATOM      7  C   UNL     1       4.492  -2.307  -5.845  0.00  0.00    +0.009 A 
BRANCH   5   8
ATOM      8  O   UNL     1       5.291  -5.800  -6.475  0.00  0.00    -0.507 OA
ATOM      9  H   UNL     1       4.667  -6.405  -6.050  0.00  0.00    +0.292 HD
ENDBRANCH   5   8
ENDBRANCH   1   2
BRANCH   1  11
ATOM     10  N   UNL     1       3.475  -1.112  -2.717  0.00  0.00    -0.308 N 
ATOM     11  C   UNL     1       4.747  -0.683  -2.845  0.00  0.00    +0.239 C 
ATOM     12  O   UNL     1       5.368  -0.327  -1.867  0.00  0.00    -0.273 OA
ATOM     13  H   UNL     1       2.978  -1.397  -3.499  0.00  0.00    +0.149 HD
BRANCH  10  14
ATOM     14  C   UNL     1       2.844  -1.147  -1.395  0.00  0.00    +0.030 C 
ATOM     15  C   UNL     1       2.959   0.230  -0.738  0.00  0.00    +0.031 C 
ATOM     16  C   UNL     1       3.547  -2.188  -0.522  0.00  0.00    +0.031 C 
BRANCH  14  17
ATOM     17  C   UNL     1       1.368  -1.520  -1.544  0.00  0.00    +0.031 C 
BRANCH  17  19
ATOM     18  C   UNL     1       1.108  -1.444  -4.028  0.00  0.00    +0.010 C 
ATOM     19  C   UNL     1       0.761  -0.741  -2.714  0.00  0.00    -0.036 C 
ATOM     20  C   UNL     1       1.329   0.679  -2.730  0.00  0.00    +0.010 C 
ATOM     21  C   UNL     1      -0.759  -0.681  -2.553  0.00  0.00    +0.010 C 
ENDBRANCH  17  19
ENDBRANCH  14  17
ENDBRANCH  10  14
ENDBRANCH   1  11
BRANCH   1  22
ATOM     22  N   UNL     1       6.785  -0.200  -4.071  0.00  0.00    -0.250 N 
ATOM     23  C   UNL     1       7.546  -0.029  -5.170  0.00  0.00    +0.255 C 
ATOM     24  O   UNL     1       7.110  -0.329  -6.265  0.00  0.00    -0.269 OA
BRANCH  22  25
ATOM     25  C   UNL     1       7.321   0.048  -2.803  0.00  0.00    +0.056 A 
ATOM     26  C   UNL     1       7.936  -0.976  -2.095  0.00  0.00    +0.025 A 
ATOM     27  C   UNL     1       8.464  -0.727  -0.843  0.00  0.00    +0.002 A 
ATOM     28  C   UNL     1       8.381   0.540  -0.294  0.00  0.00    +0.002 A 
ATOM     29  C   UNL     1       7.770   1.562  -0.997  0.00  0.00    +0.022 A 
ATOM     30  C   UNL     1       7.244   1.322  -2.252  0.00  0.00    +0.062 A 
ATOM     31 CL   UNL     1       6.482   2.607  -3.136  0.00  0.00    -0.082 Cl
ENDBRANCH  22  25
BRANCH  23  32
ATOM     32  C   UNL     1       8.909   0.522  -5.045  0.00  0.00    +0.082 A 
ATOM     33  C   UNL     1       9.877  -0.160  -4.302  0.00  0.00    +0.017 A 
ATOM     34  C   UNL     1      11.148   0.357  -4.187  0.00  0.00    +0.005 A 
ATOM     35  C   UNL     1      11.475   1.554  -4.804  0.00  0.00    +0.049 A 
ATOM     36  C   UNL     1      10.527   2.241  -5.543  0.00  0.00    +0.159 A 
ATOM     37  C   UNL     1       9.240   1.728  -5.673  0.00  0.00    +0.171 A 
BRANCH  37  38
ATOM     38  O   UNL     1       8.310   2.396  -6.402  0.00  0.00    -0.503 OA
ATOM     39  H   UNL     1       7.794   3.034  -5.891  0.00  0.00    +0.292 HD
ENDBRANCH  37  38
BRANCH  36  40
ATOM     40  O   UNL     1      10.855   3.416  -6.146  0.00  0.00    -0.503 OA
ATOM     41  H   UNL     1      11.196   3.314  -7.045  0.00  0.00    +0.292 HD
ENDBRANCH  36  40
ENDBRANCH  23  32
ENDBRANCH   1  22
TORSDOF 11
