REMARK  Name = ZINC44386031
REMARK  7 active torsions:
REMARK  status: ('A' for Active; 'I' for Inactive)
REMARK    1  A    between atoms: C_1  and  C_2
REMARK    2  A    between atoms: C_3  and  C_8
REMARK    3  A    between atoms: C_5  and  C_7
REMARK    4  A    between atoms: C_8  and  C_10
REMARK    5  A    between atoms: C_8  and  N_11
REMARK    6  A    between atoms: C_12  and  C_14
REMARK    7  A    between atoms: C_14  and  C_20
REMARK                            x       y       z     vdW  Elec       q    Type
REMARK                         _______ _______ _______ _____ _____    ______ ____
ROOT
ATOM      1  N   UNL     1      -0.978  -0.991  -3.359  0.00  0.00    -0.307 N 
ATOM      2  C   UNL     1      -1.540  -0.459  -4.462  0.00  0.00    +0.234 C 
ATOM      3  O   UNL     1      -1.243   0.664  -4.813  0.00  0.00    -0.274 OA
ATOM      4  H   UNL     1      -1.216  -1.889  -3.079  0.00  0.00    +0.149 HD
ENDROOT
BRANCH   2   5
ATOM      5  C   UNL     1      -2.538  -1.258  -5.261  0.00  0.00    +0.133 C 
ATOM      6  C   UNL     1      -3.732  -1.615  -4.373  0.00  0.00    +0.031 C 
ATOM      7  C   UNL     1      -4.745  -2.426  -5.184  0.00  0.00    +0.002 C 
ATOM      8  C   UNL     1      -5.226  -1.596  -6.376  0.00  0.00    +0.000 C 
ATOM      9  C   UNL     1      -4.032  -1.239  -7.263  0.00  0.00    +0.002 C 
ATOM     10  C   UNL     1      -3.018  -0.428  -6.453  0.00  0.00    +0.031 C 
BRANCH   5  11
ATOM     11  C   UNL     1      -1.901  -2.492  -5.747  0.00  0.00    +0.079 C 
ATOM     12  N   UNL     1      -1.410  -3.445  -6.122  0.00  0.00    -0.195 NA
ENDBRANCH   5  11
ENDBRANCH   2   5
BRANCH   1  13
ATOM     13  C   UNL     1      -0.008  -0.215  -2.583  0.00  0.00    +0.109 C 
ATOM     14  C   UNL     1       1.384  -0.381  -3.194  0.00  0.00    +0.033 C 
BRANCH  13  17
ATOM     15  C   UNL     1      -0.018   1.503   0.010  0.00  0.00    +0.066 C 
ATOM     16  C   UNL     1       0.002  -0.004   0.002  0.00  0.00    +0.051 A 
ATOM     17  C   UNL     1       0.006  -0.708  -1.159  0.00  0.00    +0.032 A 
ATOM     18  S   UNL     1       0.032  -2.379  -0.531  0.00  0.00    -0.075 S 
ATOM     19  C   UNL     1       0.036  -2.009   1.111  0.00  0.00    +0.076 A 
ATOM     20  N   UNL     1       0.023  -0.699   1.122  0.00  0.00    -0.249 NA
ATOM     21  C   UNL     1       0.055  -2.955   2.284  0.00  0.00    +0.073 C 
ENDBRANCH  13  17
ENDBRANCH   1  13
TORSDOF 4
