REMARK  Name = ZINC17299589
REMARK  6 active torsions:
REMARK  status: ('A' for Active; 'I' for Inactive)
REMARK    1  A    between atoms: N_9  and  C_14
REMARK    2  A    between atoms: C_14  and  C_15
REMARK    3  A    between atoms: C_15  and  C_16
REMARK    4  A    between atoms: C_16  and  C_17
REMARK    5  A    between atoms: C_17  and  C_18
REMARK    6  A    between atoms: C_18  and  C_19
REMARK                            x       y       z     vdW  Elec       q    Type
REMARK                         _______ _______ _______ _____ _____    ______ ____
ROOT
ATOM      1  C   UNL     1       6.485   5.429  -1.474  0.00  0.00    +0.002 C 
ENDROOT
BRANCH   1   2
ATOM      2  C   UNL     1       5.202   4.595  -1.466  0.00  0.00    +0.022 C 
BRANCH   2   3
ATOM      3  C   UNL     1       4.790   4.309  -0.021  0.00  0.00    +0.127 C 
BRANCH   3  12
ATOM      4  C   UNL     1       1.204  -0.695  -0.013  0.00  0.00    +0.001 A 
ATOM      5  C   UNL     1       0.002  -0.004   0.002  0.00  0.00    +0.002 A 
ATOM      6  C   UNL     1      -0.017   1.377   0.010  0.00  0.00    +0.026 A 
ATOM      7  C   UNL     1       1.178   2.081   0.002  0.00  0.00    +0.053 A 
ATOM      8  C   UNL     1       2.397   1.382  -0.014  0.00  0.00    +0.063 A 
ATOM      9  C   UNL     1       2.402  -0.011  -0.021  0.00  0.00    +0.015 A 
ATOM     10  C   UNL     1       3.648   2.162  -0.022  0.00  0.00    +0.262 A 
ATOM     11  O   UNL     1       4.729   1.606  -0.035  0.00  0.00    -0.267 OA
ATOM     12  N   UNL     1       3.562   3.510  -0.013  0.00  0.00    -0.288 N 
ATOM     13  C   UNL     1       2.372   4.131   0.002  0.00  0.00    +0.161 A 
ATOM     14  S   UNL     1       2.342   5.843   0.011  0.00  0.00    -0.013 S 
ATOM     15  N   UNL     1       1.203   3.468   0.010  0.00  0.00    -0.335 N 
ATOM     16  H   UNL     1       0.369   3.963   0.021  0.00  0.00    +0.168 HD
ENDBRANCH   3  12
ENDBRANCH   2   3
ENDBRANCH   1   2
BRANCH   1  17
ATOM     17  C   UNL     1       6.898   5.715  -2.920  0.00  0.00    +0.009 C 
BRANCH  17  18
ATOM     18  C   UNL     1       8.180   6.550  -2.928  0.00  0.00    +0.096 C 
BRANCH  18  19
ATOM     19  C   UNL     1       8.587   6.832  -4.351  0.00  0.00    +0.216 C 
ATOM     20  O   UNL     1       7.917   6.407  -5.269  0.00  0.00    -0.276 OA
ATOM     21  N   UNL     1       9.695   7.555  -4.605  0.00  0.00    -0.298 N 
ATOM     22  C   UNL     1      10.519   8.085  -3.507  0.00  0.00    +0.126 C 
ATOM     23  C   UNL     1      11.979   7.680  -3.761  0.00  0.00    +0.127 C 
ATOM     24  N   UNL     1      12.378   8.122  -5.104  0.00  0.00    -0.297 N 
ATOM     25  C   UNL     1      11.584   7.452  -6.143  0.00  0.00    +0.127 C 
ATOM     26  C   UNL     1      10.110   7.842  -5.986  0.00  0.00    +0.126 C 
ATOM     27  C   UNL     1      13.732   7.924  -5.310  0.00  0.00    +0.218 A 
ATOM     28  N   UNL     1      14.129   7.198  -6.346  0.00  0.00    -0.223 NA
ATOM     29  C   UNL     1      15.416   6.995  -6.574  0.00  0.00    +0.116 A 
ATOM     30  C   UNL     1      16.351   7.541  -5.709  0.00  0.00    +0.039 A 
ATOM     31  C   UNL     1      15.901   8.290  -4.633  0.00  0.00    +0.116 A 
ATOM     32  N   UNL     1      14.600   8.460  -4.465  0.00  0.00    -0.223 NA
ENDBRANCH  18  19
ENDBRANCH  17  18
ENDBRANCH   1  17
TORSDOF 6
