REMARK  Name = ZINC57220276
REMARK  8 active torsions:
REMARK  status: ('A' for Active; 'I' for Inactive)
REMARK    1  A    between atoms: C_1  and  C_2
REMARK    2  A    between atoms: C_2  and  C_3
REMARK    3  A    between atoms: C_2  and  O_4
REMARK    4  A    between atoms: O_4  and  C_5
REMARK    5  A    between atoms: C_10  and  C_11
REMARK    6  A    between atoms: C_11  and  N_12
REMARK    7  A    between atoms: N_15  and  N_16
REMARK    8  A    between atoms: C_17  and  C_19
REMARK                            x       y       z     vdW  Elec       q    Type
REMARK                         _______ _______ _______ _____ _____    ______ ____
ROOT
ATOM      1  N   UNL     1       1.686   0.106  -4.193  0.00  0.00    -0.294 N 
ATOM      2  C   UNL     1       1.036   0.110  -5.373  0.00  0.00    +0.316 C 
ATOM      3  O   UNL     1       0.733  -0.942  -5.904  0.00  0.00    -0.251 OA
ATOM      4  N   UNL     1       0.720   1.278  -5.965  0.00  0.00    -0.218 N 
ATOM      5  H   UNL     1       1.928   0.945  -3.770  0.00  0.00    +0.151 HD
ATOM      6  H   UNL     1       0.251   1.281  -6.815  0.00  0.00    +0.174 HD
ENDROOT
BRANCH   4   7
ATOM      7  N   UNL     1       1.068   2.490  -5.354  0.00  0.00    -0.229 N 
ATOM      8  C   UNL     1       0.752   3.659  -5.946  0.00  0.00    +0.260 C 
ATOM      9  O   UNL     1       0.165   3.662  -7.011  0.00  0.00    -0.269 OA
ATOM     10  H   UNL     1       1.536   2.487  -4.505  0.00  0.00    +0.173 HD
BRANCH   8  11
ATOM     11  C   UNL     1       1.120   4.937  -5.301  0.00  0.00    +0.038 A 
ATOM     12  C   UNL     1       1.799   4.936  -4.082  0.00  0.00    +0.014 A 
ATOM     13  C   UNL     1       2.139   6.132  -3.485  0.00  0.00    +0.021 A 
ATOM     14  C   UNL     1       1.808   7.332  -4.093  0.00  0.00    +0.041 A 
ATOM     15  C   UNL     1       1.133   7.338  -5.302  0.00  0.00    +0.021 A 
ATOM     16  C   UNL     1       0.794   6.149  -5.912  0.00  0.00    +0.014 A 
ATOM     17 CL   UNL     1       2.239   8.833  -3.335  0.00  0.00    -0.084 Cl
ENDBRANCH   8  11
ENDBRANCH   4   7
BRANCH   1  18
ATOM     18  C   UNL     1       2.030  -1.164  -3.549  0.00  0.00    +0.144 C 
BRANCH  18  24
ATOM     19  C   UNL     1       2.026  -0.553  -1.118  0.00  0.00    +0.126 A 
ATOM     20  C   UNL     1       2.689  -0.308   0.076  0.00  0.00    +0.046 A 
ATOM     21  C   UNL     1       4.067  -0.399   0.131  0.00  0.00    +0.004 A 
ATOM     22  C   UNL     1       4.784  -0.733  -1.004  0.00  0.00    +0.001 A 
ATOM     23  C   UNL     1       4.125  -0.976  -2.194  0.00  0.00    +0.009 A 
ATOM     24  C   UNL     1       2.748  -0.893  -2.252  0.00  0.00    +0.011 A 
BRANCH  19  25
ATOM     25  O   UNL     1       0.671  -0.465  -1.174  0.00  0.00    -0.489 OA
BRANCH  25  27
ATOM     26  C   UNL     1      -0.050   1.265   0.351  0.00  0.00    +0.051 C 
ATOM     27  C   UNL     1      -0.016  -0.236   0.058  0.00  0.00    +0.167 C 
ATOM     28  C   UNL     1      -1.446  -0.768  -0.049  0.00  0.00    +0.051 C 
ENDBRANCH  25  27
ENDBRANCH  19  25
ENDBRANCH  18  24
ENDBRANCH   1  18
TORSDOF 6
