REMARK  Name = ZINC49009635
REMARK  8 active torsions:
REMARK  status: ('A' for Active; 'I' for Inactive)
REMARK    1  A    between atoms: C_1  and  C_2
REMARK    2  A    between atoms: C_5  and  N_23
REMARK    3  A    between atoms: C_6  and  C_22
REMARK    4  A    between atoms: C_7  and  S_8
REMARK    5  A    between atoms: S_8  and  N_11
REMARK    6  A    between atoms: N_11  and  C_12
REMARK    7  A    between atoms: N_11  and  C_13
REMARK    8  A    between atoms: C_18  and  C_21
REMARK                            x       y       z     vdW  Elec       q    Type
REMARK                         _______ _______ _______ _____ _____    ______ ____
ROOT
ATOM      1  S   UNL     1       0.449   0.301   3.055  0.00  0.00    +0.061 S 
ATOM      2  O   UNL     1       1.327  -0.312   3.990  0.00  0.00    -0.153 OA
ATOM      3  O   UNL     1       0.550   1.673   2.701  0.00  0.00    -0.153 OA
ENDROOT
BRANCH   1  10
ATOM      4  C   UNL     1      -0.333   1.363   0.336  0.00  0.00    +0.046 C 
ATOM      5  C   UNL     1       0.204  -0.045   0.359  0.00  0.00    -0.024 A 
ATOM      6  C   UNL     1       0.317  -0.760  -0.820  0.00  0.00    +0.007 A 
ATOM      7  C   UNL     1       0.809  -2.050  -0.802  0.00  0.00    +0.023 A 
ATOM      8  C   UNL     1       1.191  -2.630   0.402  0.00  0.00    +0.029 A 
ATOM      9  C   UNL     1       1.076  -1.909   1.583  0.00  0.00    -0.003 A 
ATOM     10  C   UNL     1       0.588  -0.617   1.558  0.00  0.00    +0.113 A 
ATOM     11  C   UNL     1       1.488  -2.534   2.891  0.00  0.00    +0.048 C 
BRANCH   8  12
ATOM     12  N   UNL     1       1.688  -3.935   0.423  0.00  0.00    -0.358 N 
ATOM     13  H   UNL     1       1.768  -4.437  -0.403  0.00  0.00    +0.142 HD
ATOM     14  H   UNL     1       1.954  -4.338   1.264  0.00  0.00    +0.142 HD
ENDBRANCH   8  12
ENDBRANCH   1  10
BRANCH   1  15
ATOM     15  N   UNL     1      -1.088   0.072   3.628  0.00  0.00    -0.177 NA
ATOM     16  C   UNL     1      -1.398  -1.105   4.444  0.00  0.00    +0.132 C 
BRANCH  15  17
ATOM     17  C   UNL     1      -2.137   1.047   3.320  0.00  0.00    +0.080 C 
ATOM     18  C   UNL     1      -3.457   0.591   3.946  0.00  0.00    +0.020 C 
ATOM     19  C   UNL     1      -3.291   0.483   5.463  0.00  0.00    +0.002 C 
ATOM     20  C   UNL     1      -2.901   1.849   6.033  0.00  0.00    +0.003 C 
ATOM     21  C   UNL     1      -1.582   2.305   5.406  0.00  0.00    -0.013 C 
ATOM     22  C   UNL     1      -1.748   2.413   3.889  0.00  0.00    +0.024 C 
ATOM     23  C   UNL     1      -1.192   3.671   5.976  0.00  0.00    +0.007 C 
ENDBRANCH  15  17
ENDBRANCH   1  15
TORSDOF 4
