REMARK  Name = ZINC02908146
REMARK  8 active torsions:
REMARK  status: ('A' for Active; 'I' for Inactive)
REMARK    1  A    between atoms: C_1  and  C_2
REMARK    2  A    between atoms: C_5  and  O_9
REMARK    3  A    between atoms: C_7  and  C_8
REMARK    4  A    between atoms: O_9  and  C_10
REMARK    5  A    between atoms: C_10  and  C_11
REMARK    6  A    between atoms: C_11  and  S_12
REMARK    7  A    between atoms: S_12  and  C_13
REMARK    8  A    between atoms: C_19  and  N_23
REMARK                            x       y       z     vdW  Elec       q    Type
REMARK                         _______ _______ _______ _____ _____    ______ ____
ROOT
ATOM      1  C   UNL     1      -7.558   4.196   0.095  0.00  0.00    +0.169 A 
ATOM      2  N   UNL     1      -8.911   3.992   0.102  0.00  0.00    -0.318 N 
ATOM      3  H   UNL     1      -9.377   3.107   0.095  0.00  0.00    +0.169 HD
ATOM      4  C   UNL     1      -9.514   5.229   0.119  0.00  0.00    +0.164 A 
ATOM      5  C   UNL     1      -8.472   6.172   0.113  0.00  0.00    +0.148 A 
ATOM      6  N   UNL     1      -7.304   5.482   0.099  0.00  0.00    -0.217 NA
ATOM      7  C   UNL     1      -8.810   7.534   0.122  0.00  0.00    +0.147 A 
ATOM      8  N   UNL     1     -10.097   7.868   0.136  0.00  0.00    -0.219 NA
ATOM      9  C   UNL     1     -11.042   6.946   0.142  0.00  0.00    +0.225 A 
ATOM     10  N   UNL     1     -10.771   5.657   0.133  0.00  0.00    -0.216 NA
ENDROOT
BRANCH   7  11
ATOM     11  N   UNL     1      -7.826   8.509   0.116  0.00  0.00    -0.341 N 
ATOM     12  H   UNL     1      -7.249   8.405   0.927  0.00  0.00    +0.144 HD
ATOM     13  H   UNL     1      -8.072   9.448   0.123  0.00  0.00    +0.144 HD
ENDBRANCH   7  11
BRANCH   1  14
ATOM     14  S   UNL     1      -6.341   2.922   0.078  0.00  0.00    -0.084 S 
BRANCH  14  15
ATOM     15  C   UNL     1      -4.835   3.926   0.068  0.00  0.00    +0.118 C 
BRANCH  15  16
ATOM     16  C   UNL     1      -3.610   3.009   0.052  0.00  0.00    +0.240 C 
BRANCH  16  17
ATOM     17  O   UNL     1      -2.421   3.802   0.045  0.00  0.00    -0.491 OA
BRANCH  17  22
ATOM     18  C   UNL     1       2.490   1.045  -0.016  0.00  0.00    +0.044 C 
ATOM     19  C   UNL     1       1.176   1.783   0.000  0.00  0.00    -0.047 A 
ATOM     20  C   UNL     1      -0.013   1.076   0.008  0.00  0.00    +0.007 A 
ATOM     21  C   UNL     1      -1.218   1.750   0.017  0.00  0.00    +0.046 A 
ATOM     22  C   UNL     1      -1.236   3.137   0.030  0.00  0.00    +0.121 A 
ATOM     23  C   UNL     1      -0.043   3.844   0.022  0.00  0.00    +0.049 A 
ATOM     24  C   UNL     1       1.161   3.165   0.007  0.00  0.00    -0.044 A 
ATOM     25  C   UNL     1       2.457   3.933  -0.002  0.00  0.00    +0.044 C 
ENDBRANCH  17  22
ENDBRANCH  16  17
ENDBRANCH  15  16
ENDBRANCH  14  15
ENDBRANCH   1  14
TORSDOF 6
