REMARK  Name = ZINC52297871
REMARK  3 active torsions:
REMARK  status: ('A' for Active; 'I' for Inactive)
REMARK    1  A    between atoms: C_1  and  C_2
REMARK    2  A    between atoms: C_5  and  N_7
REMARK    3  A    between atoms: C_9  and  N_15
REMARK                            x       y       z     vdW  Elec       q    Type
REMARK                         _______ _______ _______ _____ _____    ______ ____
ROOT
ATOM      1  N   UNL     1       1.364   0.165   2.137  0.00  0.00    -0.324 N 
ATOM      2  C   UNL     1       2.381  -0.335   2.942  0.00  0.00    +0.151 A 
ATOM      3  C   UNL     1       2.974   0.488   3.893  0.00  0.00    +0.166 A 
ATOM      4  C   UNL     1       3.986  -0.021   4.688  0.00  0.00    +0.039 A 
ATOM      5  C   UNL     1       4.371  -1.342   4.504  0.00  0.00    +0.042 A 
ATOM      6  C   UNL     1       3.739  -2.104   3.540  0.00  0.00    +0.131 A 
ATOM      7  N   UNL     1       2.773  -1.592   2.799  0.00  0.00    -0.218 NA
ATOM      8 CL   UNL     1       4.216  -3.756   3.304  0.00  0.00    -0.062 Cl
ATOM      9  H   UNL     1       1.125   1.103   2.185  0.00  0.00    +0.148 HD
ENDROOT
BRANCH   1  13
ATOM     10  C   UNL     1       0.137   1.419  -0.189  0.00  0.00    +0.009 C 
ATOM     11  C   UNL     1      -0.000  -0.095  -0.015  0.00  0.00    +0.008 C 
ATOM     12  C   UNL     1      -0.869  -0.597   1.140  0.00  0.00    +0.027 C 
ATOM     13  C   UNL     1       0.654  -0.726   1.216  0.00  0.00    +0.075 C 
ENDBRANCH   1  13
BRANCH   3  14
ATOM     14  N   UNL     1       2.530   1.891   4.053  0.00  0.00    +0.060 N 
ATOM     15  O   UNL     1       3.338   2.757   4.295  0.00  0.00    -0.126 OA
ATOM     16  O   UNL     1       1.359   2.170   3.941  0.00  0.00    -0.126 OA
ENDBRANCH   3  14
TORSDOF 2
