REMARK  Name = ZINC22032905
REMARK  9 active torsions:
REMARK  status: ('A' for Active; 'I' for Inactive)
REMARK    1  A    between atoms: C_1  and  C_2
REMARK    2  A    between atoms: C_2  and  C_4
REMARK    3  A    between atoms: C_2  and  N_10
REMARK    4  A    between atoms: C_11  and  C_13
REMARK    5  A    between atoms: C_13  and  C_15
REMARK    6  A    between atoms: C_13  and  S_16
REMARK    7  A    between atoms: S_16  and  C_17
REMARK    8  A    between atoms: C_20  and  C_24
REMARK    9  A    between atoms: C_21  and  N_23
REMARK                            x       y       z     vdW  Elec       q    Type
REMARK                         _______ _______ _______ _____ _____    ______ ____
ROOT
ATOM      1  C   UNL     1       1.756   2.096  -0.004  0.00  0.00    +0.137 C 
ATOM      2  C   UNL     1       2.384   1.586   1.295  0.00  0.00    +0.029 C 
ENDROOT
BRANCH   1   4
ATOM      3  N   UNL     1       3.135   4.047  -0.646  0.00  0.00    -0.308 N 
ATOM      4  C   UNL     1       1.984   3.581  -0.121  0.00  0.00    +0.227 C 
ATOM      5  O   UNL     1       1.131   4.357   0.256  0.00  0.00    -0.275 OA
ATOM      6  H   UNL     1       3.908   3.343  -0.988  0.00  0.00    +0.149 HD
BRANCH   3   8
ATOM      7  C   UNL     1       2.728   6.001  -2.059  0.00  0.00    +0.033 C 
ATOM      8  C   UNL     1       3.356   5.491  -0.761  0.00  0.00    +0.100 C 
BRANCH   8   9
ATOM      9  C   UNL     1       4.836   5.773  -0.773  0.00  0.00    -0.027 A 
ATOM     10  C   UNL     1       5.693   4.939  -1.468  0.00  0.00    +0.005 A 
ATOM     11  C   UNL     1       7.050   5.200  -1.483  0.00  0.00    +0.000 A 
ATOM     12  C   UNL     1       7.552   6.289  -0.796  0.00  0.00    +0.000 A 
ATOM     13  C   UNL     1       6.696   7.120  -0.097  0.00  0.00    +0.000 A 
ATOM     14  C   UNL     1       5.338   6.862  -0.086  0.00  0.00    +0.005 A 
ENDBRANCH   8   9
ENDBRANCH   3   8
ENDBRANCH   1   4
BRANCH   1  15
ATOM     15  S   UNL     1      -0.022   1.758   0.012  0.00  0.00    -0.074 S 
BRANCH  15  16
ATOM     16  C   UNL     1       0.002  -0.004   0.002  0.00  0.00    +0.191 A 
ATOM     17  N   UNL     1       1.172  -0.631  -0.018  0.00  0.00    -0.229 NA
ATOM     18  C   UNL     1       1.239  -1.950  -0.020  0.00  0.00    +0.136 A 
ATOM     19  C   UNL     1       0.053  -2.692  -0.013  0.00  0.00    +0.109 A 
ATOM     20  C   UNL     1      -1.172  -1.989   0.003  0.00  0.00    +0.138 A 
ATOM     21  N   UNL     1      -1.149  -0.662   0.009  0.00  0.00    -0.206 NA
BRANCH  20  22
ATOM     22  N   UNL     1      -2.372  -2.670   0.011  0.00  0.00    -0.342 N 
ATOM     23  H   UNL     1      -3.321  -2.113   0.023  0.00  0.00    +0.144 HD
ATOM     24  H   UNL     1      -2.381  -3.770   0.005  0.00  0.00    +0.144 HD
ENDBRANCH  20  22
BRANCH  19  25
ATOM     25  C   UNL     1       0.080  -4.123  -0.021  0.00  0.00    +0.104 C 
ATOM     26  N   UNL     1       0.101  -5.259  -0.028  0.00  0.00    -0.191 NA
ENDBRANCH  19  25
ENDBRANCH  15  16
ENDBRANCH   1  15
TORSDOF 7
