REMARK  Name = ZINC09376727
REMARK  5 active torsions:
REMARK  status: ('A' for Active; 'I' for Inactive)
REMARK    1  A    between atoms: C_4  and  C_7
REMARK    2  A    between atoms: C_12  and  C_19
REMARK    3  A    between atoms: N_21  and  C_22
REMARK    4  A    between atoms: C_26  and  S_28
REMARK    5  A    between atoms: S_28  and  N_31
REMARK                            x       y       z     vdW  Elec       q    Type
REMARK                         _______ _______ _______ _____ _____    ______ ____
ROOT
ATOM      1  C   UNL     1      -0.679  10.240  -3.777  0.00  0.00    +0.248 C 
ATOM      2  O   UNL     1      -0.467   9.693  -4.842  0.00  0.00    -0.270 OA
ATOM      3  N   UNL     1      -0.763  11.584  -3.714  0.00  0.00    -0.281 N 
ATOM      4  H   UNL     1      -1.008  12.016  -2.881  0.00  0.00    +0.155 HD
ENDROOT
BRANCH   1   9
ATOM      5  C   UNL     1      -0.500   5.194  -0.178  0.00  0.00    +0.211 C 
ATOM      6  C   UNL     1      -0.822   5.780  -1.553  0.00  0.00    +0.085 C 
ATOM      7  C   UNL     1      -0.914   7.282  -1.474  0.00  0.00    -0.029 A 
ATOM      8  C   UNL     1      -0.759   8.039  -2.616  0.00  0.00    +0.017 A 
ATOM      9  C   UNL     1      -0.846   9.430  -2.550  0.00  0.00    +0.037 A 
ATOM     10  C   UNL     1      -1.090  10.059  -1.328  0.00  0.00    +0.014 A 
ATOM     11  C   UNL     1      -1.244   9.304  -0.185  0.00  0.00    +0.016 A 
ATOM     12  C   UNL     1      -1.155   7.915  -0.253  0.00  0.00    +0.062 A 
ATOM     13  C   UNL     1      -1.315   7.095   0.973  0.00  0.00    +0.340 C 
ATOM     14  O   UNL     1      -1.354   7.603   2.075  0.00  0.00    -0.245 OA
ATOM     15  O   UNL     1      -1.415   5.751   0.809  0.00  0.00    -0.453 OA
BRANCH   5  19
ATOM     16  C   UNL     1      -0.944   0.947  -0.299  0.00  0.00    +0.000 A 
ATOM     17  C   UNL     1      -2.058   1.755  -0.172  0.00  0.00    +0.000 A 
ATOM     18  C   UNL     1      -1.914   3.129  -0.128  0.00  0.00    +0.007 A 
ATOM     19  C   UNL     1      -0.656   3.696  -0.221  0.00  0.00    -0.007 A 
ATOM     20  C   UNL     1       0.458   2.888  -0.353  0.00  0.00    +0.007 A 
ATOM     21  C   UNL     1       0.314   1.514  -0.392  0.00  0.00    +0.000 A 
ENDBRANCH   5  19
ENDBRANCH   1   9
BRANCH   3  22
ATOM     22  C   UNL     1      -0.497  12.354  -4.850  0.00  0.00    +0.036 A 
ATOM     23  C   UNL     1      -1.182  13.544  -5.060  0.00  0.00    +0.023 A 
ATOM     24  C   UNL     1      -0.917  14.303  -6.183  0.00  0.00    +0.004 A 
ATOM     25  C   UNL     1       0.030  13.880  -7.098  0.00  0.00    +0.029 A 
ATOM     26  C   UNL     1       0.714  12.696  -6.892  0.00  0.00    +0.110 A 
ATOM     27  C   UNL     1       0.458  11.935  -5.768  0.00  0.00    +0.052 A 
BRANCH  26  28
ATOM     28  S   UNL     1       1.919  12.161  -8.060  0.00  0.00    +0.073 S 
ATOM     29  O   UNL     1       2.028  10.752  -7.916  0.00  0.00    -0.150 OA
ATOM     30  O   UNL     1       1.587  12.777  -9.297  0.00  0.00    -0.150 OA
BRANCH  28  31
ATOM     31  N   UNL     1       3.374  12.798  -7.590  0.00  0.00    -0.205 N 
ATOM     32  C   UNL     1       3.943  12.407  -6.407  0.00  0.00    +0.088 C 
ATOM     33  C   UNL     1       4.261  11.329  -4.412  0.00  0.00    +0.114 C 
ATOM     34  C   UNL     1       5.251  12.517  -4.387  0.00  0.00    +0.028 C 
ATOM     35  C   UNL     1       5.267  12.917  -5.884  0.00  0.00    +0.072 C 
ATOM     36  H   UNL     1       3.823  13.449  -8.153  0.00  0.00    +0.175 HD
ATOM     37  N   UNL     1       3.408  11.543  -5.600  0.00  0.00    -0.375 N 
ATOM     38  H   UNL     1       2.511  11.072  -5.765  0.00  0.00    +0.161 HD
ENDBRANCH  28  31
ENDBRANCH  26  28
ENDBRANCH   3  22
TORSDOF 5
