REMARK  Name = ZINC37856692
REMARK  4 active torsions:
REMARK  status: ('A' for Active; 'I' for Inactive)
REMARK    1  A    between atoms: C_1  and  C_2
REMARK    2  A    between atoms: C_3  and  S_9
REMARK    3  A    between atoms: S_9  and  N_12
REMARK    4  A    between atoms: N_12  and  C_13
REMARK                            x       y       z     vdW  Elec       q    Type
REMARK                         _______ _______ _______ _____ _____    ______ ____
ROOT
ATOM      1  N   UNL     1      -3.443  -0.496  -1.469  0.00  0.00    -0.182 NA
ATOM      2  H   UNL     1      -4.046   0.184  -1.806  0.00  0.00    +0.149 HD
ENDROOT
BRANCH   1   3
ATOM      3  C   UNL     1      -3.534  -1.870  -1.971  0.00  0.00    +0.113 C 
ATOM      4  C   UNL     1      -3.192  -1.891  -3.463  0.00  0.00    +0.066 C 
ATOM      5  C   UNL     1      -3.577  -3.264  -4.026  0.00  0.00    +0.231 C 
ATOM      6  O   UNL     1      -4.995  -3.408  -3.931  0.00  0.00    -0.492 OA
ATOM      7  C   UNL     1      -5.583  -3.123  -2.740  0.00  0.00    +0.125 A 
ATOM      8  C   UNL     1      -4.935  -2.387  -1.765  0.00  0.00    +0.013 A 
ATOM      9  C   UNL     1      -5.576  -2.116  -0.568  0.00  0.00    +0.009 A 
ATOM     10  C   UNL     1      -6.859  -2.578  -0.344  0.00  0.00    +0.001 A 
ATOM     11  C   UNL     1      -7.508  -3.315  -1.317  0.00  0.00    +0.004 A 
ATOM     12  C   UNL     1      -6.874  -3.588  -2.510  0.00  0.00    +0.046 A 
ENDBRANCH   1   3
BRANCH   1  13
ATOM     13  S   UNL     1      -2.310  -0.106  -0.326  0.00  0.00    +0.067 S 
ATOM     14  O   UNL     1      -2.409  -1.088   0.696  0.00  0.00    -0.152 OA
ATOM     15  O   UNL     1      -2.458   1.283  -0.065  0.00  0.00    -0.152 OA
BRANCH  13  18
ATOM     16  C   UNL     1      -0.099   2.085  -1.202  0.00  0.00    +0.066 C 
ATOM     17  C   UNL     1       0.167   0.618  -1.421  0.00  0.00    +0.050 A 
ATOM     18  C   UNL     1      -0.726  -0.312  -1.070  0.00  0.00    +0.166 A 
ATOM     19  S   UNL     1       0.103  -1.816  -1.551  0.00  0.00    -0.007 S 
ATOM     20  C   UNL     1       1.518  -1.142  -2.159  0.00  0.00    +0.290 A 
ATOM     21  O   UNL     1       2.481  -1.712  -2.640  0.00  0.00    -0.260 OA
ATOM     22  N   UNL     1       1.327   0.183  -1.991  0.00  0.00    -0.318 N 
ATOM     23  H   UNL     1       2.007   0.817  -2.268  0.00  0.00    +0.169 HD
ENDBRANCH  13  18
ENDBRANCH   1  13
TORSDOF 3
