REMARK  Name = ZINC66702748
REMARK  11 active torsions:
REMARK  status: ('A' for Active; 'I' for Inactive)
REMARK    1  A    between atoms: C_1  and  C_2
REMARK    2  A    between atoms: C_2  and  N_3
REMARK    3  A    between atoms: N_6  and  C_9
REMARK    4  A    between atoms: C_14  and  C_15
REMARK    5  A    between atoms: C_15  and  C_17
REMARK    6  A    between atoms: C_15  and  N_18
REMARK    7  A    between atoms: N_21  and  N_22
REMARK    8  A    between atoms: C_23  and  C_25
REMARK    9  A    between atoms: C_25  and  O_26
REMARK   10  A    between atoms: O_26  and  C_27
REMARK   11  A    between atoms: C_27  and  C_28
REMARK                            x       y       z     vdW  Elec       q    Type
REMARK                         _______ _______ _______ _____ _____    ______ ____
ROOT
ATOM      1  C   UNL     1      -4.346  -2.849  -1.669  0.00  0.00    +0.035 A 
ATOM      2  C   UNL     1      -3.789  -3.461  -2.785  0.00  0.00    +0.026 A 
ATOM      3  C   UNL     1      -4.554  -4.312  -3.559  0.00  0.00    +0.040 A 
ATOM      4  C   UNL     1      -5.875  -4.555  -3.223  0.00  0.00    +0.124 A 
ATOM      5  C   UNL     1      -6.433  -3.946  -2.112  0.00  0.00    +0.045 A 
ATOM      6  C   UNL     1      -5.670  -3.099  -1.332  0.00  0.00    -0.004 A 
ATOM      7  F   UNL     1      -6.622  -5.387  -3.982  0.00  0.00    -0.205 F 
ENDROOT
BRANCH   1  11
ATOM      8  N   UNL     1      -1.376  -0.512   0.012  0.00  0.00    +0.382 N 
ATOM      9  C   UNL     1      -2.051  -0.116  -1.230  0.00  0.00    -0.060 C 
ATOM     10  C   UNL     1      -3.521  -0.546  -1.171  0.00  0.00    +0.086 C 
ATOM     11  N   UNL     1      -3.574  -1.988  -0.884  0.00  0.00    -0.333 N 
ATOM     12  C   UNL     1      -2.790  -2.499   0.251  0.00  0.00    +0.086 C 
ATOM     13  C   UNL     1      -1.355  -1.976   0.125  0.00  0.00    -0.060 C 
ATOM     14  H   UNL     1      -1.871  -0.123   0.801  0.00  0.00    -0.082 HD
BRANCH   8  16
ATOM     15  C   UNL     1      -0.019   1.526   0.010  0.00  0.00    -0.017 C 
ATOM     16  C   UNL     1       0.002  -0.004   0.002  0.00  0.00    -0.082 C 
ENDBRANCH   8  16
ENDBRANCH   1  11
BRANCH   6  17
ATOM     17  C   UNL     1      -6.275  -2.442  -0.118  0.00  0.00    +0.104 C 
ATOM     18  C   UNL     1      -6.787  -1.050  -0.494  0.00  0.00    +0.033 C 
BRANCH  17  19
ATOM     19  N   UNL     1      -7.390  -3.255   0.373  0.00  0.00    -0.292 N 
ATOM     20  C   UNL     1      -7.758  -3.183   1.667  0.00  0.00    +0.316 C 
ATOM     21  O   UNL     1      -7.165  -2.442   2.428  0.00  0.00    -0.251 OA
ATOM     22  N   UNL     1      -8.784  -3.931   2.119  0.00  0.00    -0.218 N 
ATOM     23  H   UNL     1      -7.863  -3.847  -0.233  0.00  0.00    +0.151 HD
ATOM     24  H   UNL     1      -9.049  -3.879   3.051  0.00  0.00    +0.174 HD
BRANCH  22  25
ATOM     25  N   UNL     1      -9.467  -4.785   1.244  0.00  0.00    -0.231 N 
ATOM     26  C   UNL     1     -10.492  -5.534   1.696  0.00  0.00    +0.255 C 
ATOM     27  O   UNL     1     -10.824  -5.469   2.860  0.00  0.00    -0.272 OA
ATOM     28  H   UNL     1      -9.202  -4.838   0.312  0.00  0.00    +0.173 HD
BRANCH  26  29
ATOM     29  C   UNL     1     -11.227  -6.453   0.753  0.00  0.00    +0.256 C 
BRANCH  29  30
ATOM     30  O   UNL     1     -12.264  -7.133   1.464  0.00  0.00    -0.371 OA
BRANCH  30  31
ATOM     31  C   UNL     1     -13.026  -8.034   0.658  0.00  0.00    +0.157 C 
ATOM     32  C   UNL     1     -14.101  -8.703   1.517  0.00  0.00    +0.034 C 
ENDBRANCH  30  31
ENDBRANCH  29  30
ENDBRANCH  26  29
ENDBRANCH  22  25
ENDBRANCH  17  19
ENDBRANCH   6  17
TORSDOF 8
