REMARK  Name = ZINC38598360
REMARK  7 active torsions:
REMARK  status: ('A' for Active; 'I' for Inactive)
REMARK    1  A    between atoms: C_1  and  C_2
REMARK    2  A    between atoms: C_4  and  C_8
REMARK    3  A    between atoms: C_14  and  C_17
REMARK    4  A    between atoms: C_21  and  O_25
REMARK    5  A    between atoms: C_22  and  O_23
REMARK    6  A    between atoms: O_23  and  C_24
REMARK    7  A    between atoms: O_25  and  C_26
REMARK                            x       y       z     vdW  Elec       q    Type
REMARK                         _______ _______ _______ _____ _____    ______ ____
ROOT
ATOM      1  C   UNL     1      -1.365  -2.835   3.122  0.00  0.00    +0.181 A 
ATOM      2  N   UNL     1      -1.169  -2.944   4.403  0.00  0.00    -0.129 NA
ATOM      3  N   UNL     1      -1.813  -3.959   4.863  0.00  0.00    -0.121 NA
ATOM      4  C   UNL     1      -2.434  -4.552   3.892  0.00  0.00    +0.211 A 
ATOM      5  N   UNL     1      -2.217  -3.853   2.732  0.00  0.00    -0.222 N 
ATOM      6  N   UNL     1      -2.834  -4.258   1.586  0.00  0.00    -0.263 N 
ATOM      7  C   UNL     1      -3.279  -5.677   1.580  0.00  0.00    +0.186 C 
ATOM      8  S   UNL     1      -3.472  -5.912   3.399  0.00  0.00    -0.056 S 
ATOM      9  H   UNL     1      -3.595  -3.640   1.347  0.00  0.00    +0.168 HD
ENDROOT
BRANCH   1  13
ATOM     10  C   UNL     1      -0.674   1.814   3.202  0.00  0.00    +0.067 C 
ATOM     11  C   UNL     1      -0.491   0.359   2.854  0.00  0.00    +0.059 C 
ATOM     12  C   UNL     1      -1.466  -0.447   2.429  0.00  0.00    +0.034 C 
ATOM     13  C   UNL     1      -0.772  -1.782   2.222  0.00  0.00    +0.222 C 
ATOM     14  N   UNL     1       0.622  -1.493   2.600  0.00  0.00    -0.172 NA
ATOM     15  N   UNL     1       0.684  -0.305   2.924  0.00  0.00    -0.159 NA
ENDBRANCH   1  13
BRANCH   7  16
ATOM     16  C   UNL     1      -4.587  -5.845   0.850  0.00  0.00    +0.030 A 
ATOM     17  C   UNL     1      -5.046  -4.844   0.015  0.00  0.00    +0.010 A 
ATOM     18  C   UNL     1      -6.245  -4.995  -0.656  0.00  0.00    +0.004 A 
ATOM     19  C   UNL     1      -6.991  -6.148  -0.494  0.00  0.00    +0.049 A 
ATOM     20  C   UNL     1      -6.537  -7.155   0.341  0.00  0.00    +0.162 A 
ATOM     21  C   UNL     1      -5.326  -7.006   1.012  0.00  0.00    +0.167 A 
BRANCH  21  22
ATOM     22  O   UNL     1      -4.873  -7.994   1.829  0.00  0.00    -0.491 OA
ATOM     23  C   UNL     1      -4.138  -9.056   1.217  0.00  0.00    +0.277 C 
ENDBRANCH  21  22
BRANCH  20  24
ATOM     24  O   UNL     1      -7.269  -8.290   0.501  0.00  0.00    -0.491 OA
ATOM     25  C   UNL     1      -8.498  -8.377  -0.223  0.00  0.00    +0.277 C 
ENDBRANCH  20  24
ENDBRANCH   7  16
TORSDOF 4
