REMARK  Name = ZINC49705622
REMARK  8 active torsions:
REMARK  status: ('A' for Active; 'I' for Inactive)
REMARK    1  A    between atoms: C_1  and  C_2
REMARK    2  A    between atoms: C_2  and  N_3
REMARK    3  A    between atoms: N_3  and  C_4
REMARK    4  A    between atoms: C_4  and  C_5
REMARK    5  A    between atoms: N_8  and  C_9
REMARK    6  A    between atoms: C_9  and  C_10
REMARK    7  A    between atoms: C_10  and  N_11
REMARK    8  A    between atoms: N_18  and  C_21
REMARK                            x       y       z     vdW  Elec       q    Type
REMARK                         _______ _______ _______ _____ _____    ______ ____
ROOT
ATOM      1  C   UNL     1       4.688  -0.334  -1.445  0.00  0.00    +0.145 C 
ENDROOT
BRANCH   1   2
ATOM      2  N   UNL     1       6.135  -0.558  -1.496  0.00  0.00    -0.291 N 
ATOM      3  C   UNL     1       7.117   0.381  -1.190  0.00  0.00    +0.070 A 
ATOM      4  C   UNL     1       7.072   1.704  -0.776  0.00  0.00    +0.028 A 
ATOM      5  C   UNL     1       8.247   2.392  -0.545  0.00  0.00    +0.002 A 
ATOM      6  C   UNL     1       9.469   1.767  -0.726  0.00  0.00    +0.002 A 
ATOM      7  C   UNL     1       9.524   0.450  -1.138  0.00  0.00    +0.028 A 
ATOM      8  C   UNL     1       8.349  -0.250  -1.371  0.00  0.00    +0.070 A 
ATOM      9  N   UNL     1       8.078  -1.552  -1.782  0.00  0.00    -0.295 N 
ATOM     10  C   UNL     1       6.742  -1.709  -1.843  0.00  0.00    +0.330 A 
ATOM     11  O   UNL     1       6.170  -2.733  -2.165  0.00  0.00    -0.246 OA
ATOM     12  C   UNL     1       9.076  -2.579  -2.091  0.00  0.00    +0.154 C 
ENDBRANCH   1   2
BRANCH   1  13
ATOM     13  C   UNL     1       4.168  -0.680  -0.049  0.00  0.00    +0.127 C 
BRANCH  13  17
ATOM     14  N   UNL     1       0.711  -0.489   1.189  0.00  0.00    -0.286 N 
ATOM     15  C   UNL     1       2.042  -0.696   1.142  0.00  0.00    +0.302 C 
ATOM     16  O   UNL     1       2.630  -1.099   2.127  0.00  0.00    -0.253 OA
ATOM     17  N   UNL     1       2.721  -0.456   0.003  0.00  0.00    -0.298 N 
ATOM     18  H   UNL     1       2.252  -0.134  -0.783  0.00  0.00    +0.150 HD
BRANCH  14  20
ATOM     19  C   UNL     1      -0.019   1.526   0.010  0.00  0.00    +0.024 C 
ATOM     20  C   UNL     1       0.002  -0.004   0.002  0.00  0.00    +0.106 C 
ENDBRANCH  14  20
BRANCH  14  21
ATOM     21  C   UNL     1      -0.028  -0.750   2.427  0.00  0.00    +0.106 C 
ATOM     22  C   UNL     1      -0.511  -2.202   2.437  0.00  0.00    +0.024 C 
ENDBRANCH  14  21
ENDBRANCH  13  17
ENDBRANCH   1  13
TORSDOF 5
