REMARK  Name = ZINC03610672
REMARK  6 active torsions:
REMARK  status: ('A' for Active; 'I' for Inactive)
REMARK    1  A    between atoms: C_1  and  C_2
REMARK    2  A    between atoms: C_2  and  C_22
REMARK    3  A    between atoms: N_5  and  C_9
REMARK    4  A    between atoms: C_9  and  C_10
REMARK    5  A    between atoms: N_12  and  C_13
REMARK    6  A    between atoms: C_16  and  C_19
REMARK                            x       y       z     vdW  Elec       q    Type
REMARK                         _______ _______ _______ _____ _____    ______ ____
ROOT
ATOM      1  C   UNL     1      -1.663   1.124  -4.285  0.00  0.00    +0.047 C 
ATOM      2  C   UNL     1      -1.914   1.661  -2.874  0.00  0.00    +0.136 C 
ATOM      3  C   UNL     1      -1.440   0.666  -1.834  0.00  0.00    +0.251 C 
ATOM      4  O   UNL     1      -1.840  -0.466  -1.667  0.00  0.00    -0.272 OA
ATOM      5  N   UNL     1      -0.482   1.303  -1.131  0.00  0.00    -0.215 N 
ATOM      6  C   UNL     1      -0.282   2.546  -1.583  0.00  0.00    +0.310 C 
ATOM      7  O   UNL     1       0.534   3.313  -1.112  0.00  0.00    -0.252 OA
ATOM      8  N   UNL     1      -1.086   2.852  -2.618  0.00  0.00    -0.281 N 
ATOM      9  H   UNL     1      -1.114   3.693  -3.101  0.00  0.00    +0.152 HD
ENDROOT
BRANCH   2  10
ATOM     10  C   UNL     1      -3.375   1.980  -2.683  0.00  0.00    -0.008 A 
ATOM     11  C   UNL     1      -3.762   3.244  -2.358  0.00  0.00    +0.007 A 
ATOM     12  C   UNL     1      -5.108   3.559  -2.183  0.00  0.00    +0.001 A 
ATOM     13  C   UNL     1      -6.074   2.609  -2.319  0.00  0.00    +0.008 A 
ATOM     14  C   UNL     1      -5.712   1.292  -2.647  0.00  0.00    -0.018 A 
ATOM     15  C   UNL     1      -4.343   0.973  -2.831  0.00  0.00    -0.012 A 
ATOM     16  C   UNL     1      -3.981  -0.345  -3.159  0.00  0.00    +0.009 A 
ATOM     17  C   UNL     1      -4.947  -1.295  -3.295  0.00  0.00    +0.001 A 
ATOM     18  C   UNL     1      -6.292  -0.981  -3.113  0.00  0.00    +0.001 A 
ATOM     19  C   UNL     1      -6.680   0.284  -2.795  0.00  0.00    +0.008 A 
ENDBRANCH   2  10
BRANCH   5  20
ATOM     20  C   UNL     1       0.254   0.705  -0.014  0.00  0.00    +0.214 C 
BRANCH  20  21
ATOM     21  C   UNL     1      -0.474   0.987   1.275  0.00  0.00    +0.235 C 
ATOM     22  O   UNL     1      -1.506   1.624   1.262  0.00  0.00    -0.274 OA
ATOM     23  N   UNL     1       0.022   0.530   2.442  0.00  0.00    -0.284 N 
ATOM     24  H   UNL     1       0.877   0.074   2.460  0.00  0.00    +0.155 HD
BRANCH  23  25
ATOM     25  C   UNL     1      -0.696   0.715   3.624  0.00  0.00    +0.033 A 
ATOM     26  C   UNL     1      -1.432   1.880   3.814  0.00  0.00    +0.024 A 
ATOM     27  C   UNL     1      -2.145   2.063   4.978  0.00  0.00    +0.015 A 
ATOM     28  C   UNL     1      -2.120   1.081   5.972  0.00  0.00    +0.037 A 
ATOM     29  C   UNL     1      -1.375  -0.086   5.780  0.00  0.00    +0.015 A 
ATOM     30  C   UNL     1      -0.669  -0.265   4.612  0.00  0.00    +0.024 A 
BRANCH  28  31
ATOM     31  C   UNL     1      -2.879   1.276   7.223  0.00  0.00    +0.242 C 
ATOM     32  O   UNL     1      -2.857   0.421   8.087  0.00  0.00    -0.270 OA
ATOM     33  N   UNL     1      -3.597   2.402   7.407  0.00  0.00    -0.325 N 
ATOM     34  H   UNL     1      -3.615   3.084   6.718  0.00  0.00    +0.145 HD
ATOM     35  H   UNL     1      -4.096   2.530   8.229  0.00  0.00    +0.145 HD
ENDBRANCH  28  31
ENDBRANCH  23  25
ENDBRANCH  20  21
ENDBRANCH   5  20
TORSDOF 5
