REMARK  Name = ZINC09009096
REMARK  5 active torsions:
REMARK  status: ('A' for Active; 'I' for Inactive)
REMARK    1  A    between atoms: C_1  and  C_2
REMARK    2  A    between atoms: C_2  and  C_3
REMARK    3  A    between atoms: C_2  and  C_4
REMARK    4  A    between atoms: C_11  and  N_26
REMARK    5  A    between atoms: C_12  and  C_24
REMARK                            x       y       z     vdW  Elec       q    Type
REMARK                         _______ _______ _______ _____ _____    ______ ____
ROOT
ATOM      1  C   UNL     1      -1.412  -0.526   0.013  0.00  0.00    +0.074 A 
ATOM      2  C   UNL     1      -1.989  -1.334  -0.957  0.00  0.00    +0.062 A 
ATOM      3  C   UNL     1      -3.281  -1.589  -0.581  0.00  0.00    +0.223 A 
ATOM      4  N   UNL     1      -3.496  -0.957   0.583  0.00  0.00    -0.246 N 
ATOM      5  H   UNL     1      -4.324  -0.958   1.089  0.00  0.00    +0.192 HD
ATOM      6  N   UNL     1      -2.309  -0.299   0.943  0.00  0.00    -0.175 NA
ATOM      7  O   UNL     1      -4.119  -2.356  -1.322  0.00  0.00    -0.423 OA
ATOM      8  C   UNL     1      -3.586  -3.094  -2.316  0.00  0.00    +0.201 C 
ATOM      9  C   UNL     1      -2.326  -2.928  -2.784  0.00  0.00    +0.110 C 
ATOM     10  C   UNL     1      -1.398  -1.886  -2.223  0.00  0.00    +0.145 C 
ATOM     11  C   UNL     1      -1.136  -0.802  -3.218  0.00  0.00    -0.000 A 
ATOM     12  C   UNL     1      -1.981   0.088  -3.845  0.00  0.00    +0.027 A 
ATOM     13  C   UNL     1      -1.403   0.988  -4.735  0.00  0.00    +0.041 A 
ATOM     14  C   UNL     1      -0.043   0.986  -4.977  0.00  0.00    +0.022 A 
ATOM     15  C   UNL     1       0.812   0.093  -4.350  0.00  0.00    +0.025 A 
ATOM     16  C   UNL     1       0.244  -0.815  -3.456  0.00  0.00    +0.038 A 
ATOM     17  N   UNL     1       0.852  -1.805  -2.704  0.00  0.00    -0.284 N 
ATOM     18  C   UNL     1      -0.037  -2.486  -1.950  0.00  0.00    +0.238 C 
ATOM     19  O   UNL     1       0.210  -3.404  -1.196  0.00  0.00    -0.274 OA
ATOM     20 CL   UNL     1      -2.411   2.136  -5.559  0.00  0.00    -0.084 Cl
ATOM     21  H   UNL     1       1.805  -1.988  -2.716  0.00  0.00    +0.155 HD
ENDROOT
BRANCH   1  23
ATOM     22  C   UNL     1      -0.019   1.526   0.010  0.00  0.00    +0.014 C 
ATOM     23  C   UNL     1       0.002  -0.004   0.002  0.00  0.00    +0.034 C 
ATOM     24  C   UNL     1       0.742  -0.511   1.242  0.00  0.00    +0.014 C 
ENDBRANCH   1  23
BRANCH   8  25
ATOM     25  N   UNL     1      -4.365  -4.070  -2.887  0.00  0.00    -0.328 N 
ATOM     26  H   UNL     1      -5.272  -4.212  -2.573  0.00  0.00    +0.145 HD
ATOM     27  H   UNL     1      -4.009  -4.617  -3.604  0.00  0.00    +0.145 HD
ENDBRANCH   8  25
BRANCH   9  28
ATOM     28  C   UNL     1      -1.863  -3.772  -3.844  0.00  0.00    +0.102 C 
ATOM     29  N   UNL     1      -1.495  -4.441  -4.684  0.00  0.00    -0.191 NA
ENDBRANCH   9  28
TORSDOF 3
