REMARK  Name = ZINC09949165
REMARK  5 active torsions:
REMARK  status: ('A' for Active; 'I' for Inactive)
REMARK    1  A    between atoms: C_1  and  C_2
REMARK    2  A    between atoms: C_10  and  C_13
REMARK    3  A    between atoms: C_13  and  N_14
REMARK    4  A    between atoms: C_17  and  C_21
REMARK    5  A    between atoms: C_17  and  C_22
REMARK                            x       y       z     vdW  Elec       q    Type
REMARK                         _______ _______ _______ _____ _____    ______ ____
ROOT
ATOM      1  N   UNL     1       4.003  -1.036  -1.421  0.00  0.00    -0.218 N 
ATOM      2  C   UNL     1       3.637  -2.118  -2.136  0.00  0.00    +0.251 C 
ATOM      3  O   UNL     1       2.938  -3.037  -1.767  0.00  0.00    -0.272 OA
ATOM      4  C   UNL     1       4.280  -1.947  -3.498  0.00  0.00    +0.135 C 
ATOM      5  N   UNL     1       5.008  -0.671  -3.379  0.00  0.00    -0.281 N 
ATOM      6  C   UNL     1       4.785  -0.216  -2.133  0.00  0.00    +0.310 C 
ATOM      7  O   UNL     1       5.244   0.823  -1.701  0.00  0.00    -0.252 OA
ATOM      8  C   UNL     1       5.251  -3.096  -3.779  0.00  0.00    +0.047 C 
ATOM      9  H   UNL     1       5.543  -0.243  -4.066  0.00  0.00    +0.152 HD
ENDROOT
BRANCH   4  10
ATOM     10  C   UNL     1       3.235  -1.862  -4.580  0.00  0.00    -0.012 A 
ATOM     11  C   UNL     1       2.065  -2.591  -4.467  0.00  0.00    +0.010 A 
ATOM     12  C   UNL     1       1.103  -2.516  -5.456  0.00  0.00    +0.050 A 
ATOM     13  C   UNL     1       1.308  -1.709  -6.564  0.00  0.00    +0.166 A 
ATOM     14  C   UNL     1       2.486  -0.975  -6.677  0.00  0.00    +0.167 A 
ATOM     15  C   UNL     1       3.444  -1.051  -5.679  0.00  0.00    +0.055 A 
ATOM     16  O   UNL     1       2.449  -0.267  -7.844  0.00  0.00    -0.453 OA
ATOM     17  C   UNL     1       1.421  -0.889  -8.638  0.00  0.00    +0.466 C 
ATOM     18  O   UNL     1       0.532  -1.462  -7.660  0.00  0.00    -0.453 OA
ENDBRANCH   4  10
BRANCH   1  19
ATOM     19  C   UNL     1       3.598  -0.789  -0.035  0.00  0.00    +0.174 C 
BRANCH  19  29
ATOM     20  C   UNL     1       1.234   3.619   0.009  0.00  0.00    +0.046 C 
ATOM     21  C   UNL     1       1.204   2.112   0.002  0.00  0.00    -0.021 A 
ATOM     22  C   UNL     1      -0.017   1.413   0.010  0.00  0.00    +0.005 A 
ATOM     23  C   UNL     1      -1.247   2.090   0.031  0.00  0.00    +0.010 A 
ATOM     24  C   UNL     1      -2.407   1.378   0.032  0.00  0.00    +0.001 A 
ATOM     25  C   UNL     1      -2.391  -0.016   0.025  0.00  0.00    +0.002 A 
ATOM     26  C   UNL     1      -1.217  -0.704   0.010  0.00  0.00    +0.028 A 
ATOM     27  C   UNL     1       0.002  -0.004   0.002  0.00  0.00    +0.072 A 
ATOM     28  N   UNL     1       1.170  -0.654  -0.012  0.00  0.00    -0.249 NA
ATOM     29  C   UNL     1       2.310  -0.007  -0.019  0.00  0.00    +0.078 A 
ATOM     30  C   UNL     1       2.362   1.387  -0.013  0.00  0.00    +0.067 A 
ATOM     31 CL   UNL     1       3.897   2.199  -0.023  0.00  0.00    -0.081 Cl
ENDBRANCH  19  29
ENDBRANCH   1  19
TORSDOF 3
