REMARK  Name = ZINC36322370
REMARK  5 active torsions:
REMARK  status: ('A' for Active; 'I' for Inactive)
REMARK    1  A    between atoms: C_1  and  C_2
REMARK    2  A    between atoms: C_2  and  C_3
REMARK    3  A    between atoms: N_9  and  S_10
REMARK    4  A    between atoms: S_10  and  C_13
REMARK    5  A    between atoms: C_18  and  N_19
REMARK                            x       y       z     vdW  Elec       q    Type
REMARK                         _______ _______ _______ _____ _____    ______ ____
ROOT
ATOM      1  S   UNL     1      -1.407   0.664   2.375  0.00  0.00    +0.063 S 
ATOM      2  O   UNL     1      -1.812   0.596   1.014  0.00  0.00    -0.153 OA
ATOM      3  O   UNL     1      -2.297   0.392   3.449  0.00  0.00    -0.153 OA
ENDROOT
BRANCH   1   4
ATOM      4  C   UNL     1      -0.786   2.292   2.635  0.00  0.00    +0.126 A 
ATOM      5  C   UNL     1      -0.785   3.205   1.598  0.00  0.00    +0.032 A 
ATOM      6  C   UNL     1      -0.298   4.483   1.801  0.00  0.00    +0.022 A 
ATOM      7  C   UNL     1       0.190   4.852   3.043  0.00  0.00    +0.043 A 
ATOM      8  C   UNL     1       0.192   3.943   4.084  0.00  0.00    +0.044 A 
ATOM      9  C   UNL     1      -0.302   2.660   3.884  0.00  0.00    +0.053 A 
ATOM     10 CL   UNL     1       0.801   6.458   3.293  0.00  0.00    -0.083 Cl
BRANCH   9  11
ATOM     11  N   UNL     1      -0.308   1.741   4.935  0.00  0.00    -0.356 N 
ATOM     12  H   UNL     1      -0.586   0.825   4.777  0.00  0.00    +0.142 HD
ATOM     13  H   UNL     1      -0.034   2.018   5.824  0.00  0.00    +0.142 HD
ENDBRANCH   9  11
ENDBRANCH   1   4
BRANCH   1  19
ATOM     14  C   UNL     1       0.860  -0.541   1.467  0.00  0.00    +0.105 C 
ATOM     15  C   UNL     1       1.026  -2.039   1.183  0.00  0.00    +0.180 C 
ATOM     16  O   UNL     1       1.300  -2.723   2.408  0.00  0.00    -0.377 OA
ATOM     17  C   UNL     1       0.248  -2.639   3.373  0.00  0.00    +0.177 C 
ATOM     18  C   UNL     1       0.043  -1.172   3.769  0.00  0.00    +0.138 C 
ATOM     19  N   UNL     1      -0.132  -0.379   2.542  0.00  0.00    -0.169 NA
BRANCH  14  21
ATOM     20  C   UNL     1       1.472   0.136  -0.859  0.00  0.00    +0.005 C 
ATOM     21  C   UNL     1       0.372   0.172   0.204  0.00  0.00    +0.019 C 
ENDBRANCH  14  21
ENDBRANCH   1  19
TORSDOF 4
