REMARK  Name = ZINC44493542
REMARK  8 active torsions:
REMARK  status: ('A' for Active; 'I' for Inactive)
REMARK    1  A    between atoms: C_1  and  C_2
REMARK    2  A    between atoms: C_2  and  C_3
REMARK    3  A    between atoms: C_2  and  N_4
REMARK    4  A    between atoms: N_4  and  S_5
REMARK    5  A    between atoms: S_5  and  C_8
REMARK    6  A    between atoms: C_13  and  N_14
REMARK    7  A    between atoms: N_14  and  C_15
REMARK    8  A    between atoms: C_15  and  C_16
REMARK                            x       y       z     vdW  Elec       q    Type
REMARK                         _______ _______ _______ _____ _____    ______ ____
ROOT
ATOM      1  C   UNL     1      -1.301  -2.259  -1.901  0.00  0.00    +0.126 A 
ATOM      2  C   UNL     1      -1.945  -3.459  -2.132  0.00  0.00    +0.030 A 
ATOM      3  C   UNL     1      -1.230  -4.551  -2.587  0.00  0.00    +0.002 A 
ATOM      4  C   UNL     1       0.131  -4.447  -2.813  0.00  0.00    +0.002 A 
ATOM      5  C   UNL     1       0.780  -3.249  -2.584  0.00  0.00    +0.025 A 
ATOM      6  C   UNL     1       0.064  -2.148  -2.132  0.00  0.00    +0.054 A 
ENDROOT
BRANCH   1   7
ATOM      7  S   UNL     1      -2.213  -0.867  -1.320  0.00  0.00    +0.060 S 
ATOM      8  O   UNL     1      -1.498  -0.349  -0.206  0.00  0.00    -0.153 OA
ATOM      9  O   UNL     1      -3.570  -1.279  -1.230  0.00  0.00    -0.153 OA
BRANCH   7  10
ATOM     10  N   UNL     1      -2.148   0.290  -2.503  0.00  0.00    -0.187 NA
ATOM     11  H   UNL     1      -1.695   1.131  -2.334  0.00  0.00    +0.148 HD
BRANCH  10  13
ATOM     12  C   UNL     1      -4.179   0.647  -3.818  0.00  0.00    +0.025 C 
ATOM     13  C   UNL     1      -2.773   0.043  -3.804  0.00  0.00    +0.070 C 
ATOM     14  C   UNL     1      -1.930   0.688  -4.906  0.00  0.00    +0.025 C 
ENDBRANCH  10  13
ENDBRANCH   7  10
ENDBRANCH   1   7
BRANCH   6  15
ATOM     15  N   UNL     1       0.716  -0.934  -1.904  0.00  0.00    -0.344 N 
ATOM     16  H   UNL     1       0.204  -0.145  -1.666  0.00  0.00    +0.146 HD
BRANCH  15  17
ATOM     17  C   UNL     1       2.174  -0.852  -2.025  0.00  0.00    +0.086 C 
BRANCH  17  18
ATOM     18  C   UNL     1       2.631   0.577  -1.728  0.00  0.00    -0.055 C 
ATOM     19  C   UNL     1       4.136   0.693  -1.973  0.00  0.00    -0.014 C 
ATOM     20  C   UNL     1       4.589   2.124  -1.674  0.00  0.00    -0.003 C 
ATOM     21  C   UNL     1       3.783   3.096  -2.541  0.00  0.00    -0.019 C 
ATOM     22  C   UNL     1       2.291   2.892  -2.274  0.00  0.00    -0.082 C 
ATOM     23  N   UNL     1       1.916   1.512  -2.605  0.00  0.00    +0.382 N 
ATOM     24  H   UNL     1       2.156   1.320  -3.566  0.00  0.00    -0.085 HD
ATOM     25  H   UNL     1       0.921   1.395  -2.479  0.00  0.00    -0.085 HD
ENDBRANCH  17  18
ENDBRANCH  15  17
ENDBRANCH   6  15
TORSDOF 6
