REMARK  Name = ZINC36308229
REMARK  14 active torsions:
REMARK  status: ('A' for Active; 'I' for Inactive)
REMARK    1  A    between atoms: C_1  and  C_2
REMARK    2  A    between atoms: C_2  and  C_3
REMARK    3  A    between atoms: C_2  and  C_4
REMARK    4  A    between atoms: C_4  and  N_5
REMARK    5  A    between atoms: C_6  and  N_35
REMARK    6  A    between atoms: C_7  and  N_14
REMARK    7  A    between atoms: N_14  and  C_15
REMARK    8  A    between atoms: C_15  and  C_16
REMARK    9  A    between atoms: C_16  and  C_17
REMARK   10  A    between atoms: C_16  and  C_18
REMARK   11  A    between atoms: C_19  and  C_21
REMARK   12  A    between atoms: C_21  and  N_22
REMARK   13  A    between atoms: N_25  and  C_28
REMARK   14  A    between atoms: C_31  and  O_34
REMARK                            x       y       z     vdW  Elec       q    Type
REMARK                         _______ _______ _______ _____ _____    ______ ____
ROOT
ATOM      1  N   UNL     1      -1.360  -4.679  -2.784  0.00  0.00    -0.263 N 
ATOM      2  C   UNL     1      -1.233  -3.990  -3.937  0.00  0.00    +0.234 C 
ATOM      3  O   UNL     1      -1.287  -2.777  -3.927  0.00  0.00    -0.274 OA
ENDROOT
BRANCH   1   6
ATOM      4  N   UNL     1      -0.614  -3.491   0.612  0.00  0.00    -0.280 N 
ATOM      5  C   UNL     1      -0.498  -4.177  -0.575  0.00  0.00    +0.127 A 
ATOM      6  C   UNL     1      -1.451  -3.991  -1.556  0.00  0.00    +0.140 A 
ATOM      7  C   UNL     1      -2.514  -3.102  -1.310  0.00  0.00    +0.277 A 
ATOM      8  O   UNL     1      -3.370  -2.919  -2.160  0.00  0.00    -0.266 OA
ATOM      9  N   UNL     1      -2.581  -2.455  -0.131  0.00  0.00    -0.273 N 
ATOM     10  H   UNL     1      -3.313  -1.842   0.040  0.00  0.00    +0.173 HD
ATOM     11  C   UNL     1      -1.646  -2.653   0.816  0.00  0.00    +0.331 A 
ATOM     12  O   UNL     1      -1.733  -2.059   1.874  0.00  0.00    -0.246 OA
BRANCH   5  13
ATOM     13  N   UNL     1       0.554  -5.037  -0.782  0.00  0.00    -0.343 N 
ATOM     14  H   UNL     1       1.256  -5.112  -0.117  0.00  0.00    +0.144 HD
ATOM     15  H   UNL     1       0.594  -5.568  -1.592  0.00  0.00    +0.144 HD
ENDBRANCH   5  13
BRANCH   4  16
ATOM     16  C   UNL     1       0.391  -3.678   1.662  0.00  0.00    +0.131 C 
BRANCH  16  18
ATOM     17  C   UNL     1       1.071  -5.109   3.594  0.00  0.00    +0.009 C 
ATOM     18  C   UNL     1      -0.035  -4.831   2.574  0.00  0.00    +0.003 C 
ATOM     19  C   UNL     1      -1.322  -4.452   3.308  0.00  0.00    +0.009 C 
ENDBRANCH  16  18
ENDBRANCH   4  16
ENDBRANCH   1   6
BRANCH   1  20
ATOM     20  C   UNL     1      -1.404  -6.144  -2.808  0.00  0.00    +0.117 C 
BRANCH  20  21
ATOM     21  C   UNL     1      -2.835  -6.607  -3.085  0.00  0.00    +0.001 C 
ATOM     22  C   UNL     1      -2.854  -8.126  -3.263  0.00  0.00    +0.009 C 
ATOM     23  C   UNL     1      -3.734  -6.219  -1.909  0.00  0.00    +0.009 C 
ENDBRANCH  20  21
ENDBRANCH   1  20
BRANCH   2  24
ATOM     24  C   UNL     1      -1.025  -4.724  -5.236  0.00  0.00    +0.181 C 
BRANCH  24  25
ATOM     25  N   UNL     1      -0.917  -3.756  -6.335  0.00  0.00    -0.291 NA
ATOM     26  C   UNL     1       0.290  -2.931  -6.194  0.00  0.00    +0.104 C 
ATOM     27  C   UNL     1       0.273  -1.820  -7.249  0.00  0.00    +0.120 C 
ATOM     28  N   UNL     1       0.091  -2.436  -8.572  0.00  0.00    -0.327 N 
ATOM     29  C   UNL     1      -1.020  -3.383  -8.753  0.00  0.00    +0.120 C 
ATOM     30  C   UNL     1      -0.951  -4.432  -7.638  0.00  0.00    +0.104 C 
BRANCH  28  31
ATOM     31  C   UNL     1       0.953  -2.129  -9.632  0.00  0.00    +0.030 A 
ATOM     32  C   UNL     1       0.695  -2.624 -10.903  0.00  0.00    +0.027 A 
ATOM     33  C   UNL     1       1.545  -2.321 -11.948  0.00  0.00    +0.047 A 
ATOM     34  C   UNL     1       2.657  -1.521 -11.728  0.00  0.00    +0.117 A 
ATOM     35  C   UNL     1       2.916  -1.026 -10.458  0.00  0.00    +0.047 A 
ATOM     36  C   UNL     1       2.063  -1.324  -9.413  0.00  0.00    +0.027 A 
BRANCH  34  37
ATOM     37  O   UNL     1       3.494  -1.222 -12.757  0.00  0.00    -0.507 OA
ATOM     38  H   UNL     1       3.255  -0.417 -13.237  0.00  0.00    +0.292 HD
ENDBRANCH  34  37
ENDBRANCH  28  31
ENDBRANCH  24  25
ENDBRANCH   2  24
TORSDOF 10
