REMARK  Name = ZINC26109371
REMARK  10 active torsions:
REMARK  status: ('A' for Active; 'I' for Inactive)
REMARK    1  A    between atoms: C_1  and  C_2
REMARK    2  A    between atoms: C_2  and  C_4
REMARK    3  A    between atoms: C_2  and  S_20
REMARK    4  A    between atoms: N_6  and  C_7
REMARK    5  A    between atoms: C_7  and  C_8
REMARK    6  A    between atoms: N_10  and  C_11
REMARK    7  A    between atoms: S_20  and  C_21
REMARK    8  A    between atoms: C_24  and  S_26
REMARK    9  A    between atoms: S_26  and  C_27
REMARK   10  A    between atoms: C_27  and  C_28
REMARK                            x       y       z     vdW  Elec       q    Type
REMARK                         _______ _______ _______ _____ _____    ______ ____
ROOT
ATOM      1  C   UNL     1      -0.772   3.084   1.305  0.00  0.00    +0.227 C 
ATOM      2  O   UNL     1       0.083   3.699   1.907  0.00  0.00    -0.275 OA
ATOM      3  N   UNL     1      -1.737   3.749   0.639  0.00  0.00    -0.306 N 
ATOM      4  H   UNL     1      -2.512   3.192   0.093  0.00  0.00    +0.149 HD
ENDROOT
BRANCH   1   6
ATOM      5  C   UNL     1      -0.032   1.078   0.049  0.00  0.00    +0.029 C 
ATOM      6  C   UNL     1      -0.755   1.577   1.301  0.00  0.00    +0.136 C 
BRANCH   6   7
ATOM      7  S   UNL     1       0.110   0.979   2.779  0.00  0.00    -0.084 S 
BRANCH   7   8
ATOM      8  C   UNL     1      -0.084  -0.771   2.706  0.00  0.00    +0.160 A 
ATOM      9  N   UNL     1      -0.710  -1.506   1.807  0.00  0.00    -0.134 NA
ATOM     10  N   UNL     1      -0.736  -2.875   1.941  0.00  0.00    -0.134 NA
ATOM     11  C   UNL     1      -0.144  -3.446   2.973  0.00  0.00    +0.160 A 
ATOM     12  S   UNL     1       0.509  -2.023   3.834  0.00  0.00    -0.033 S 
BRANCH  11  13
ATOM     13  S   UNL     1      -0.029  -5.153   3.391  0.00  0.00    -0.088 S 
BRANCH  13  14
ATOM     14  C   UNL     1      -0.927  -5.993   2.057  0.00  0.00    +0.171 C 
BRANCH  14  15
ATOM     15  C   UNL     1      -0.905  -7.481   2.295  0.00  0.00    +0.221 C 
ATOM     16  O   UNL     1      -0.339  -7.931   3.269  0.00  0.00    -0.275 OA
ATOM     17  N   UNL     1      -1.514  -8.312   1.426  0.00  0.00    -0.329 N 
ATOM     18  H   UNL     1      -1.498  -9.398   1.600  0.00  0.00    +0.145 HD
ATOM     19  H   UNL     1      -2.027  -7.904   0.543  0.00  0.00    +0.145 HD
ENDBRANCH  14  15
ENDBRANCH  13  14
ENDBRANCH  11  13
ENDBRANCH   7   8
ENDBRANCH   6   7
ENDBRANCH   1   6
BRANCH   3  20
ATOM     20  C   UNL     1      -1.752   5.214   0.642  0.00  0.00    +0.200 C 
BRANCH  20  21
ATOM     21  C   UNL     1      -2.924   5.706  -0.169  0.00  0.00    +0.234 C 
ATOM     22  O   UNL     1      -3.671   4.911  -0.698  0.00  0.00    -0.274 OA
ATOM     23  N   UNL     1      -3.140   7.029  -0.307  0.00  0.00    -0.282 N 
ATOM     24  H   UNL     1      -2.506   7.749   0.232  0.00  0.00    +0.155 HD
BRANCH  23  25
ATOM     25  C   UNL     1      -4.172   7.488  -1.136  0.00  0.00    +0.072 A 
ATOM     26  C   UNL     1      -5.353   6.766  -1.240  0.00  0.00    +0.029 A 
ATOM     27  C   UNL     1      -6.372   7.221  -2.055  0.00  0.00    +0.043 A 
ATOM     28  C   UNL     1      -6.214   8.391  -2.776  0.00  0.00    +0.161 A 
ATOM     29  C   UNL     1      -5.034   9.113  -2.680  0.00  0.00    +0.195 A 
ATOM     30  C   UNL     1      -4.013   8.663  -1.861  0.00  0.00    +0.182 A 
ATOM     31  F   UNL     1      -2.862   9.366  -1.765  0.00  0.00    -0.200 F 
ATOM     32  F   UNL     1      -4.881  10.255  -3.385  0.00  0.00    -0.199 F 
ATOM     33  F   UNL     1      -7.210   8.831  -3.576  0.00  0.00    -0.202 F 
ENDBRANCH  23  25
ENDBRANCH  20  21
ENDBRANCH   3  20
TORSDOF 9
