REMARK  Name = ZINC29900360
REMARK  9 active torsions:
REMARK  status: ('A' for Active; 'I' for Inactive)
REMARK    1  A    between atoms: C_1  and  C_2
REMARK    2  A    between atoms: C_5  and  C_30
REMARK    3  A    between atoms: C_6  and  N_8
REMARK    4  A    between atoms: C_9  and  C_11
REMARK    5  A    between atoms: C_11  and  C_13
REMARK    6  A    between atoms: C_11  and  O_19
REMARK    7  A    between atoms: O_19  and  C_20
REMARK    8  A    between atoms: C_20  and  C_22
REMARK    9  A    between atoms: C_27  and  N_28
REMARK                            x       y       z     vdW  Elec       q    Type
REMARK                         _______ _______ _______ _____ _____    ______ ____
ROOT
ATOM      1  C   UNL     1       0.157   0.106  -4.872  0.00  0.00    +0.292 C 
ENDROOT
BRANCH   1   2
ATOM      2  C   UNL     1      -1.130   0.858  -5.090  0.00  0.00    +0.002 A 
ATOM      3  C   UNL     1      -2.239   0.201  -5.590  0.00  0.00    +0.008 A 
ATOM      4  C   UNL     1      -3.421   0.890  -5.786  0.00  0.00    +0.000 A 
ATOM      5  C   UNL     1      -3.492   2.238  -5.490  0.00  0.00    +0.000 A 
ATOM      6  C   UNL     1      -2.382   2.897  -4.995  0.00  0.00    +0.000 A 
ATOM      7  C   UNL     1      -1.201   2.207  -4.795  0.00  0.00    +0.008 A 
ENDBRANCH   1   2
BRANCH   1   9
ATOM      8  N   UNL     1      -0.013   0.005  -2.406  0.00  0.00    -0.282 N 
ATOM      9  C   UNL     1       0.079  -0.659  -3.576  0.00  0.00    +0.263 C 
ATOM     10  O   UNL     1       0.098  -1.871  -3.585  0.00  0.00    -0.271 OA
ATOM     11  H   UNL     1      -0.122   1.100  -2.402  0.00  0.00    +0.155 HD
BRANCH   8  17
ATOM     12  C   UNL     1       1.376  -3.973   0.127  0.00  0.00    +0.044 C 
ATOM     13  C   UNL     1       0.699  -2.628   0.059  0.00  0.00    -0.049 A 
ATOM     14  C   UNL     1       0.115  -2.091   1.192  0.00  0.00    +0.004 A 
ATOM     15  C   UNL     1      -0.508  -0.858   1.133  0.00  0.00    +0.005 A 
ATOM     16  C   UNL     1      -0.549  -0.159  -0.057  0.00  0.00    -0.029 A 
ATOM     17  C   UNL     1       0.032  -0.698  -1.197  0.00  0.00    +0.037 A 
ATOM     18  C   UNL     1       0.662  -1.934  -1.134  0.00  0.00    +0.027 A 
ATOM     19  C   UNL     1      -1.229   1.185  -0.120  0.00  0.00    +0.045 C 
ENDBRANCH   8  17
ENDBRANCH   1   9
BRANCH   1  20
ATOM     20  O   UNL     1       0.367  -0.822  -5.969  0.00  0.00    -0.443 OA
BRANCH  20  21
ATOM     21  C   UNL     1       1.054  -0.364  -7.035  0.00  0.00    +0.342 C 
ATOM     22  O   UNL     1       1.466   0.779  -7.047  0.00  0.00    -0.245 OA
BRANCH  21  23
ATOM     23  C   UNL     1       1.305  -1.249  -8.184  0.00  0.00    +0.080 A 
ATOM     24  C   UNL     1       0.742  -2.529  -8.222  0.00  0.00    +0.019 A 
ATOM     25  C   UNL     1       0.979  -3.352  -9.299  0.00  0.00    +0.039 A 
ATOM     26  C   UNL     1       1.776  -2.918 -10.351  0.00  0.00    +0.125 A 
ATOM     27  C   UNL     1       2.339  -1.656 -10.328  0.00  0.00    +0.061 A 
ATOM     28  C   UNL     1       2.106  -0.811  -9.251  0.00  0.00    +0.041 A 
ATOM     29  F   UNL     1       2.002  -3.735 -11.403  0.00  0.00    -0.205 F 
BRANCH  28  30
ATOM     30  N   UNL     1       2.666   0.460  -9.227  0.00  0.00    -0.357 N 
ATOM     31  H   UNL     1       3.293   0.800 -10.064  0.00  0.00    +0.142 HD
ATOM     32  H   UNL     1       2.482   1.126  -8.371  0.00  0.00    +0.142 HD
ENDBRANCH  28  30
ENDBRANCH  21  23
ENDBRANCH  20  21
ENDBRANCH   1  20
TORSDOF 7
