REMARK  Name = ZINC52860911
REMARK  5 active torsions:
REMARK  status: ('A' for Active; 'I' for Inactive)
REMARK    1  A    between atoms: C_4  and  S_10
REMARK    2  A    between atoms: C_5  and  N_7
REMARK    3  A    between atoms: S_10  and  C_11
REMARK    4  A    between atoms: C_16  and  C_17
REMARK    5  A    between atoms: N_18  and  O_19
REMARK                            x       y       z     vdW  Elec       q    Type
REMARK                         _______ _______ _______ _____ _____    ______ ____
ROOT
ATOM      1  C   UNL     1       5.576   0.693   0.108  0.00  0.00    +0.023 A 
ATOM      2  C   UNL     1       5.453   2.076   0.051  0.00  0.00    +0.017 A 
ATOM      3  C   UNL     1       6.580   2.866  -0.054  0.00  0.00    +0.021 A 
ATOM      4  C   UNL     1       7.839   2.289  -0.103  0.00  0.00    +0.042 A 
ATOM      5  C   UNL     1       7.979   0.917  -0.047  0.00  0.00    +0.032 A 
ATOM      6  C   UNL     1       6.849   0.107   0.065  0.00  0.00    +0.033 A 
ATOM      7 CL   UNL     1       9.247   3.296  -0.235  0.00  0.00    -0.084 Cl
ENDROOT
BRANCH   6   8
ATOM      8  C   UNL     1       6.992  -1.363   0.132  0.00  0.00    +0.163 C 
ATOM      9  N   UNL     1       7.619  -2.000  -0.815  0.00  0.00    -0.071 NA
ATOM     10  N   UNL     1       6.460  -2.063   1.202  0.00  0.00    -0.340 N 
ATOM     11  H   UNL     1       5.994  -1.588   1.908  0.00  0.00    +0.144 HD
ATOM     12  H   UNL     1       6.554  -3.027   1.246  0.00  0.00    +0.144 HD
BRANCH   9  13
ATOM     13  O   UNL     1       8.252  -1.277  -1.856  0.00  0.00    -0.408 OA
ATOM     14  H   UNL     1       8.624  -1.835  -2.552  0.00  0.00    +0.328 HD
ENDBRANCH   9  13
ENDBRANCH   6   8
BRANCH   1  15
ATOM     15  S   UNL     1       4.140  -0.318   0.243  0.00  0.00    -0.086 S 
BRANCH  15  19
ATOM     16  C   UNL     1       3.587  -1.996  -3.928  0.00  0.00    +0.002 A 
ATOM     17  C   UNL     1       4.569  -1.051  -3.689  0.00  0.00    +0.001 A 
ATOM     18  C   UNL     1       4.740  -0.537  -2.419  0.00  0.00    +0.017 A 
ATOM     19  C   UNL     1       3.924  -0.970  -1.380  0.00  0.00    +0.043 A 
ATOM     20  C   UNL     1       2.939  -1.919  -1.624  0.00  0.00    +0.140 A 
ATOM     21  C   UNL     1       2.774  -2.429  -2.897  0.00  0.00    +0.034 A 
BRANCH  20  22
ATOM     22  N   UNL     1       2.068  -2.384  -0.520  0.00  0.00    +0.058 N 
ATOM     23  O   UNL     1       1.280  -3.281  -0.709  0.00  0.00    -0.126 OA
ATOM     24  O   UNL     1       2.145  -1.866   0.569  0.00  0.00    -0.126 OA
ENDBRANCH  20  22
ENDBRANCH  15  19
ENDBRANCH   1  15
TORSDOF 5
