REMARK  Name = ZINC07321381
REMARK  9 active torsions:
REMARK  status: ('A' for Active; 'I' for Inactive)
REMARK    1  A    between atoms: C_1  and  C_2
REMARK    2  A    between atoms: C_2  and  C_3
REMARK    3  A    between atoms: C_3  and  N_4
REMARK    4  A    between atoms: C_5  and  N_27
REMARK    5  A    between atoms: C_6  and  C_13
REMARK    6  A    between atoms: N_9  and  C_12
REMARK    7  A    between atoms: N_18  and  C_19
REMARK    8  A    between atoms: C_21  and  C_26
REMARK    9  A    between atoms: C_24  and  C_25
REMARK                            x       y       z     vdW  Elec       q    Type
REMARK                         _______ _______ _______ _____ _____    ______ ____
ROOT
ATOM      1  N   UNL     1      -2.094  -1.343  -0.520  0.00  0.00    -0.281 N 
ATOM      2  C   UNL     1      -2.060  -1.969   0.701  0.00  0.00    +0.115 A 
ATOM      3  C   UNL     1      -2.070  -3.356   0.751  0.00  0.00    +0.103 A 
ATOM      4  C   UNL     1      -2.115  -4.079  -0.463  0.00  0.00    +0.267 A 
ATOM      5  O   UNL     1      -2.124  -5.297  -0.453  0.00  0.00    -0.267 OA
ATOM      6  N   UNL     1      -2.147  -3.408  -1.632  0.00  0.00    -0.263 N 
ATOM      7  C   UNL     1      -2.142  -2.064  -1.655  0.00  0.00    +0.333 A 
ATOM      8  O   UNL     1      -2.177  -1.488  -2.725  0.00  0.00    -0.246 OA
ATOM      9  C   UNL     1      -2.194  -4.153  -2.892  0.00  0.00    +0.157 C 
ENDROOT
BRANCH   3  10
ATOM     10  C   UNL     1      -2.034  -4.066   2.053  0.00  0.00    +0.089 A 
ATOM     11  C   UNL     1      -1.891  -5.424   2.110  0.00  0.00    +0.077 A 
ATOM     12  S   UNL     1      -1.916  -5.688   3.877  0.00  0.00    -0.060 S 
ATOM     13  C   UNL     1      -2.107  -4.030   4.355  0.00  0.00    +0.163 A 
ATOM     14  N   UNL     1      -2.134  -3.402   3.197  0.00  0.00    -0.224 NA
ATOM     15  N   UNL     1      -2.203  -3.501   5.633  0.00  0.00    -0.294 N 
ATOM     16  H   UNL     1      -2.208  -2.539   5.760  0.00  0.00    +0.154 HD
BRANCH  15  17
ATOM     17  C   UNL     1      -2.291  -4.352   6.738  0.00  0.00    +0.036 A 
ATOM     18  C   UNL     1      -2.980  -5.554   6.637  0.00  0.00    +0.027 A 
ATOM     19  C   UNL     1      -3.065  -6.393   7.730  0.00  0.00    -0.049 A 
ATOM     20  C   UNL     1      -2.466  -6.037   8.925  0.00  0.00    +0.004 A 
ATOM     21  C   UNL     1      -1.779  -4.842   9.029  0.00  0.00    +0.005 A 
ATOM     22  C   UNL     1      -1.685  -4.001   7.937  0.00  0.00    -0.029 A 
ATOM     23  C   UNL     1      -0.930  -2.701   8.049  0.00  0.00    +0.045 C 
ATOM     24  C   UNL     1      -3.812  -7.697   7.622  0.00  0.00    +0.044 C 
ENDBRANCH  15  17
ENDBRANCH   3  10
BRANCH   2  25
ATOM     25  N   UNL     1      -2.018  -1.233   1.857  0.00  0.00    -0.344 N 
ATOM     26  H   UNL     1      -2.338  -1.616   2.688  0.00  0.00    +0.144 HD
ATOM     27  H   UNL     1      -1.667  -0.328   1.843  0.00  0.00    +0.144 HD
ENDBRANCH   2  25
BRANCH   1  28
ATOM     28  C   UNL     1      -2.084   0.120  -0.589  0.00  0.00    +0.128 C 
BRANCH  28  30
ATOM     29  C   UNL     1      -0.629   2.146  -0.730  0.00  0.00    +0.005 C 
ATOM     30  C   UNL     1      -0.639   0.618  -0.659  0.00  0.00    +0.018 C 
ENDBRANCH  28  30
ENDBRANCH   1  28
TORSDOF 5
