REMARK  Name = ZINC22607193
REMARK  4 active torsions:
REMARK  status: ('A' for Active; 'I' for Inactive)
REMARK    1  A    between atoms: C_1  and  C_2
REMARK    2  A    between atoms: C_5  and  N_8
REMARK    3  A    between atoms: C_9  and  C_11
REMARK    4  A    between atoms: C_11  and  C_12
REMARK                            x       y       z     vdW  Elec       q    Type
REMARK                         _______ _______ _______ _____ _____    ______ ____
ROOT
ATOM      1  C   UNL     1      -1.325   6.194  -1.054  0.00  0.00    +0.150 C 
ATOM      2  C   UNL     1      -2.516   5.459  -0.478  0.00  0.00    +0.245 C 
ATOM      3  O   UNL     1      -3.609   5.985  -0.484  0.00  0.00    -0.273 OA
ATOM      4  N   UNL     1      -2.369   4.231   0.040  0.00  0.00    -0.217 N 
ATOM      5  N   UNL     1      -1.177   3.507   0.041  0.00  0.00    -0.199 N 
ATOM      6  C   UNL     1      -1.242   2.152   0.034  0.00  0.00    +0.280 A 
ATOM      7  O   UNL     1      -2.315   1.577   0.038  0.00  0.00    -0.265 OA
ATOM      8  C   UNL     1       0.018   1.400   0.026  0.00  0.00    +0.066 A 
ATOM      9  C   UNL     1       0.046   0.006   0.022  0.00  0.00    +0.015 A 
ATOM     10  C   UNL     1       1.249  -0.643   0.008  0.00  0.00    +0.001 A 
ATOM     11  C   UNL     1       2.441   0.070  -0.004  0.00  0.00    +0.002 A 
ATOM     12  C   UNL     1       2.442   1.436  -0.002  0.00  0.00    +0.028 A 
ATOM     13  C   UNL     1       1.229   2.129   0.015  0.00  0.00    +0.079 A 
ATOM     14  N   UNL     1       1.180   3.475   0.024  0.00  0.00    -0.222 NA
ATOM     15  C   UNL     1       0.046   4.131   0.040  0.00  0.00    +0.191 A 
ATOM     16  S   UNL     1       0.077   5.903   0.068  0.00  0.00    -0.073 S 
ATOM     17  H   UNL     1      -3.228   3.724   0.505  0.00  0.00    +0.176 HD
ENDROOT
BRANCH   1  18
ATOM     18  C   UNL     1      -1.000   5.650  -2.446  0.00  0.00    +0.120 C 
BRANCH  18  20
ATOM     19  N   UNL     1       0.561   6.171  -4.293  0.00  0.00    -0.285 N 
ATOM     20  C   UNL     1       0.107   6.469  -3.060  0.00  0.00    +0.219 C 
ATOM     21  O   UNL     1       0.588   7.396  -2.444  0.00  0.00    -0.275 OA
ATOM     22  H   UNL     1       0.179   5.285  -4.821  0.00  0.00    +0.155 HD
BRANCH  19  27
ATOM     23  C   UNL     1       4.450   9.483  -6.762  0.00  0.00    +0.044 C 
ATOM     24  C   UNL     1       3.416   8.604  -6.106  0.00  0.00    -0.050 A 
ATOM     25  C   UNL     1       3.451   8.401  -4.739  0.00  0.00    +0.005 A 
ATOM     26  C   UNL     1       2.506   7.595  -4.135  0.00  0.00    +0.023 A 
ATOM     27  C   UNL     1       1.520   6.988  -4.902  0.00  0.00    +0.033 A 
ATOM     28  C   UNL     1       1.491   7.190  -6.276  0.00  0.00    +0.023 A 
ATOM     29  C   UNL     1       2.436   8.001  -6.873  0.00  0.00    +0.005 A 
ENDBRANCH  19  27
ENDBRANCH  18  20
ENDBRANCH   1  18
TORSDOF 3
