REMARK  Name = ZINC39915814
REMARK  10 active torsions:
REMARK  status: ('A' for Active; 'I' for Inactive)
REMARK    1  A    between atoms: C_1  and  C_2
REMARK    2  A    between atoms: C_2  and  C_3
REMARK    3  A    between atoms: C_2  and  N_4
REMARK    4  A    between atoms: C_12  and  S_13
REMARK    5  A    between atoms: S_13  and  C_14
REMARK    6  A    between atoms: C_16  and  O_29
REMARK    7  A    between atoms: C_18  and  O_28
REMARK    8  A    between atoms: C_20  and  O_27
REMARK    9  A    between atoms: C_22  and  C_25
REMARK   10  A    between atoms: C_25  and  O_26
REMARK                            x       y       z     vdW  Elec       q    Type
REMARK                         _______ _______ _______ _____ _____    ______ ____
ROOT
ATOM      1  C   UNL     1      -3.659   0.612   3.286  0.00  0.00    +0.214 C 
ATOM      2  C   UNL     1      -3.664   1.615   4.442  0.00  0.00    +0.185 C 
ATOM      3  C   UNL     1      -4.990   1.502   5.200  0.00  0.00    +0.177 C 
ATOM      4  C   UNL     1      -5.169   0.058   5.681  0.00  0.00    +0.176 C 
ATOM      5  C   UNL     1      -5.106  -0.885   4.477  0.00  0.00    +0.176 C 
ATOM      6  O   UNL     1      -3.861  -0.707   3.799  0.00  0.00    -0.355 OA
ENDROOT
BRANCH   4   7
ATOM      7  O   UNL     1      -4.127  -0.271   6.602  0.00  0.00    -0.386 OA
ATOM      8  H   UNL     1      -4.106   0.292   7.389  0.00  0.00    +0.210 HD
ENDBRANCH   4   7
BRANCH   3   9
ATOM      9  O   UNL     1      -4.975   2.384   6.324  0.00  0.00    -0.386 OA
ATOM     10  H   UNL     1      -4.859   3.315   6.091  0.00  0.00    +0.210 HD
ENDBRANCH   3   9
BRANCH   2  11
ATOM     11  O   UNL     1      -3.519   2.939   3.926  0.00  0.00    -0.386 OA
ATOM     12  H   UNL     1      -2.701   3.081   3.430  0.00  0.00    +0.210 HD
ENDBRANCH   2  11
BRANCH   1  13
ATOM     13  S   UNL     1      -2.063   0.688   2.426  0.00  0.00    -0.054 S 
BRANCH  13  22
ATOM     14  N   UNL     1      -1.372  -0.511   0.012  0.00  0.00    -0.316 N 
ATOM     15  C   UNL     1      -1.958  -1.318  -0.950  0.00  0.00    +0.070 A 
ATOM     16  C   UNL     1      -1.511  -1.877  -2.137  0.00  0.00    +0.028 A 
ATOM     17  C   UNL     1      -2.362  -2.657  -2.892  0.00  0.00    +0.002 A 
ATOM     18  C   UNL     1      -3.664  -2.886  -2.472  0.00  0.00    +0.002 A 
ATOM     19  C   UNL     1      -4.125  -2.338  -1.296  0.00  0.00    +0.030 A 
ATOM     20  C   UNL     1      -3.275  -1.547  -0.519  0.00  0.00    +0.090 A 
ATOM     21  N   UNL     1      -3.432  -0.886   0.658  0.00  0.00    -0.222 NA
ATOM     22  C   UNL     1      -2.314  -0.281   0.976  0.00  0.00    +0.173 A 
BRANCH  14  24
ATOM     23  C   UNL     1      -0.019   1.526   0.010  0.00  0.00    +0.030 C 
ATOM     24  C   UNL     1       0.002  -0.004   0.002  0.00  0.00    +0.084 C 
ATOM     25  C   UNL     1       0.742  -0.511   1.242  0.00  0.00    +0.030 C 
ENDBRANCH  14  24
ENDBRANCH  13  22
ENDBRANCH   1  13
BRANCH   5  26
ATOM     26  C   UNL     1      -5.224  -2.333   4.956  0.00  0.00    +0.190 C 
BRANCH  26  27
ATOM     27  O   UNL     1      -5.282  -3.205   3.826  0.00  0.00    -0.392 OA
ATOM     28  H   UNL     1      -5.358  -4.142   4.055  0.00  0.00    +0.210 HD
ENDBRANCH  26  27
ENDBRANCH   5  26
TORSDOF 8
