REMARK  Name = ZINC66790241
REMARK  10 active torsions:
REMARK  status: ('A' for Active; 'I' for Inactive)
REMARK    1  A    between atoms: C_1  and  O_2
REMARK    2  A    between atoms: O_2  and  C_3
REMARK    3  A    between atoms: C_5  and  O_28
REMARK    4  A    between atoms: C_6  and  O_26
REMARK    5  A    between atoms: C_10  and  C_13
REMARK    6  A    between atoms: N_15  and  N_16
REMARK    7  A    between atoms: C_17  and  C_19
REMARK    8  A    between atoms: C_19  and  C_20
REMARK    9  A    between atoms: O_26  and  C_27
REMARK   10  A    between atoms: O_28  and  C_29
REMARK                            x       y       z     vdW  Elec       q    Type
REMARK                         _______ _______ _______ _____ _____    ______ ____
ROOT
ATOM      1  C   UNL     1       0.606  -0.607  -1.055  0.00  0.00    +0.133 A 
ATOM      2  C   UNL     1       1.170   0.155  -2.057  0.00  0.00    +0.095 A 
ATOM      3  C   UNL     1       1.790  -0.457  -3.143  0.00  0.00    +0.167 A 
ATOM      4  C   UNL     1       1.849  -1.839  -3.233  0.00  0.00    +0.186 A 
ATOM      5  C   UNL     1       1.286  -2.627  -2.233  0.00  0.00    +0.096 A 
ATOM      6  C   UNL     1       0.662  -2.010  -1.130  0.00  0.00    +0.046 A 
ATOM      7  C   UNL     1       0.196  -3.044  -0.286  0.00  0.00    +0.044 A 
ATOM      8  C   UNL     1       0.531  -4.231  -0.858  0.00  0.00    +0.104 A 
ATOM      9  N   UNL     1       1.190  -3.989  -2.051  0.00  0.00    -0.347 N 
ATOM     10  H   UNL     1       1.536  -4.666  -2.653  0.00  0.00    +0.166 HD
ENDROOT
BRANCH   8  11
ATOM     11  C   UNL     1       0.232  -5.558  -0.304  0.00  0.00    +0.276 C 
ATOM     12  O   UNL     1      -0.364  -5.656   0.752  0.00  0.00    -0.267 OA
ATOM     13  N   UNL     1       0.619  -6.667  -0.965  0.00  0.00    -0.229 N 
ATOM     14  H   UNL     1       1.094  -6.588  -1.807  0.00  0.00    +0.173 HD
BRANCH  13  15
ATOM     15  N   UNL     1       0.333  -7.933  -0.437  0.00  0.00    -0.234 N 
ATOM     16  C   UNL     1       0.719  -9.041  -1.099  0.00  0.00    +0.229 C 
ATOM     17  O   UNL     1       1.314  -8.944  -2.151  0.00  0.00    -0.274 OA
ATOM     18  H   UNL     1      -0.142  -8.011   0.405  0.00  0.00    +0.173 HD
BRANCH  16  19
ATOM     19  C   UNL     1       0.412 -10.403  -0.530  0.00  0.00    +0.101 C 
BRANCH  19  20
ATOM     20  C   UNL     1       0.955 -11.482  -1.469  0.00  0.00    -0.002 C 
ATOM     21  C   UNL     1       0.206 -11.421  -2.802  0.00  0.00    +0.004 C 
ATOM     22  C   UNL     1       0.749 -12.500  -3.741  0.00  0.00    +0.000 C 
ATOM     23  C   UNL     1       0.549 -13.878  -3.106  0.00  0.00    +0.000 C 
ATOM     24  C   UNL     1       1.297 -13.938  -1.773  0.00  0.00    +0.000 C 
ATOM     25  C   UNL     1       0.754 -12.859  -0.834  0.00  0.00    +0.004 C 
ENDBRANCH  19  20
ENDBRANCH  16  19
ENDBRANCH  13  15
ENDBRANCH   8  11
BRANCH   1  27
ATOM     26  C   UNL     1      -0.017   1.425   0.010  0.00  0.00    +0.277 C 
ATOM     27  O   UNL     1       0.002  -0.004   0.002  0.00  0.00    -0.494 OA
ENDBRANCH   1  27
BRANCH   4  28
ATOM     28  O   UNL     1       2.458  -2.426  -4.301  0.00  0.00    -0.490 OA
ATOM     29  C   UNL     1       3.855  -2.700  -4.181  0.00  0.00    +0.277 C 
ENDBRANCH   4  28
BRANCH   3  30
ATOM     30  O   UNL     1       2.342   0.307  -4.122  0.00  0.00    -0.491 OA
ATOM     31  C   UNL     1       2.247   1.724  -3.970  0.00  0.00    +0.277 C 
ENDBRANCH   3  30
TORSDOF 7
