REMARK  Name = ZINC63202487
REMARK  3 active torsions:
REMARK  status: ('A' for Active; 'I' for Inactive)
REMARK    1  A    between atoms: C_4  and  N_17
REMARK    2  A    between atoms: C_6  and  N_7
REMARK    3  A    between atoms: C_8  and  C_10
REMARK                            x       y       z     vdW  Elec       q    Type
REMARK                         _______ _______ _______ _____ _____    ______ ____
ROOT
ATOM      1  N   UNL     1      -1.201  -0.721   0.010  0.00  0.00    -0.284 N 
ATOM      2  C   UNL     1      -2.374  -0.068   0.126  0.00  0.00    +0.238 C 
ATOM      3  O   UNL     1      -2.394   1.145   0.133  0.00  0.00    -0.273 OA
ATOM      4  H   UNL     1      -1.190  -1.687  -0.073  0.00  0.00    +0.155 HD
ENDROOT
BRANCH   1  10
ATOM      5  C   UNL     1       0.122   1.154   0.763  0.00  0.00    +0.026 A 
ATOM      6  C   UNL     1       1.309   1.863   0.762  0.00  0.00    +0.042 A 
ATOM      7  C   UNL     1       2.381   1.420   0.010  0.00  0.00    +0.144 A 
ATOM      8  C   UNL     1       2.267   0.259  -0.749  0.00  0.00    +0.062 A 
ATOM      9  C   UNL     1       1.076  -0.453  -0.749  0.00  0.00    +0.049 A 
ATOM     10  C   UNL     1       0.002  -0.004   0.008  0.00  0.00    +0.035 A 
ATOM     11  F   UNL     1       3.539   2.115   0.011  0.00  0.00    -0.204 F 
BRANCH   8  12
ATOM     12  N   UNL     1       3.350  -0.189  -1.511  0.00  0.00    -0.356 N 
ATOM     13  H   UNL     1       4.182   0.309  -1.510  0.00  0.00    +0.142 HD
ATOM     14  H   UNL     1       3.270  -0.998  -2.039  0.00  0.00    +0.142 HD
ENDBRANCH   8  12
ENDBRANCH   1  10
BRANCH   2  15
ATOM     15  C   UNL     1      -3.660  -0.844   0.248  0.00  0.00    +0.170 C 
ATOM     16  C   UNL     1      -4.081  -1.352  -1.156  0.00  0.00    +0.110 C 
ATOM     17  S   UNL     1      -5.910  -1.225  -0.967  0.00  0.00    -0.065 S 
ATOM     18  C   UNL     1      -5.946  -0.046   0.373  0.00  0.00    +0.273 C 
ATOM     19  O   UNL     1      -6.908   0.572   0.787  0.00  0.00    -0.263 OA
ATOM     20  N   UNL     1      -4.679   0.013   0.826  0.00  0.00    -0.294 N 
ATOM     21  H   UNL     1      -4.449   0.628   1.539  0.00  0.00    +0.150 HD
ENDBRANCH   2  15
TORSDOF 3
