REMARK  Name = ZINC39636632
REMARK  6 active torsions:
REMARK  status: ('A' for Active; 'I' for Inactive)
REMARK    1  A    between atoms: C_1  and  C_2
REMARK    2  A    between atoms: C_5  and  C_36
REMARK    3  A    between atoms: C_6  and  C_8
REMARK    4  A    between atoms: C_8  and  N_9
REMARK    5  A    between atoms: C_10  and  C_12
REMARK    6  A    between atoms: C_23  and  C_25
REMARK                            x       y       z     vdW  Elec       q    Type
REMARK                         _______ _______ _______ _____ _____    ______ ____
ROOT
ATOM      1  C   UNL     1       3.162  -4.449   4.192  0.00  0.00    +0.100 C 
ATOM      2  C   UNL     1       4.081  -3.209   4.267  0.00  0.00    +0.121 C 
ATOM      3  N   UNL     1       4.134  -2.869   5.709  0.00  0.00    -0.297 N 
ATOM      4  C   UNL     1       4.197  -4.182   6.395  0.00  0.00    +0.115 C 
ATOM      5  C   UNL     1       3.244  -5.087   5.589  0.00  0.00    -0.004 C 
ATOM      6  C   UNL     1       3.813  -6.500   5.493  0.00  0.00    -0.010 C 
ATOM      7  C   UNL     1       3.830  -7.134   6.886  0.00  0.00    -0.082 C 
ATOM      8  N   UNL     1       2.465  -7.170   7.427  0.00  0.00    +0.379 N 
ATOM      9  C   UNL     1       1.961  -5.803   7.603  0.00  0.00    -0.082 C 
ATOM     10  C   UNL     1       1.865  -5.112   6.240  0.00  0.00    -0.010 C 
ATOM     11  C   UNL     1       4.126  -1.644   6.269  0.00  0.00    +0.260 C 
ATOM     12  O   UNL     1       3.973  -0.661   5.576  0.00  0.00    -0.271 OA
ATOM     13  H   UNL     1       1.865  -7.668   6.787  0.00  0.00    -0.086 HD
ATOM     14  H   UNL     1       2.470  -7.643   8.318  0.00  0.00    -0.086 HD
ENDROOT
BRANCH  11  15
ATOM     15  C   UNL     1       4.309  -1.495   7.758  0.00  0.00    +0.296 C 
ATOM     16  C   UNL     1       5.746  -1.871   8.143  0.00  0.00    +0.283 C 
ATOM     17  O   UNL     1       5.888  -1.706   9.558  0.00  0.00    -0.484 OA
ATOM     18  C   UNL     1       5.399  -0.553  10.091  0.00  0.00    +0.162 A 
ATOM     19  C   UNL     1       5.811  -0.159  11.356  0.00  0.00    +0.049 A 
ATOM     20  C   UNL     1       5.321   1.008  11.912  0.00  0.00    +0.004 A 
ATOM     21  C   UNL     1       4.419   1.785  11.209  0.00  0.00    +0.004 A 
ATOM     22  C   UNL     1       4.006   1.399   9.948  0.00  0.00    +0.049 A 
ATOM     23  C   UNL     1       4.495   0.230   9.384  0.00  0.00    +0.163 A 
ATOM     24  O   UNL     1       4.084  -0.133   8.138  0.00  0.00    -0.473 OA
ENDBRANCH  11  15
BRANCH   1  26
ATOM     25  N   UNL     1       0.934  -4.865   3.202  0.00  0.00    -0.311 N 
ATOM     26  C   UNL     1       1.746  -4.035   3.887  0.00  0.00    +0.218 C 
ATOM     27  O   UNL     1       1.337  -2.955   4.257  0.00  0.00    -0.275 OA
ATOM     28  H   UNL     1       1.262  -5.728   2.905  0.00  0.00    +0.149 HD
BRANCH  25  29
ATOM     29  C   UNL     1      -0.443  -4.462   2.905  0.00  0.00    +0.139 C 
BRANCH  29  35
ATOM     30  C   UNL     1      -2.039  -6.366  -1.440  0.00  0.00    +0.044 C 
ATOM     31  C   UNL     1      -1.896  -6.470   0.057  0.00  0.00    -0.050 A 
ATOM     32  C   UNL     1      -2.398  -7.572   0.725  0.00  0.00    +0.003 A 
ATOM     33  C   UNL     1      -2.268  -7.667   2.097  0.00  0.00    +0.004 A 
ATOM     34  C   UNL     1      -1.635  -6.660   2.803  0.00  0.00    -0.046 A 
ATOM     35  C   UNL     1      -1.132  -5.559   2.135  0.00  0.00    -0.027 A 
ATOM     36  C   UNL     1      -1.259  -5.466   0.762  0.00  0.00    +0.008 A 
ATOM     37  C   UNL     1      -1.493  -6.764   4.300  0.00  0.00    +0.044 C 
ENDBRANCH  29  35
ENDBRANCH  25  29
ENDBRANCH   1  26
TORSDOF 4
