REMARK  Name = ZINC36066399
REMARK  7 active torsions:
REMARK  status: ('A' for Active; 'I' for Inactive)
REMARK    1  A    between atoms: C_1  and  C_2
REMARK    2  A    between atoms: C_5  and  N_8
REMARK    3  A    between atoms: C_9  and  C_11
REMARK    4  A    between atoms: N_22  and  C_34
REMARK    5  A    between atoms: C_23  and  C_25
REMARK    6  A    between atoms: N_27  and  C_28
REMARK    7  A    between atoms: C_40  and  C_42
REMARK                            x       y       z     vdW  Elec       q    Type
REMARK                         _______ _______ _______ _____ _____    ______ ____
ROOT
ATOM      1  C   UNL     1       1.068  -6.889   1.066  0.00  0.00    +0.123 C 
ATOM      2  C   UNL     1       2.463  -7.328   0.516  0.00  0.00    +0.155 C 
ATOM      3  C   UNL     1       3.517  -6.508   1.269  0.00  0.00    +0.004 C 
ATOM      4  C   UNL     1       3.581  -6.990   2.516  0.00  0.00    +0.009 C 
ATOM      5  C   UNL     1       2.551  -8.062   2.533  0.00  0.00    +0.127 C 
ATOM      6  C   UNL     1       1.135  -7.375   2.525  0.00  0.00    +0.128 C 
ATOM      7  C   UNL     1       0.230  -8.530   2.850  0.00  0.00    +0.224 C 
ATOM      8  O   UNL     1      -0.942  -8.609   2.549  0.00  0.00    -0.275 OA
ATOM      9  N   UNL     1       0.931  -9.471   3.532  0.00  0.00    -0.283 N 
ATOM     10  C   UNL     1       2.389  -9.071   3.626  0.00  0.00    +0.199 C 
ATOM     11  O   UNL     1       2.597  -8.637   1.181  0.00  0.00    -0.358 OA
ENDROOT
BRANCH   9  12
ATOM     12  C   UNL     1       0.348 -10.681   4.117  0.00  0.00    +0.080 C 
ATOM     13  C   UNL     1      -0.240 -11.552   3.006  0.00  0.00    +0.023 C 
ATOM     14  C   UNL     1      -1.326 -10.770   2.265  0.00  0.00    +0.002 C 
ATOM     15  C   UNL     1      -2.433 -10.379   3.246  0.00  0.00    +0.000 C 
ATOM     16  C   UNL     1      -1.845  -9.508   4.358  0.00  0.00    +0.005 C 
ATOM     17  C   UNL     1      -0.758 -10.290   5.099  0.00  0.00    +0.006 C 
ATOM     18  C   UNL     1      -0.170  -9.419   6.210  0.00  0.00    +0.009 C 
ENDBRANCH   9  12
BRANCH   1  20
ATOM     19  N   UNL     1       0.894  -4.764  -0.189  0.00  0.00    -0.285 N 
ATOM     20  C   UNL     1       0.911  -5.391   1.004  0.00  0.00    +0.224 C 
ATOM     21  O   UNL     1       0.799  -4.750   2.028  0.00  0.00    -0.275 OA
ATOM     22  H   UNL     1       0.911  -5.282  -1.009  0.00  0.00    +0.155 HD
BRANCH  19  27
ATOM     23  C   UNL     1       0.725   0.902  -0.413  0.00  0.00    +0.044 C 
ATOM     24  C   UNL     1       0.769  -0.604  -0.353  0.00  0.00    -0.050 A 
ATOM     25  C   UNL     1       0.095  -1.275   0.650  0.00  0.00    +0.005 A 
ATOM     26  C   UNL     1       0.134  -2.654   0.707  0.00  0.00    +0.023 A 
ATOM     27  C   UNL     1       0.852  -3.367  -0.244  0.00  0.00    +0.033 A 
ATOM     28  C   UNL     1       1.528  -2.690  -1.251  0.00  0.00    +0.023 A 
ATOM     29  C   UNL     1       1.481  -1.310  -1.305  0.00  0.00    +0.005 A 
ENDBRANCH  19  27
ENDBRANCH   1  20
BRANCH  10  30
ATOM     30  C   UNL     1       2.718  -8.458   4.963  0.00  0.00    +0.237 C 
ATOM     31  O   UNL     1       1.860  -7.871   5.589  0.00  0.00    -0.274 OA
ATOM     32  N   UNL     1       3.965  -8.562   5.464  0.00  0.00    -0.311 N 
ATOM     33  H   UNL     1       4.651  -9.031   4.963  0.00  0.00    +0.149 HD
BRANCH  32  34
ATOM     34  C   UNL     1       4.285  -7.966   6.763  0.00  0.00    +0.073 C 
ATOM     35  C   UNL     1       4.642  -6.491   6.574  0.00  0.00    +0.022 C 
ATOM     36  C   UNL     1       4.976  -5.868   7.931  0.00  0.00    +0.002 C 
ATOM     37  C   UNL     1       6.165  -6.605   8.551  0.00  0.00    +0.000 C 
ATOM     38  C   UNL     1       5.808  -8.081   8.740  0.00  0.00    +0.002 C 
ATOM     39  C   UNL     1       5.474  -8.703   7.383  0.00  0.00    +0.022 C 
ENDBRANCH  32  34
ENDBRANCH  10  30
TORSDOF 5
