REMARK  Name = ZINC08845441
REMARK  8 active torsions:
REMARK  status: ('A' for Active; 'I' for Inactive)
REMARK    1  A    between atoms: C_1  and  C_2
REMARK    2  A    between atoms: C_5  and  O_35
REMARK    3  A    between atoms: C_6  and  C_8
REMARK    4  A    between atoms: C_10  and  C_14
REMARK    5  A    between atoms: N_16  and  C_17
REMARK    6  A    between atoms: C_18  and  C_26
REMARK    7  A    between atoms: N_28  and  C_29
REMARK    8  A    between atoms: C_29  and  C_30
REMARK                            x       y       z     vdW  Elec       q    Type
REMARK                         _______ _______ _______ _____ _____    ______ ____
ROOT
ATOM      1  C   UNL     1      -0.785  -5.480   4.841  0.00  0.00    +0.269 C 
ATOM      2  O   UNL     1      -1.554  -6.269   4.325  0.00  0.00    -0.268 OA
ATOM      3  N   UNL     1      -0.379  -5.668   6.112  0.00  0.00    -0.274 N 
ATOM      4  H   UNL     1       0.235  -5.040   6.523  0.00  0.00    +0.156 HD
ENDROOT
BRANCH   3   5
ATOM      5  C   UNL     1      -0.837  -6.760   6.832  0.00  0.00    +0.085 A 
ATOM      6  C   UNL     1      -0.534  -7.108   8.139  0.00  0.00    +0.069 A 
ATOM      7  C   UNL     1      -1.150  -8.313   8.666  0.00  0.00    -0.023 A 
ATOM      8  C   UNL     1      -1.957  -8.949   7.789  0.00  0.00    -0.004 A 
ATOM      9  S   UNL     1      -1.893  -7.963   6.322  0.00  0.00    -0.077 S 
ATOM     10  C   UNL     1      -2.729 -10.209   8.029  0.00  0.00    +0.043 C 
ATOM     11  C   UNL     1      -2.176 -10.880   9.295  0.00  0.00    +0.005 C 
ATOM     12  C   UNL     1      -2.062  -9.829  10.403  0.00  0.00    +0.005 C 
ATOM     13  C   UNL     1      -0.936  -8.847  10.074  0.00  0.00    +0.037 C 
BRANCH   6  14
ATOM     14  C   UNL     1       0.372  -6.293   8.955  0.00  0.00    +0.247 C 
ATOM     15  O   UNL     1      -0.071  -5.387   9.636  0.00  0.00    -0.270 OA
ATOM     16  N   UNL     1       1.695  -6.549   8.952  0.00  0.00    -0.304 N 
ATOM     17  H   UNL     1       2.049  -7.272   8.410  0.00  0.00    +0.149 HD
BRANCH  16  18
ATOM     18  C   UNL     1       2.600  -5.735   9.768  0.00  0.00    +0.179 C 
BRANCH  18  19
ATOM     19  C   UNL     1       4.015  -6.223   9.587  0.00  0.00    +0.122 A 
ATOM     20  C   UNL     1       4.886  -5.783   8.661  0.00  0.00    +0.046 A 
ATOM     21  C   UNL     1       6.085  -6.508   8.851  0.00  0.00    +0.041 A 
ATOM     22  C   UNL     1       5.875  -7.347   9.881  0.00  0.00    +0.195 A 
ATOM     23  O   UNL     1       4.621  -7.166  10.326  0.00  0.00    -0.466 OA
ENDBRANCH  18  19
ENDBRANCH  16  18
ENDBRANCH   6  14
ENDBRANCH   3   5
BRANCH   1  26
ATOM     24  C   UNL     1       0.052  -2.841   2.463  0.00  0.00    +0.070 A 
ATOM     25  C   UNL     1      -0.633  -3.991   2.742  0.00  0.00    +0.062 A 
ATOM     26  C   UNL     1      -0.296  -4.317   4.074  0.00  0.00    +0.148 A 
ATOM     27  N   UNL     1       0.534  -3.389   4.507  0.00  0.00    -0.169 NA
ATOM     28  N   UNL     1       0.757  -2.521   3.586  0.00  0.00    -0.276 N 
ATOM     29  H   UNL     1       1.339  -1.750   3.676  0.00  0.00    +0.189 HD
BRANCH  24  35
ATOM     30  C   UNL     1      -0.018   1.503   0.010  0.00  0.00    +0.044 C 
ATOM     31  C   UNL     1       0.002  -0.004   0.002  0.00  0.00    -0.050 A 
ATOM     32  C   UNL     1       0.006  -0.687  -1.202  0.00  0.00    +0.007 A 
ATOM     33  C   UNL     1       0.024  -2.069  -1.221  0.00  0.00    +0.046 A 
ATOM     34  C   UNL     1       0.040  -2.779  -0.031  0.00  0.00    +0.126 A 
ATOM     35  C   UNL     1       0.036  -2.092   1.188  0.00  0.00    +0.041 A 
ATOM     36  C   UNL     1       0.023  -0.698   1.195  0.00  0.00    +0.017 A 
BRANCH  34  37
ATOM     37  O   UNL     1       0.058  -4.137  -0.049  0.00  0.00    -0.506 OA
ATOM     38  H   UNL     1       0.946  -4.519  -0.058  0.00  0.00    +0.292 HD
ENDBRANCH  34  37
ENDBRANCH  24  35
ENDBRANCH   1  26
TORSDOF 7
