REMARK  Name = ZINC14013899
REMARK  12 active torsions:
REMARK  status: ('A' for Active; 'I' for Inactive)
REMARK    1  A    between atoms: C_1  and  C_2
REMARK    2  A    between atoms: C_3  and  C_21
REMARK    3  A    between atoms: C_4  and  N_10
REMARK    4  A    between atoms: C_6  and  C_7
REMARK    5  A    between atoms: C_11  and  C_13
REMARK    6  A    between atoms: C_13  and  S_14
REMARK    7  A    between atoms: S_14  and  C_15
REMARK    8  A    between atoms: C_21  and  O_23
REMARK    9  A    between atoms: O_23  and  C_24
REMARK   10  A    between atoms: C_24  and  C_25
REMARK   11  A    between atoms: C_25  and  O_26
REMARK   12  A    between atoms: O_26  and  C_27
REMARK                            x       y       z     vdW  Elec       q    Type
REMARK                         _______ _______ _______ _____ _____    ______ ____
ROOT
ATOM      1  C   UNL     1       6.132   1.346  -0.049  0.00  0.00    +0.046 C 
ATOM      2  C   UNL     1       4.705   0.861  -0.037  0.00  0.00    -0.015 A 
ATOM      3  C   UNL     1       3.644   1.753  -0.023  0.00  0.00    +0.091 A 
ATOM      4  C   UNL     1       2.349   1.224  -0.014  0.00  0.00    +0.087 A 
ATOM      5  S   UNL     1       2.630  -0.486  -0.018  0.00  0.00    -0.068 S 
ATOM      6  C   UNL     1       4.412  -0.476  -0.041  0.00  0.00    +0.079 A 
ENDROOT
BRANCH   6   7
ATOM      7  C   UNL     1       5.334  -1.614  -0.055  0.00  0.00    +0.248 C 
ATOM      8  O   UNL     1       6.536  -1.423  -0.065  0.00  0.00    -0.270 OA
ATOM      9  N   UNL     1       4.850  -2.872  -0.056  0.00  0.00    -0.325 N 
ATOM     10  H   UNL     1       3.892  -3.023  -0.049  0.00  0.00    +0.145 HD
ATOM     11  H   UNL     1       5.461  -3.626  -0.065  0.00  0.00    +0.145 HD
ENDBRANCH   6   7
BRANCH   4  12
ATOM     12  N   UNL     1       1.143   1.898   0.001  0.00  0.00    -0.279 N 
ATOM     13  C   UNL     1      -0.014   1.208   0.009  0.00  0.00    +0.228 C 
ATOM     14  O   UNL     1       0.002  -0.004   0.002  0.00  0.00    -0.275 OA
ATOM     15  H   UNL     1       1.130   2.868   0.007  0.00  0.00    +0.155 HD
BRANCH  13  16
ATOM     16  C   UNL     1      -1.330   1.944   0.019  0.00  0.00    +0.172 C 
BRANCH  16  17
ATOM     17  S   UNL     1      -2.692   0.747   0.019  0.00  0.00    -0.088 S 
BRANCH  17  18
ATOM     18  C   UNL     1      -4.141   1.750   0.031  0.00  0.00    +0.160 A 
ATOM     19  N   UNL     1      -4.247   3.064   0.038  0.00  0.00    -0.133 NA
ATOM     20  N   UNL     1      -5.492   3.650   0.047  0.00  0.00    -0.125 NA
ATOM     21  C   UNL     1      -6.573   2.895   0.048  0.00  0.00    +0.180 A 
ATOM     22  S   UNL     1      -5.858   1.258   0.029  0.00  0.00    -0.025 S 
ATOM     23  N   UNL     1      -7.911   3.272   0.055  0.00  0.00    -0.336 N 
ATOM     24  H   UNL     1      -8.150   4.212   0.062  0.00  0.00    +0.144 HD
ATOM     25  H   UNL     1      -8.605   2.594   0.055  0.00  0.00    +0.144 HD
ENDBRANCH  17  18
ENDBRANCH  16  17
ENDBRANCH  13  16
ENDBRANCH   4  12
BRANCH   3  26
ATOM     26  C   UNL     1       3.871   3.203  -0.019  0.00  0.00    +0.342 C 
ATOM     27  O   UNL     1       3.975   3.799   1.036  0.00  0.00    -0.245 OA
BRANCH  26  28
ATOM     28  O   UNL     1       3.964   3.874  -1.185  0.00  0.00    -0.459 OA
BRANCH  28  29
ATOM     29  C   UNL     1       4.189   5.306  -1.104  0.00  0.00    +0.260 C 
BRANCH  29  30
ATOM     30  C   UNL     1       4.266   5.890  -2.516  0.00  0.00    +0.200 C 
BRANCH  30  31
ATOM     31  O   UNL     1       3.001   5.742  -3.163  0.00  0.00    -0.380 OA
ATOM     32  C   UNL     1       2.964   6.259  -4.495  0.00  0.00    +0.194 C 
ENDBRANCH  30  31
ENDBRANCH  29  30
ENDBRANCH  28  29
ENDBRANCH  26  28
ENDBRANCH   3  26
TORSDOF 10
