REMARK  Name = ZINC37200276
REMARK  4 active torsions:
REMARK  status: ('A' for Active; 'I' for Inactive)
REMARK    1  A    between atoms: C_1  and  O_2
REMARK    2  A    between atoms: O_2  and  C_3
REMARK    3  A    between atoms: C_9  and  N_11
REMARK    4  A    between atoms: N_11  and  C_12
REMARK                            x       y       z     vdW  Elec       q    Type
REMARK                         _______ _______ _______ _____ _____    ______ ____
ROOT
ATOM      1  C   UNL     1       0.550  -3.871   0.584  0.00  0.00    +0.031 A 
ATOM      2  C   UNL     1       1.861  -4.043   1.010  0.00  0.00    +0.027 A 
ATOM      3  C   UNL     1       2.179  -5.077   1.870  0.00  0.00    +0.051 A 
ATOM      4  C   UNL     1       1.192  -5.944   2.310  0.00  0.00    +0.173 A 
ATOM      5  C   UNL     1      -0.123  -5.774   1.885  0.00  0.00    +0.174 A 
ATOM      6  C   UNL     1      -0.442  -4.734   1.027  0.00  0.00    +0.072 A 
ATOM      7  O   UNL     1      -0.895  -6.746   2.454  0.00  0.00    -0.395 OA
ATOM      8  C   UNL     1       0.028  -7.756   2.903  0.00  0.00    +0.589 C 
ATOM      9  O   UNL     1       1.244  -7.024   3.145  0.00  0.00    -0.395 OA
ATOM     10  F   UNL     1       0.224  -8.720   1.909  0.00  0.00    -0.125 F 
ATOM     11  F   UNL     1      -0.431  -8.351   4.083  0.00  0.00    -0.125 F 
ENDROOT
BRANCH   1  12
ATOM     12  N   UNL     1       0.230  -2.824  -0.286  0.00  0.00    -0.338 N 
ATOM     13  H   UNL     1      -0.687  -2.701  -0.580  0.00  0.00    +0.146 HD
BRANCH  12  19
ATOM     14  C   UNL     1       0.652  -0.570  -1.138  0.00  0.00    +0.138 C 
ATOM     15  C   UNL     1      -0.372  -0.785  -2.254  0.00  0.00    +0.033 C 
ATOM     16  C   UNL     1       0.323  -1.392  -3.474  0.00  0.00    +0.003 C 
ATOM     17  C   UNL     1       0.949  -2.734  -3.091  0.00  0.00    +0.002 C 
ATOM     18  C   UNL     1       1.973  -2.519  -1.974  0.00  0.00    +0.025 C 
ATOM     19  C   UNL     1       1.277  -1.913  -0.754  0.00  0.00    +0.099 C 
BRANCH  14  21
ATOM     20  C   UNL     1      -0.017   1.425   0.010  0.00  0.00    +0.194 C 
ATOM     21  O   UNL     1       0.002  -0.004   0.002  0.00  0.00    -0.378 OA
ENDBRANCH  14  21
ENDBRANCH  12  19
ENDBRANCH   1  12
TORSDOF 3
