REMARK  Name = ZINC14471070
REMARK  8 active torsions:
REMARK  status: ('A' for Active; 'I' for Inactive)
REMARK    1  A    between atoms: C_1  and  C_2
REMARK    2  A    between atoms: C_2  and  C_3
REMARK    3  A    between atoms: C_2  and  C_4
REMARK    4  A    between atoms: C_4  and  C_5
REMARK    5  A    between atoms: C_5  and  O_6
REMARK    6  A    between atoms: O_6  and  C_7
REMARK    7  A    between atoms: C_20  and  C_23
REMARK    8  A    between atoms: C_27  and  N_29
REMARK                            x       y       z     vdW  Elec       q    Type
REMARK                         _______ _______ _______ _____ _____    ______ ____
ROOT
ATOM      1  C   UNL     1       1.204  -0.691  -0.013  0.00  0.00    +0.121 A 
ATOM      2  C   UNL     1       2.404   0.005  -0.020  0.00  0.00    +0.047 A 
ATOM      3  C   UNL     1       2.393   1.385  -0.013  0.00  0.00    +0.027 A 
ATOM      4  C   UNL     1       1.186   2.072   0.002  0.00  0.00    +0.032 A 
ATOM      5  C   UNL     1      -0.017   1.384   0.010  0.00  0.00    -0.016 A 
ATOM      6  C   UNL     1       0.002  -0.004   0.002  0.00  0.00    +0.051 A 
ATOM      7  C   UNL     1      -1.339   2.083   0.032  0.00  0.00    +0.049 C 
ATOM      8  C   UNL     1      -2.009   2.033  -1.325  0.00  0.00    -0.023 C 
ATOM      9  C   UNL     1      -2.654   3.151  -1.553  0.00  0.00    -0.030 C 
ATOM     10  C   UNL     1      -2.506   4.099  -0.379  0.00  0.00    +0.033 C 
ATOM     11  C   UNL     1      -1.219   3.589   0.335  0.00  0.00    +0.029 C 
ATOM     12  C   UNL     1      -0.020   4.181  -0.411  0.00  0.00    +0.105 C 
ATOM     13  N   UNL     1       1.196   3.474   0.007  0.00  0.00    -0.336 N 
ATOM     14  H   UNL     1       1.986   3.965   0.280  0.00  0.00    +0.147 HD
ENDROOT
BRANCH  12  15
ATOM     15  C   UNL     1      -0.215   4.014  -1.896  0.00  0.00    -0.025 A 
ATOM     16  C   UNL     1       0.047   2.796  -2.495  0.00  0.00    +0.007 A 
ATOM     17  C   UNL     1      -0.132   2.643  -3.857  0.00  0.00    +0.022 A 
ATOM     18  C   UNL     1      -0.573   3.709  -4.621  0.00  0.00    +0.071 A 
ATOM     19  C   UNL     1      -0.835   4.927  -4.021  0.00  0.00    +0.145 A 
ATOM     20  C   UNL     1      -0.661   5.078  -2.658  0.00  0.00    +0.039 A 
ATOM     21 CL   UNL     1      -0.798   3.517  -6.332  0.00  0.00    -0.081 Cl
BRANCH  19  22
ATOM     22  N   UNL     1      -1.307   6.068  -4.837  0.00  0.00    +0.058 N 
ATOM     23  O   UNL     1      -1.538   7.141  -4.309  0.00  0.00    -0.126 OA
ATOM     24  O   UNL     1      -1.465   5.934  -6.037  0.00  0.00    -0.126 OA
ENDBRANCH  19  22
ENDBRANCH  12  15
BRANCH   1  25
ATOM     25  O   UNL     1       1.208  -2.050  -0.020  0.00  0.00    -0.492 OA
BRANCH  25  26
ATOM     26  C   UNL     1       2.483  -2.695  -0.035  0.00  0.00    +0.229 C 
BRANCH  26  27
ATOM     27  C   UNL     1       2.287  -4.213  -0.042  0.00  0.00    +0.044 C 
BRANCH  27  29
ATOM     28  C   UNL     1       4.394  -4.597   1.244  0.00  0.00    +0.007 C 
ATOM     29  C   UNL     1       3.652  -4.903  -0.058  0.00  0.00    -0.014 C 
ATOM     30  C   UNL     1       3.458  -6.415  -0.190  0.00  0.00    +0.007 C 
ENDBRANCH  27  29
ENDBRANCH  26  27
ENDBRANCH  25  26
ENDBRANCH   1  25
TORSDOF 6
