REMARK  Name = ZINC12033924
REMARK  7 active torsions:
REMARK  status: ('A' for Active; 'I' for Inactive)
REMARK    1  A    between atoms: C_1  and  C_2
REMARK    2  A    between atoms: C_2  and  O_3
REMARK    3  A    between atoms: O_3  and  C_4
REMARK    4  A    between atoms: N_6  and  C_7
REMARK    5  A    between atoms: N_16  and  S_17
REMARK    6  A    between atoms: S_17  and  C_20
REMARK    7  A    between atoms: C_20  and  C_21
REMARK                            x       y       z     vdW  Elec       q    Type
REMARK                         _______ _______ _______ _____ _____    ______ ____
ROOT
ATOM      1  C   UNL     1      -4.878   0.495   1.618  0.00  0.00    +0.037 A 
ATOM      2  C   UNL     1      -4.130   0.722   2.765  0.00  0.00    +0.025 A 
ATOM      3  C   UNL     1      -2.794   1.051   2.661  0.00  0.00    +0.027 A 
ATOM      4  C   UNL     1      -2.197   1.155   1.409  0.00  0.00    +0.054 A 
ATOM      5  C   UNL     1      -2.941   0.926   0.262  0.00  0.00    -0.023 A 
ATOM      6  C   UNL     1      -4.282   0.598   0.370  0.00  0.00    +0.029 A 
ATOM      7  C   UNL     1      -2.324   1.026  -1.109  0.00  0.00    +0.039 C 
ATOM      8  C   UNL     1      -1.049   1.867  -1.062  0.00  0.00    +0.025 C 
ATOM      9  C   UNL     1      -0.139   1.326   0.049  0.00  0.00    +0.131 C 
ATOM     10  N   UNL     1      -0.839   1.500   1.329  0.00  0.00    -0.207 N 
ENDROOT
BRANCH   1  13
ATOM     11  C   UNL     1      -6.667  -0.603   2.743  0.00  0.00    +0.405 C 
ATOM     12  O   UNL     1      -5.895  -0.935   3.620  0.00  0.00    -0.226 OA
ATOM     13  N   UNL     1      -6.236   0.162   1.720  0.00  0.00    -0.251 N 
ATOM     14  H   UNL     1      -6.865   0.482   1.056  0.00  0.00    +0.158 HD
BRANCH  11  15
ATOM     15  O   UNL     1      -7.952  -1.000   2.792  0.00  0.00    -0.450 OA
BRANCH  15  17
ATOM     16  C   UNL     1      -9.831  -2.172   3.805  0.00  0.00    +0.048 C 
ATOM     17  C   UNL     1      -8.346  -1.822   3.921  0.00  0.00    +0.230 C 
ENDBRANCH  15  17
ENDBRANCH  11  15
ENDBRANCH   1  13
BRANCH  10  18
ATOM     18  S   UNL     1      -0.040   2.092   2.652  0.00  0.00    +0.045 S 
ATOM     19  O   UNL     1       1.122   2.718   2.124  0.00  0.00    -0.155 OA
ATOM     20  O   UNL     1      -1.014   2.851   3.355  0.00  0.00    -0.155 OA
BRANCH  18  21
ATOM     21  C   UNL     1       0.423   0.625   3.613  0.00  0.00    +0.185 C 
ATOM     22  C   UNL     1       1.176   1.057   4.873  0.00  0.00    +0.030 C 
ENDBRANCH  18  21
ENDBRANCH  10  18
TORSDOF 5
