REMARK  Name = ZINC66815106
REMARK  4 active torsions:
REMARK  status: ('A' for Active; 'I' for Inactive)
REMARK    1  A    between atoms: C_3  and  C_8
REMARK    2  A    between atoms: N_11  and  C_15
REMARK    3  A    between atoms: C_18  and  C_24
REMARK    4  A    between atoms: C_20  and  N_21
REMARK                            x       y       z     vdW  Elec       q    Type
REMARK                         _______ _______ _______ _____ _____    ______ ____
ROOT
ATOM      1  C   UNL     1       5.965   3.860   2.173  0.00  0.00    +0.060 A 
ATOM      2  C   UNL     1       6.545   3.584   3.408  0.00  0.00    +0.026 A 
ATOM      3  C   UNL     1       6.908   4.614   4.245  0.00  0.00    +0.015 A 
ATOM      4  C   UNL     1       6.693   5.939   3.854  0.00  0.00    +0.039 A 
ATOM      5  C   UNL     1       6.111   6.213   2.613  0.00  0.00    +0.047 A 
ATOM      6  C   UNL     1       5.755   5.178   1.778  0.00  0.00    +0.148 A 
ENDROOT
BRANCH   1   9
ATOM      7  C   UNL     1       3.672   2.186  -0.021  0.00  0.00    +0.166 C 
ATOM      8  C   UNL     1       4.255   2.223   1.396  0.00  0.00    +0.141 C 
ATOM      9  N   UNL     1       5.600   2.816   1.329  0.00  0.00    -0.323 N 
ATOM     10  C   UNL     1       6.547   2.273   0.342  0.00  0.00    +0.133 C 
ATOM     11  C   UNL     1       5.852   2.233  -1.024  0.00  0.00    +0.179 C 
ATOM     12  O   UNL     1       4.604   1.548  -0.898  0.00  0.00    -0.369 OA
BRANCH   7  15
ATOM     13  C   UNL     1      -0.017   1.377   0.010  0.00  0.00    +0.003 A 
ATOM     14  C   UNL     1       1.171   2.086   0.002  0.00  0.00    +0.006 A 
ATOM     15  C   UNL     1       2.378   1.413  -0.013  0.00  0.00    -0.015 A 
ATOM     16  C   UNL     1       2.399   0.030  -0.021  0.00  0.00    +0.044 A 
ATOM     17  C   UNL     1       1.211  -0.679  -0.013  0.00  0.00    +0.124 A 
ATOM     18  C   UNL     1       0.002  -0.004   0.002  0.00  0.00    +0.038 A 
ATOM     19  F   UNL     1       1.230  -2.030  -0.022  0.00  0.00    -0.205 F 
ENDBRANCH   7  15
ENDBRANCH   1   9
BRANCH   4  20
ATOM     20  C   UNL     1       7.081   7.045   4.749  0.00  0.00    +0.242 C 
ATOM     21  O   UNL     1       6.894   8.197   4.407  0.00  0.00    -0.270 OA
ATOM     22  N   UNL     1       7.642   6.780   5.945  0.00  0.00    -0.325 N 
ATOM     23  H   UNL     1       7.791   5.861   6.217  0.00  0.00    +0.145 HD
ATOM     24  H   UNL     1       7.897   7.508   6.533  0.00  0.00    +0.145 HD
ENDBRANCH   4  20
BRANCH   6  25
ATOM     25  N   UNL     1       5.143   5.467   0.462  0.00  0.00    +0.058 N 
ATOM     26  O   UNL     1       4.961   6.612   0.118  0.00  0.00    -0.126 OA
ATOM     27  O   UNL     1       4.826   4.559  -0.270  0.00  0.00    -0.126 OA
ENDBRANCH   6  25
TORSDOF 4
