REMARK  Name = ZINC43667511
REMARK  7 active torsions:
REMARK  status: ('A' for Active; 'I' for Inactive)
REMARK    1  A    between atoms: C_1  and  C_2
REMARK    2  A    between atoms: C_2  and  C_3
REMARK    3  A    between atoms: N_15  and  C_16
REMARK    4  A    between atoms: C_18  and  N_24
REMARK    5  A    between atoms: C_21  and  O_22
REMARK    6  A    between atoms: O_22  and  C_23
REMARK    7  A    between atoms: C_25  and  C_27
REMARK                            x       y       z     vdW  Elec       q    Type
REMARK                         _______ _______ _______ _____ _____    ______ ____
ROOT
ATOM      1  C   UNL     1      -1.268  -0.858   2.731  0.00  0.00    +0.108 C 
ATOM      2  C   UNL     1      -1.886  -0.906   1.334  0.00  0.00    -0.017 A 
ATOM      3  C   UNL     1      -3.244  -1.121   1.107  0.00  0.00    +0.013 A 
ATOM      4  C   UNL     1      -3.721  -1.155  -0.158  0.00  0.00    +0.046 A 
ATOM      5  S   UNL     1      -2.240  -0.878  -1.117  0.00  0.00    -0.101 S 
ATOM      6  C   UNL     1      -1.102  -0.735   0.235  0.00  0.00    -0.004 A 
ATOM      7  C   UNL     1       0.370  -0.482   0.187  0.00  0.00    +0.062 C 
ATOM      8  C   UNL     1       0.976  -0.838   1.554  0.00  0.00    +0.115 C 
ATOM      9  N   UNL     1       0.090  -0.311   2.604  0.00  0.00    -0.278 N 
ATOM     10  C   UNL     1       0.516   0.660   3.436  0.00  0.00    +0.307 C 
ATOM     11  O   UNL     1       1.669   1.043   3.383  0.00  0.00    -0.252 OA
ATOM     12  N   UNL     1      -0.335   1.206   4.327  0.00  0.00    -0.266 N 
ATOM     13  H   UNL     1      -1.235   0.854   4.416  0.00  0.00    +0.156 HD
ENDROOT
BRANCH  12  14
ATOM     14  C   UNL     1       0.080   2.281   5.125  0.00  0.00    +0.079 A 
ATOM     15  C   UNL     1       1.193   3.024   4.764  0.00  0.00    +0.050 A 
ATOM     16  C   UNL     1       1.601   4.089   5.555  0.00  0.00    +0.035 A 
ATOM     17  C   UNL     1       0.895   4.408   6.708  0.00  0.00    +0.027 A 
ATOM     18  C   UNL     1      -0.215   3.667   7.069  0.00  0.00    +0.049 A 
ATOM     19  C   UNL     1      -0.629   2.608   6.278  0.00  0.00    +0.141 A 
BRANCH  16  20
ATOM     20  N   UNL     1       2.725   4.841   5.192  0.00  0.00    -0.286 N 
ATOM     21  C   UNL     1       2.754   6.168   5.429  0.00  0.00    +0.214 C 
ATOM     22  O   UNL     1       1.845   6.695   6.033  0.00  0.00    -0.276 OA
ATOM     23  C   UNL     1       3.916   6.995   4.942  0.00  0.00    +0.109 C 
ATOM     24  H   UNL     1       3.483   4.407   4.770  0.00  0.00    +0.155 HD
ENDBRANCH  16  20
BRANCH  19  25
ATOM     25  O   UNL     1      -1.725   1.883   6.632  0.00  0.00    -0.493 OA
ATOM     26  C   UNL     1      -2.404   2.275   7.827  0.00  0.00    +0.277 C 
ENDBRANCH  19  25
ENDBRANCH  12  14
BRANCH   1  28
ATOM     27  C   UNL     1      -0.684  -2.200   4.755  0.00  0.00    +0.006 C 
ATOM     28  C   UNL     1      -1.206  -2.269   3.319  0.00  0.00    +0.024 C 
ENDBRANCH   1  28
TORSDOF 4
