REMARK  Name = ZINC00446655
REMARK  8 active torsions:
REMARK  status: ('A' for Active; 'I' for Inactive)
REMARK    1  A    between atoms: C_1  and  C_2
REMARK    2  A    between atoms: C_5  and  N_8
REMARK    3  A    between atoms: C_9  and  C_11
REMARK    4  A    between atoms: C_15  and  C_19
REMARK    5  A    between atoms: C_15  and  C_20
REMARK    6  A    between atoms: C_16  and  C_17
REMARK    7  A    between atoms: C_16  and  C_18
REMARK    8  A    between atoms: N_22  and  N_23
REMARK                            x       y       z     vdW  Elec       q    Type
REMARK                         _______ _______ _______ _____ _____    ______ ____
ROOT
ATOM      1  C   UNL     1       4.934   1.102   0.013  0.00  0.00    +0.082 C 
ATOM      2  C   UNL     1       5.328   0.229   1.230  0.00  0.00    +0.014 C 
ATOM      3  C   UNL     1       6.876   0.303   1.214  0.00  0.00    +0.017 C 
ATOM      4  C   UNL     1       7.184   1.755   0.795  0.00  0.00    +0.051 C 
ATOM      5  C   UNL     1       5.949   2.263   0.031  0.00  0.00    -0.010 C 
ATOM      6  C   UNL     1       6.337   2.643  -1.399  0.00  0.00    +0.012 C 
ATOM      7  C   UNL     1       5.348   3.473   0.749  0.00  0.00    +0.012 C 
ATOM      8  C   UNL     1       7.426   2.619   2.035  0.00  0.00    +0.021 C 
ENDROOT
BRANCH   1  10
ATOM      9  N   UNL     1       2.789   1.911  -0.917  0.00  0.00    -0.285 N 
ATOM     10  C   UNL     1       3.530   1.626   0.172  0.00  0.00    +0.221 C 
ATOM     11  O   UNL     1       3.067   1.793   1.281  0.00  0.00    -0.275 OA
ATOM     12  H   UNL     1       3.130   1.708  -1.802  0.00  0.00    +0.155 HD
BRANCH   9  17
ATOM     13  C   UNL     1      -2.328   4.290  -0.326  0.00  0.00    +0.044 C 
ATOM     14  C   UNL     1      -0.969   3.657  -0.482  0.00  0.00    -0.050 A 
ATOM     15  C   UNL     1      -0.740   2.759  -1.508  0.00  0.00    +0.005 A 
ATOM     16  C   UNL     1       0.503   2.174  -1.652  0.00  0.00    +0.023 A 
ATOM     17  C   UNL     1       1.527   2.497  -0.771  0.00  0.00    +0.033 A 
ATOM     18  C   UNL     1       1.295   3.404   0.255  0.00  0.00    +0.023 A 
ATOM     19  C   UNL     1       0.049   3.981   0.397  0.00  0.00    +0.005 A 
ENDBRANCH   9  17
ENDBRANCH   1  10
BRANCH   4  20
ATOM     20  C   UNL     1       8.395   1.788  -0.102  0.00  0.00    +0.233 C 
ATOM     21  O   UNL     1       8.917   0.752  -0.454  0.00  0.00    -0.274 OA
ATOM     22  N   UNL     1       8.898   2.970  -0.511  0.00  0.00    -0.253 N 
ATOM     23  H   UNL     1       8.527   3.799  -0.171  0.00  0.00    +0.169 HD
BRANCH  22  24
ATOM     24  N   UNL     1       9.931   2.999  -1.405  0.00  0.00    -0.254 NA
ATOM     25  H   UNL     1       9.695   2.494  -2.246  0.00  0.00    +0.140 HD
ATOM     26  H   UNL     1      10.199   3.948  -1.617  0.00  0.00    +0.140 HD
ENDBRANCH  22  24
ENDBRANCH   4  20
TORSDOF 4
