REMARK  Name = ZINC42252880
REMARK  7 active torsions:
REMARK  status: ('A' for Active; 'I' for Inactive)
REMARK    1  A    between atoms: C_1  and  C_2
REMARK    2  A    between atoms: C_4  and  N_11
REMARK    3  A    between atoms: C_7  and  N_8
REMARK    4  A    between atoms: N_11  and  C_12
REMARK    5  A    between atoms: C_12  and  C_13
REMARK    6  A    between atoms: C_16  and  C_18
REMARK    7  A    between atoms: C_21  and  C_23
REMARK                            x       y       z     vdW  Elec       q    Type
REMARK                         _______ _______ _______ _____ _____    ______ ____
ROOT
ATOM      1  N   UNL     1      -0.181  -2.771  -2.408  0.00  0.00    -0.337 N 
ATOM      2  H   UNL     1      -0.440  -2.303  -3.217  0.00  0.00    +0.147 HD
ENDROOT
BRANCH   1   6
ATOM      3  C   UNL     1      -0.538   1.447   0.088  0.00  0.00    +0.046 C 
ATOM      4  C   UNL     1      -0.247  -0.031   0.040  0.00  0.00    -0.019 A 
ATOM      5  C   UNL     1      -0.348  -0.715  -1.156  0.00  0.00    +0.028 A 
ATOM      6  C   UNL     1      -0.079  -2.077  -1.201  0.00  0.00    +0.028 A 
ATOM      7  C   UNL     1       0.291  -2.746  -0.041  0.00  0.00    +0.025 A 
ATOM      8  C   UNL     1       0.391  -2.057   1.151  0.00  0.00    +0.035 A 
ATOM      9  C   UNL     1       0.127  -0.700   1.190  0.00  0.00    +0.129 A 
BRANCH   9  10
ATOM     10  N   UNL     1       0.240   0.038   2.469  0.00  0.00    +0.057 N 
ATOM     11  O   UNL     1       0.674   1.166   2.480  0.00  0.00    -0.126 OA
ATOM     12  O   UNL     1      -0.101  -0.489   3.502  0.00  0.00    -0.126 OA
ENDBRANCH   9  10
ENDBRANCH   1   6
BRANCH   1  13
ATOM     13  C   UNL     1       0.102  -4.208  -2.453  0.00  0.00    +0.176 C 
BRANCH  13  14
ATOM     14  C   UNL     1      -0.079  -4.712  -3.861  0.00  0.00    +0.122 A 
ATOM     15  C   UNL     1       0.876  -4.767  -4.807  0.00  0.00    +0.046 A 
ATOM     16  C   UNL     1       0.273  -5.302  -5.968  0.00  0.00    +0.045 A 
ATOM     17  C   UNL     1      -1.014  -5.542  -5.663  0.00  0.00    +0.109 A 
ATOM     18  O   UNL     1      -1.221  -5.188  -4.384  0.00  0.00    -0.463 OA
BRANCH  17  19
ATOM     19  C   UNL     1      -2.049  -6.116  -6.597  0.00  0.00    +0.058 C 
ATOM     20  C   UNL     1      -3.503  -6.122  -6.122  0.00  0.00    +0.015 C 
ATOM     21  C   UNL     1      -2.715  -7.432  -6.190  0.00  0.00    -0.003 C 
ATOM     22  C   UNL     1      -2.280  -8.064  -4.867  0.00  0.00    +0.008 C 
ENDBRANCH  17  19
ENDBRANCH  13  14
ENDBRANCH   1  13
TORSDOF 5
