REMARK  Name = ZINC36359962
REMARK  5 active torsions:
REMARK  status: ('A' for Active; 'I' for Inactive)
REMARK    1  A    between atoms: C_1  and  O_2
REMARK    2  A    between atoms: O_2  and  C_3
REMARK    3  A    between atoms: C_8  and  C_9
REMARK    4  A    between atoms: C_12  and  O_26
REMARK    5  A    between atoms: N_18  and  C_19
REMARK                            x       y       z     vdW  Elec       q    Type
REMARK                         _______ _______ _______ _____ _____    ______ ____
ROOT
ATOM      1  C   UNL     1       0.051  -2.828  -0.033  0.00  0.00    +0.084 C 
ATOM      2  C   UNL     1       1.126  -3.720   0.599  0.00  0.00    +0.110 C 
ATOM      3  C   UNL     1       1.437  -4.905  -0.267  0.00  0.00    +0.190 C 
ATOM      4  N   UNL     1       0.554  -5.489  -1.021  0.00  0.00    -0.197 NA
ATOM      5  C   UNL     1      -0.715  -4.989  -1.063  0.00  0.00    +0.165 A 
ATOM      6  C   UNL     1      -1.014  -3.728  -0.611  0.00  0.00    +0.094 A 
ATOM      7  N   UNL     1      -2.312  -3.521  -0.784  0.00  0.00    -0.237 NA
ATOM      8  C   UNL     1      -2.856  -4.586  -1.319  0.00  0.00    +0.206 A 
ATOM      9  N   UNL     1      -1.884  -5.533  -1.508  0.00  0.00    -0.283 N 
ENDROOT
BRANCH   9  10
ATOM     10  C   UNL     1      -2.057  -6.813  -2.054  0.00  0.00    +0.050 A 
ATOM     11  C   UNL     1      -1.221  -7.255  -3.070  0.00  0.00    +0.029 A 
ATOM     12  C   UNL     1      -1.393  -8.516  -3.605  0.00  0.00    +0.040 A 
ATOM     13  C   UNL     1      -2.399  -9.340  -3.129  0.00  0.00    +0.124 A 
ATOM     14  C   UNL     1      -3.234  -8.901  -2.116  0.00  0.00    +0.040 A 
ATOM     15  C   UNL     1      -3.062  -7.643  -1.574  0.00  0.00    +0.029 A 
ATOM     16  F   UNL     1      -2.566 -10.574  -3.654  0.00  0.00    -0.205 F 
ENDBRANCH   9  10
BRANCH   1  22
ATOM     17  C   UNL     1       0.606  -0.607  -1.056  0.00  0.00    +0.124 A 
ATOM     18  C   UNL     1       1.173   0.161  -2.063  0.00  0.00    +0.046 A 
ATOM     19  C   UNL     1       1.786  -0.455  -3.136  0.00  0.00    +0.004 A 
ATOM     20  C   UNL     1       1.836  -1.835  -3.208  0.00  0.00    +0.001 A 
ATOM     21  C   UNL     1       1.271  -2.602  -2.207  0.00  0.00    +0.008 A 
ATOM     22  C   UNL     1       0.661  -1.991  -1.128  0.00  0.00    +0.004 A 
BRANCH  17  24
ATOM     23  C   UNL     1      -0.017   1.425   0.010  0.00  0.00    +0.277 C 
ATOM     24  O   UNL     1       0.002  -0.004   0.002  0.00  0.00    -0.495 OA
ENDBRANCH  17  24
ENDBRANCH   1  22
BRANCH   3  25
ATOM     25  O   UNL     1       2.697  -5.389  -0.262  0.00  0.00    -0.495 OA
ATOM     26  H   UNL     1       2.827  -6.152  -0.842  0.00  0.00    +0.293 HD
ENDBRANCH   3  25
TORSDOF 4
