REMARK  Name = ZINC17215328
REMARK  8 active torsions:
REMARK  status: ('A' for Active; 'I' for Inactive)
REMARK    1  A    between atoms: C_4  and  N_7
REMARK    2  A    between atoms: N_7  and  N_8
REMARK    3  A    between atoms: C_9  and  C_10
REMARK    4  A    between atoms: C_9  and  C_25
REMARK    5  A    between atoms: C_17  and  N_22
REMARK    6  A    between atoms: C_25  and  C_27
REMARK    7  A    between atoms: C_25  and  O_36
REMARK    8  A    between atoms: C_31  and  N_33
REMARK                            x       y       z     vdW  Elec       q    Type
REMARK                         _______ _______ _______ _____ _____    ______ ____
ROOT
ATOM      1  N   UNL     1      -4.776   4.051   2.564  0.00  0.00    -0.186 NA
ATOM      2  C   UNL     1      -5.405   5.130   2.286  0.00  0.00    +0.099 C 
ENDROOT
BRANCH   2   3
ATOM      3  C   UNL     1      -6.005   5.322   0.917  0.00  0.00    +0.207 C 
ATOM      4  C   UNL     1      -6.698   4.054   0.488  0.00  0.00    +0.243 C 
ATOM      5  O   UNL     1      -6.074   3.202  -0.109  0.00  0.00    -0.273 OA
ATOM      6  N   UNL     1      -8.002   3.856   0.760  0.00  0.00    -0.282 N 
ATOM      7  C   UNL     1      -8.756   4.845   1.404  0.00  0.00    +0.057 A 
ATOM      8  C   UNL     1      -9.994   4.549   1.950  0.00  0.00    +0.058 A 
ATOM      9  C   UNL     1     -10.728   5.543   2.571  0.00  0.00    +0.128 A 
ATOM     10  C   UNL     1     -10.227   6.829   2.662  0.00  0.00    +0.034 A 
ATOM     11  C   UNL     1      -8.988   7.132   2.126  0.00  0.00    +0.027 A 
ATOM     12  C   UNL     1      -8.251   6.143   1.500  0.00  0.00    +0.050 A 
ATOM     13  N   UNL     1      -6.987   6.416   0.957  0.00  0.00    -0.327 N 
ATOM     14  H   UNL     1      -8.424   3.020   0.507  0.00  0.00    +0.155 HD
ATOM     15  H   UNL     1      -6.768   7.298   0.618  0.00  0.00    +0.147 HD
BRANCH   9  16
ATOM     16  N   UNL     1     -12.053   5.227   3.149  0.00  0.00    +0.056 N 
ATOM     17  O   UNL     1     -12.700   6.099   3.702  0.00  0.00    -0.126 OA
ATOM     18  O   UNL     1     -12.500   4.097   3.067  0.00  0.00    -0.126 OA
ENDBRANCH   9  16
ENDBRANCH   2   3
BRANCH   1  19
ATOM     19  N   UNL     1      -4.375   3.189   1.535  0.00  0.00    -0.238 N 
ATOM     20  H   UNL     1      -4.491   3.453   0.609  0.00  0.00    +0.174 HD
BRANCH  19  24
ATOM     21  C   UNL     1      -2.684  -0.503   2.451  0.00  0.00    +0.000 A 
ATOM     22  C   UNL     1      -2.752  -0.084   1.135  0.00  0.00    +0.002 A 
ATOM     23  C   UNL     1      -3.313   1.140   0.828  0.00  0.00    +0.025 A 
ATOM     24  C   UNL     1      -3.808   1.951   1.842  0.00  0.00    +0.048 A 
ATOM     25  C   UNL     1      -3.732   1.528   3.164  0.00  0.00    +0.025 A 
ATOM     26  C   UNL     1      -3.175   0.301   3.464  0.00  0.00    +0.002 A 
ENDBRANCH  19  24
ENDBRANCH   1  19
BRANCH   2  27
ATOM     27  C   UNL     1      -5.546   6.210   3.328  0.00  0.00    +0.193 C 
BRANCH  27  28
ATOM     28  C   UNL     1      -4.466   7.243   3.130  0.00  0.00    -0.011 A 
ATOM     29  C   UNL     1      -4.651   8.270   2.224  0.00  0.00    +0.006 A 
ATOM     30  C   UNL     1      -3.663   9.220   2.046  0.00  0.00    +0.003 A 
ATOM     31  C   UNL     1      -2.486   9.137   2.767  0.00  0.00    +0.033 A 
ATOM     32  C   UNL     1      -2.299   8.107   3.669  0.00  0.00    +0.127 A 
ATOM     33  C   UNL     1      -3.290   7.160   3.851  0.00  0.00    +0.039 A 
BRANCH  32  34
ATOM     34  N   UNL     1      -1.039   8.017   4.440  0.00  0.00    +0.056 N 
ATOM     35  O   UNL     1      -0.874   7.109   5.235  0.00  0.00    -0.126 OA
ATOM     36  O   UNL     1      -0.167   8.852   4.280  0.00  0.00    -0.126 OA
ENDBRANCH  32  34
ENDBRANCH  27  28
BRANCH  27  37
ATOM     37  O   UNL     1      -6.827   6.830   3.202  0.00  0.00    -0.381 OA
ATOM     38  H   UNL     1      -7.566   6.259   3.454  0.00  0.00    +0.211 HD
ENDBRANCH  27  37
ENDBRANCH   2  27
TORSDOF 8
