REMARK  Name = ZINC25581378
REMARK  4 active torsions:
REMARK  status: ('A' for Active; 'I' for Inactive)
REMARK    1  A    between atoms: C_1  and  C_2
REMARK    2  A    between atoms: C_2  and  C_4
REMARK    3  A    between atoms: C_2  and  N_9
REMARK    4  A    between atoms: C_11  and  N_16
REMARK                            x       y       z     vdW  Elec       q    Type
REMARK                         _______ _______ _______ _____ _____    ______ ____
ROOT
ATOM      1  N   UNL     1       0.053   5.185   0.090  0.00  0.00    -0.318 N 
ATOM      2  C   UNL     1      -0.001   3.796   0.052  0.00  0.00    +0.150 A 
ATOM      3  C   UNL     1       1.180   3.061   0.033  0.00  0.00    +0.166 A 
ATOM      4  C   UNL     1       1.112   1.680  -0.004  0.00  0.00    +0.038 A 
ATOM      5  C   UNL     1      -0.140   1.078  -0.021  0.00  0.00    +0.022 A 
ATOM      6  C   UNL     1      -1.270   1.870  -0.005  0.00  0.00    +0.113 A 
ATOM      7  N   UNL     1      -1.175   3.186   0.035  0.00  0.00    -0.238 NA
ATOM      8  H   UNL     1       1.022   5.700   0.009  0.00  0.00    +0.148 HD
ENDROOT
BRANCH   3   9
ATOM      9  N   UNL     1       2.381   3.688   0.050  0.00  0.00    +0.060 N 
ATOM     10  O   UNL     1       3.407   3.039   0.149  0.00  0.00    -0.126 OA
ATOM     11  O   UNL     1       2.435   4.902  -0.033  0.00  0.00    -0.126 OA
ENDBRANCH   3   9
BRANCH   1  13
ATOM     12  C   UNL     1      -1.532   6.082   1.721  0.00  0.00    +0.036 C 
ATOM     13  C   UNL     1      -1.180   5.962   0.237  0.00  0.00    +0.135 C 
BRANCH  13  14
ATOM     14  C   UNL     1      -0.979   7.338  -0.344  0.00  0.00    +0.125 A 
ATOM     15  C   UNL     1      -1.878   8.023  -1.073  0.00  0.00    +0.046 A 
ATOM     16  C   UNL     1      -1.278   9.259  -1.407  0.00  0.00    +0.041 A 
ATOM     17  C   UNL     1      -0.045   9.252  -0.870  0.00  0.00    +0.195 A 
ATOM     18  O   UNL     1       0.131   8.085  -0.227  0.00  0.00    -0.466 OA
ENDBRANCH  13  14
ENDBRANCH   1  13
TORSDOF 3
