REMARK  Name = ZINC12041229
REMARK  7 active torsions:
REMARK  status: ('A' for Active; 'I' for Inactive)
REMARK    1  A    between atoms: C_1  and  C_2
REMARK    2  A    between atoms: C_2  and  C_4
REMARK    3  A    between atoms: C_2  and  N_21
REMARK    4  A    between atoms: C_13  and  C_14
REMARK    5  A    between atoms: C_13  and  N_53
REMARK    6  A    between atoms: C_19  and  O_20
REMARK    7  A    between atoms: C_22  and  C_24
REMARK                            x       y       z     vdW  Elec       q    Type
REMARK                         _______ _______ _______ _____ _____    ______ ____
ROOT
ATOM      1  C   UNL     1       0.731  -0.503   1.223  0.00  0.00    +0.154 A 
ATOM      2  N   UNL     1       0.276  -0.513   2.449  0.00  0.00    -0.132 NA
ATOM      3  N   UNL     1       1.161  -1.020   3.236  0.00  0.00    -0.134 NA
ATOM      4  C   UNL     1       2.216  -1.350   2.550  0.00  0.00    +0.132 A 
ATOM      5  N   UNL     1       1.978  -1.019   1.257  0.00  0.00    -0.315 N 
ATOM      6  C   UNL     1       2.911  -1.182   0.142  0.00  0.00    +0.106 C 
ATOM      7  C   UNL     1       3.857  -2.347   0.444  0.00  0.00    -0.056 C 
ATOM      8  C   UNL     1       4.684  -1.264   2.460  0.00  0.00    -0.071 C 
ATOM      9  C   UNL     1       3.478  -1.998   3.056  0.00  0.00    +0.058 C 
ATOM     10  N   UNL     1       5.061  -1.885   1.172  0.00  0.00    +0.384 N 
ATOM     11  H   UNL     1       5.665  -2.694   1.360  0.00  0.00    -0.081 HD
ENDROOT
BRANCH   1  13
ATOM     12  C   UNL     1      -0.019   1.526   0.010  0.00  0.00    +0.036 C 
ATOM     13  C   UNL     1       0.002  -0.004   0.002  0.00  0.00    +0.138 C 
BRANCH  13  14
ATOM     14  N   UNL     1      -1.372  -0.511   0.012  0.00  0.00    -0.302 N 
ATOM     15  C   UNL     1      -2.051  -0.643  -1.145  0.00  0.00    +0.246 C 
ATOM     16  O   UNL     1      -1.522  -0.341  -2.197  0.00  0.00    -0.270 OA
ATOM     17  H   UNL     1      -1.794  -0.752   0.852  0.00  0.00    +0.150 HD
BRANCH  15  18
ATOM     18  C   UNL     1      -3.438  -1.154  -1.134  0.00  0.00    +0.055 A 
ATOM     19  C   UNL     1      -4.155  -1.290  -2.329  0.00  0.00    +0.016 A 
ATOM     20  C   UNL     1      -5.448  -1.779  -2.265  0.00  0.00    +0.020 A 
ATOM     21  C   UNL     1      -5.989  -2.105  -1.034  0.00  0.00    +0.111 A 
ATOM     22  N   UNL     1      -5.291  -1.961   0.076  0.00  0.00    -0.263 NA
ATOM     23  C   UNL     1      -4.056  -1.505   0.067  0.00  0.00    +0.123 A 
ENDBRANCH  15  18
ENDBRANCH  13  14
ENDBRANCH   1  13
BRANCH  10  24
ATOM     24  C   UNL     1       5.805  -0.916   0.347  0.00  0.00    -0.039 C 
BRANCH  24  25
ATOM     25  C   UNL     1       7.140  -0.657   0.997  0.00  0.00    -0.022 A 
ATOM     26  C   UNL     1       7.336   0.493   1.738  0.00  0.00    +0.005 A 
ATOM     27  C   UNL     1       8.560   0.731   2.335  0.00  0.00    +0.000 A 
ATOM     28  C   UNL     1       9.591  -0.180   2.193  0.00  0.00    +0.004 A 
ATOM     29  C   UNL     1       9.399  -1.331   1.454  0.00  0.00    +0.045 A 
ATOM     30  C   UNL     1       8.170  -1.575   0.857  0.00  0.00    +0.118 A 
BRANCH  30  31
ATOM     31  O   UNL     1       7.977  -2.709   0.134  0.00  0.00    -0.507 OA
ATOM     32  H   UNL     1       8.195  -2.619  -0.804  0.00  0.00    +0.292 HD
ENDBRANCH  30  31
ENDBRANCH  24  25
ENDBRANCH  10  24
TORSDOF 6
