REMARK  Name = ZINC44358047
REMARK  10 active torsions:
REMARK  status: ('A' for Active; 'I' for Inactive)
REMARK    1  A    between atoms: C_1  and  C_2
REMARK    2  A    between atoms: C_2  and  O_3
REMARK    3  A    between atoms: O_3  and  C_4
REMARK    4  A    between atoms: C_4  and  C_6
REMARK    5  A    between atoms: C_6  and  C_8
REMARK    6  A    between atoms: C_6  and  N_24
REMARK    7  A    between atoms: C_8  and  C_9
REMARK    8  A    between atoms: C_11  and  C_17
REMARK    9  A    between atoms: C_14  and  O_15
REMARK   10  A    between atoms: C_17  and  C_18
REMARK                            x       y       z     vdW  Elec       q    Type
REMARK                         _______ _______ _______ _____ _____    ______ ____
ROOT
ATOM      1  C   UNL     1       3.605  -2.550  -3.716  0.00  0.00    -0.006 A 
ATOM      2  C   UNL     1       4.232  -1.586  -4.480  0.00  0.00    +0.011 A 
ATOM      3  C   UNL     1       4.806  -1.926  -5.691  0.00  0.00    -0.042 A 
ATOM      4  C   UNL     1       4.754  -3.233  -6.140  0.00  0.00    +0.023 A 
ATOM      5  C   UNL     1       4.128  -4.202  -5.379  0.00  0.00    +0.060 A 
ATOM      6  C   UNL     1       3.555  -3.863  -4.161  0.00  0.00    +0.134 A 
ATOM      7 BR   UNL     1       4.056  -5.989  -5.994  0.00  0.00    -0.047 Br
ENDROOT
BRANCH   6   8
ATOM      8  O   UNL     1       2.943  -4.814  -3.408  0.00  0.00    -0.505 OA
ATOM      9  H   UNL     1       1.988  -4.871  -3.546  0.00  0.00    +0.292 HD
ENDBRANCH   6   8
BRANCH   1  10
ATOM     10  C   UNL     1       2.980  -2.178  -2.396  0.00  0.00    +0.033 C 
BRANCH  10  11
ATOM     11  C   UNL     1       3.945  -2.520  -1.260  0.00  0.00    +0.040 C 
BRANCH  11  12
ATOM     12  N   UNL     1       5.155  -1.695  -1.379  0.00  0.00    +0.387 N 
ATOM     13  H   UNL     1       4.908  -0.721  -1.288  0.00  0.00    -0.089 HD
ATOM     14  H   UNL     1       5.807  -1.946  -0.651  0.00  0.00    -0.089 HD
ATOM     15  H   UNL     1       5.580  -1.851  -2.281  0.00  0.00    -0.089 HD
ENDBRANCH  11  12
BRANCH  11  16
ATOM     16  C   UNL     1       3.280  -2.247   0.065  0.00  0.00    +0.293 C 
ATOM     17  O   UNL     1       3.525  -1.227   0.665  0.00  0.00    -0.253 OA
BRANCH  16  18
ATOM     18  O   UNL     1       2.414  -3.135   0.577  0.00  0.00    -0.466 OA
BRANCH  18  20
ATOM     19  C   UNL     1       0.870  -3.935   2.256  0.00  0.00    +0.048 C 
ATOM     20  C   UNL     1       1.821  -2.812   1.836  0.00  0.00    +0.228 C 
ENDBRANCH  18  20
ENDBRANCH  16  18
ENDBRANCH  11  16
ENDBRANCH  10  11
ENDBRANCH   1  10
BRANCH   3  21
ATOM     21  C   UNL     1       5.489  -0.872  -6.523  0.00  0.00    +0.070 C 
BRANCH  21  22
ATOM     22  C   UNL     1       6.945  -0.795  -6.141  0.00  0.00    -0.043 A 
ATOM     23  C   UNL     1       7.351   0.059  -5.133  0.00  0.00    +0.004 A 
ATOM     24  C   UNL     1       8.686   0.129  -4.782  0.00  0.00    +0.000 A 
ATOM     25  C   UNL     1       9.615  -0.655  -5.440  0.00  0.00    +0.000 A 
ATOM     26  C   UNL     1       9.209  -1.510  -6.448  0.00  0.00    +0.000 A 
ATOM     27  C   UNL     1       7.873  -1.583  -6.795  0.00  0.00    +0.004 A 
ENDBRANCH  21  22
ENDBRANCH   3  21
TORSDOF 9
