REMARK  Name = ZINC24107057
REMARK  8 active torsions:
REMARK  status: ('A' for Active; 'I' for Inactive)
REMARK    1  A    between atoms: C_1  and  C_2
REMARK    2  A    between atoms: C_6  and  O_8
REMARK    3  A    between atoms: O_8  and  C_9
REMARK    4  A    between atoms: C_9  and  C_10
REMARK    5  A    between atoms: C_10  and  C_11
REMARK    6  A    between atoms: C_11  and  N_12
REMARK    7  A    between atoms: C_15  and  C_19
REMARK    8  A    between atoms: C_15  and  C_20
REMARK                            x       y       z     vdW  Elec       q    Type
REMARK                         _______ _______ _______ _____ _____    ______ ____
ROOT
ATOM      1  N   UNL     1      -1.413  -1.998   0.005  0.00  0.00    -0.224 N 
ATOM      2  C   UNL     1      -1.419  -2.750  -1.114  0.00  0.00    +0.251 C 
ATOM      3  O   UNL     1      -1.441  -2.356  -2.260  0.00  0.00    -0.272 OA
ATOM      4  C   UNL     1      -1.391  -4.189  -0.641  0.00  0.00    +0.135 C 
ATOM      5  N   UNL     1      -1.379  -4.072   0.827  0.00  0.00    -0.281 N 
ATOM      6  C   UNL     1      -1.393  -2.756   1.107  0.00  0.00    +0.310 C 
ATOM      7  O   UNL     1      -1.388  -2.306   2.236  0.00  0.00    -0.252 OA
ATOM      8  C   UNL     1      -0.130  -4.901  -1.135  0.00  0.00    +0.047 C 
ATOM      9  H   UNL     1      -1.361  -4.977   1.451  0.00  0.00    +0.152 HD
ENDROOT
BRANCH   4  10
ATOM     10  C   UNL     1      -2.625  -4.920  -1.104  0.00  0.00    -0.015 A 
ATOM     11  C   UNL     1      -3.191  -4.598  -2.337  0.00  0.00    +0.007 A 
ATOM     12  C   UNL     1      -4.303  -5.242  -2.787  0.00  0.00    +0.009 A 
ATOM     13  C   UNL     1      -4.897  -6.239  -1.994  0.00  0.00    -0.018 A 
ATOM     14  C   UNL     1      -6.049  -6.921  -2.423  0.00  0.00    +0.008 A 
ATOM     15  C   UNL     1      -6.597  -7.881  -1.629  0.00  0.00    +0.001 A 
ATOM     16  C   UNL     1      -6.035  -8.198  -0.394  0.00  0.00    +0.001 A 
ATOM     17  C   UNL     1      -4.920  -7.559   0.053  0.00  0.00    +0.008 A 
ATOM     18  C   UNL     1      -4.325  -6.562  -0.739  0.00  0.00    -0.018 A 
ATOM     19  C   UNL     1      -3.174  -5.879  -0.310  0.00  0.00    +0.014 A 
ENDBRANCH   4  10
BRANCH   1  20
ATOM     20  C   UNL     1      -1.433  -0.534   0.013  0.00  0.00    +0.121 C 
BRANCH  20  21
ATOM     21  C   UNL     1       0.002  -0.004   0.002  0.00  0.00    +0.060 C 
BRANCH  21  22
ATOM     22  C   UNL     1      -0.019   1.526   0.010  0.00  0.00    +0.230 C 
BRANCH  22  23
ATOM     23  O   UNL     1       1.322   2.020   0.000  0.00  0.00    -0.492 OA
BRANCH  23  29
ATOM     24  C   UNL     1       4.299   5.888  -0.007  0.00  0.00    +0.044 C 
ATOM     25  C   UNL     1       2.916   5.291   0.003  0.00  0.00    -0.047 A 
ATOM     26  C   UNL     1       1.807   6.117   0.017  0.00  0.00    +0.003 A 
ATOM     27  C   UNL     1       0.536   5.573   0.026  0.00  0.00    +0.004 A 
ATOM     28  C   UNL     1       0.371   4.201   0.015  0.00  0.00    +0.045 A 
ATOM     29  C   UNL     1       1.482   3.370   0.006  0.00  0.00    +0.121 A 
ATOM     30  C   UNL     1       2.756   3.919  -0.003  0.00  0.00    +0.049 A 
ENDBRANCH  23  29
ENDBRANCH  22  23
ENDBRANCH  21  22
ENDBRANCH  20  21
ENDBRANCH   1  20
TORSDOF 6
