REMARK  Name = ZINC50653691
REMARK  6 active torsions:
REMARK  status: ('A' for Active; 'I' for Inactive)
REMARK    1  A    between atoms: C_1  and  C_2
REMARK    2  A    between atoms: C_7  and  N_10
REMARK    3  A    between atoms: N_10  and  S_11
REMARK    4  A    between atoms: S_11  and  C_14
REMARK    5  A    between atoms: C_16  and  N_23
REMARK    6  A    between atoms: C_19  and  N_20
REMARK                            x       y       z     vdW  Elec       q    Type
REMARK                         _______ _______ _______ _____ _____    ______ ____
ROOT
ATOM      1  S   UNL     1      -1.008  -4.082   1.973  0.00  0.00    +0.061 S 
ATOM      2  O   UNL     1      -2.359  -4.481   1.790  0.00  0.00    -0.153 OA
ATOM      3  O   UNL     1       0.087  -4.878   1.540  0.00  0.00    -0.153 OA
ENDROOT
BRANCH   1   4
ATOM      4  C   UNL     1      -0.789  -3.823   3.703  0.00  0.00    +0.137 A 
ATOM      5  C   UNL     1       0.266  -4.424   4.362  0.00  0.00    +0.053 A 
ATOM      6  C   UNL     1       0.438  -4.220   5.724  0.00  0.00    +0.027 A 
ATOM      7  C   UNL     1      -0.452  -3.411   6.420  0.00  0.00    +0.025 A 
ATOM      8  C   UNL     1      -1.504  -2.813   5.755  0.00  0.00    +0.036 A 
ATOM      9  C   UNL     1      -1.669  -3.015   4.397  0.00  0.00    +0.152 A 
BRANCH   9  10
ATOM     10  N   UNL     1      -2.795  -2.368   3.686  0.00  0.00    +0.058 N 
ATOM     11  O   UNL     1      -3.638  -1.766   4.310  0.00  0.00    -0.126 OA
ATOM     12  O   UNL     1      -2.872  -2.442   2.482  0.00  0.00    -0.126 OA
ENDBRANCH   9  10
BRANCH   6  13
ATOM     13  N   UNL     1       1.504  -4.826   6.394  0.00  0.00    -0.358 N 
ATOM     14  H   UNL     1       2.124  -5.391   5.907  0.00  0.00    +0.142 HD
ATOM     15  H   UNL     1       1.623  -4.682   7.346  0.00  0.00    +0.142 HD
ENDBRANCH   6  13
ENDBRANCH   1   4
BRANCH   1  16
ATOM     16  N   UNL     1      -0.845  -2.609   1.234  0.00  0.00    -0.187 NA
ATOM     17  H   UNL     1      -1.597  -2.217   0.763  0.00  0.00    +0.148 HD
BRANCH  16  23
ATOM     18  C   UNL     1      -0.864   1.575   0.255  0.00  0.00    +0.007 C 
ATOM     19  C   UNL     1      -0.607   0.070   0.158  0.00  0.00    -0.013 C 
ATOM     20  C   UNL     1       0.199  -0.231  -1.107  0.00  0.00    +0.003 C 
ATOM     21  C   UNL     1       0.456  -1.736  -1.203  0.00  0.00    +0.002 C 
ATOM     22  C   UNL     1       1.242  -2.199   0.026  0.00  0.00    +0.020 C 
ATOM     23  C   UNL     1       0.435  -1.899   1.290  0.00  0.00    +0.077 C 
ATOM     24  C   UNL     1       0.179  -0.393   1.387  0.00  0.00    +0.023 C 
ENDBRANCH  16  23
ENDBRANCH   1  16
TORSDOF 5
