REMARK  Name = ZINC39959114
REMARK  7 active torsions:
REMARK  status: ('A' for Active; 'I' for Inactive)
REMARK    1  A    between atoms: C_1  and  C_2
REMARK    2  A    between atoms: C_2  and  C_3
REMARK    3  A    between atoms: C_2  and  C_4
REMARK    4  A    between atoms: C_2  and  N_6
REMARK    5  A    between atoms: C_4  and  O_5
REMARK    6  A    between atoms: C_7  and  C_9
REMARK    7  A    between atoms: C_12  and  C_16
REMARK                            x       y       z     vdW  Elec       q    Type
REMARK                         _______ _______ _______ _____ _____    ______ ____
ROOT
ATOM      1  C   UNL     1       2.677  -0.618  -2.667  0.00  0.00    +0.297 C 
ATOM      2  N   UNL     1       2.923  -2.075  -2.568  0.00  0.00    -0.262 NA
ATOM      3  C   UNL     1       4.261  -2.258  -3.192  0.00  0.00    +0.180 C 
ATOM      4  N   UNL     1       4.983  -1.034  -2.755  0.00  0.00    -0.177 NA
ATOM      5  O   UNL     1       3.954   0.026  -2.786  0.00  0.00    -0.270 OA
ATOM      6  H   UNL     1       2.928  -2.376  -1.605  0.00  0.00    +0.127 HD
ATOM      7  H   UNL     1       5.742  -0.818  -3.383  0.00  0.00    +0.156 HD
ENDROOT
BRANCH   3   8
ATOM      8  C   UNL     1       4.932  -3.500  -2.664  0.00  0.00    -0.014 C 
ATOM      9  C   UNL     1       5.285  -4.504  -3.523  0.00  0.00    +0.012 C 
ATOM     10  C   UNL     1       5.958  -5.588  -2.932  0.00  0.00    -0.018 C 
ATOM     11  C   UNL     1       6.008  -6.899  -3.217  0.00  0.00    +0.025 C 
ATOM     12  C   UNL     1       6.593  -7.591  -2.133  0.00  0.00    +0.106 C 
ATOM     13  N   UNL     1       7.035  -6.780  -1.214  0.00  0.00    -0.279 NA
ATOM     14  C   UNL     1       6.811  -5.421  -1.684  0.00  0.00    +0.158 C 
ATOM     15  C   UNL     1       6.059  -4.534  -0.739  0.00  0.00    +0.004 C 
ATOM     16  C   UNL     1       5.212  -3.627  -1.237  0.00  0.00    +0.005 C 
ENDBRANCH   3   8
BRANCH   1  18
ATOM     17  N   UNL     1       0.688  -0.476  -1.203  0.00  0.00    -0.305 N 
ATOM     18  C   UNL     1       1.972  -0.132  -1.427  0.00  0.00    +0.259 C 
ATOM     19  O   UNL     1       2.559   0.569  -0.630  0.00  0.00    -0.271 OA
ATOM     20  H   UNL     1       0.218  -1.037  -1.840  0.00  0.00    +0.149 HD
BRANCH  17  22
ATOM     21  C   UNL     1      -0.019   1.526   0.010  0.00  0.00    +0.033 C 
ATOM     22  C   UNL     1       0.002  -0.004   0.002  0.00  0.00    +0.052 C 
ATOM     23  C   UNL     1       0.742  -0.511   1.242  0.00  0.00    +0.033 C 
BRANCH  22  24
ATOM     24  C   UNL     1      -1.433  -0.534   0.013  0.00  0.00    +0.181 C 
BRANCH  24  25
ATOM     25  O   UNL     1      -2.102  -0.073   1.189  0.00  0.00    -0.393 OA
ATOM     26  H   UNL     1      -3.019  -0.371   1.262  0.00  0.00    +0.209 HD
ENDBRANCH  24  25
ENDBRANCH  22  24
ENDBRANCH  17  22
ENDBRANCH   1  18
TORSDOF 5
