REMARK  Name = ZINC66365889
REMARK  8 active torsions:
REMARK  status: ('A' for Active; 'I' for Inactive)
REMARK    1  A    between atoms: C_1  and  C_2
REMARK    2  A    between atoms: C_2  and  C_3
REMARK    3  A    between atoms: C_3  and  C_5
REMARK    4  A    between atoms: C_3  and  N_8
REMARK    5  A    between atoms: C_5  and  C_6
REMARK    6  A    between atoms: C_5  and  C_7
REMARK    7  A    between atoms: N_11  and  N_12
REMARK    8  A    between atoms: C_13  and  C_15
REMARK                            x       y       z     vdW  Elec       q    Type
REMARK                         _______ _______ _______ _____ _____    ______ ____
ROOT
ATOM      1  N   UNL     1      -1.512   0.558  -4.640  0.00  0.00    -0.230 N 
ATOM      2  C   UNL     1      -2.223   0.911  -5.729  0.00  0.00    +0.273 C 
ATOM      3  O   UNL     1      -2.078   2.011  -6.218  0.00  0.00    -0.270 OA
ATOM      4  H   UNL     1      -1.629  -0.322  -4.249  0.00  0.00    +0.173 HD
ENDROOT
BRANCH   2   5
ATOM      5  C   UNL     1      -3.200  -0.062  -6.339  0.00  0.00    +0.297 C 
ATOM      6  C   UNL     1      -4.347  -0.328  -5.356  0.00  0.00    +0.283 C 
ATOM      7  O   UNL     1      -5.261  -1.242  -5.971  0.00  0.00    -0.484 OA
ATOM      8  C   UNL     1      -5.614  -0.981  -7.259  0.00  0.00    +0.162 A 
ATOM      9  C   UNL     1      -6.742  -1.587  -7.793  0.00  0.00    +0.049 A 
ATOM     10  C   UNL     1      -7.111  -1.334  -9.100  0.00  0.00    +0.004 A 
ATOM     11  C   UNL     1      -6.358  -0.476  -9.880  0.00  0.00    +0.004 A 
ATOM     12  C   UNL     1      -5.234   0.133  -9.354  0.00  0.00    +0.049 A 
ATOM     13  C   UNL     1      -4.859  -0.116  -8.042  0.00  0.00    +0.163 A 
ATOM     14  O   UNL     1      -3.753   0.496  -7.536  0.00  0.00    -0.472 OA
ENDBRANCH   2   5
BRANCH   1  18
ATOM     15  N   UNL     1      -0.055  -0.114  -2.441  0.00  0.00    -0.295 N 
ATOM     16  C   UNL     1       0.107   1.109  -2.984  0.00  0.00    +0.316 C 
ATOM     17  O   UNL     1       0.895   1.893  -2.492  0.00  0.00    -0.251 OA
ATOM     18  N   UNL     1      -0.604   1.462  -4.073  0.00  0.00    -0.218 N 
ATOM     19  H   UNL     1      -0.683  -0.740  -2.833  0.00  0.00    +0.151 HD
ATOM     20  H   UNL     1      -0.488   2.342  -4.464  0.00  0.00    +0.174 HD
BRANCH  15  21
ATOM     21  C   UNL     1       0.718  -0.497  -1.257  0.00  0.00    +0.077 C 
BRANCH  21  22
ATOM     22  C   UNL     1       0.849  -2.021  -1.205  0.00  0.00    +0.003 C 
ATOM     23  C   UNL     1       1.565  -2.514  -2.464  0.00  0.00    +0.009 C 
ATOM     24  C   UNL     1       1.657  -2.422   0.031  0.00  0.00    +0.009 C 
ENDBRANCH  21  22
BRANCH  21  26
ATOM     25  C   UNL     1      -0.019   1.526   0.010  0.00  0.00    +0.006 C 
ATOM     26  C   UNL     1       0.002  -0.004   0.002  0.00  0.00    +0.019 C 
ENDBRANCH  21  26
ENDBRANCH  15  21
ENDBRANCH   1  18
TORSDOF 5
