REMARK  Name = ZINC55996331
REMARK  10 active torsions:
REMARK  status: ('A' for Active; 'I' for Inactive)
REMARK    1  A    between atoms: C_1  and  C_2
REMARK    2  A    between atoms: N_8  and  C_9
REMARK    3  A    between atoms: C_9  and  C_10
REMARK    4  A    between atoms: C_15  and  C_16
REMARK    5  A    between atoms: C_16  and  N_17
REMARK    6  A    between atoms: C_18  and  C_20
REMARK    7  A    between atoms: C_20  and  C_21
REMARK    8  A    between atoms: C_20  and  C_22
REMARK    9  A    between atoms: C_20  and  N_23
REMARK   10  A    between atoms: N_26  and  C_27
REMARK                            x       y       z     vdW  Elec       q    Type
REMARK                         _______ _______ _______ _____ _____    ______ ____
ROOT
ATOM      1  C   UNL     1       0.865  -0.347   3.613  0.00  0.00    -0.059 A 
ATOM      2  C   UNL     1       0.458  -1.417   4.388  0.00  0.00    +0.002 A 
ATOM      3  C   UNL     1       1.190  -1.781   5.503  0.00  0.00    +0.000 A 
ATOM      4  C   UNL     1       2.329  -1.075   5.843  0.00  0.00    +0.000 A 
ATOM      5  C   UNL     1       2.736  -0.005   5.067  0.00  0.00    +0.005 A 
ATOM      6  C   UNL     1       2.007   0.356   3.950  0.00  0.00    -0.029 A 
ENDROOT
BRANCH   1   7
ATOM      7  C   UNL     1       0.067   0.050   2.397  0.00  0.00    -0.042 C 
BRANCH   7  14
ATOM      8  C   UNL     1      -0.019   1.526   0.010  0.00  0.00    -0.013 C 
ATOM      9  C   UNL     1       0.002  -0.004   0.002  0.00  0.00    -0.071 C 
ATOM     10  C   UNL     1       0.717  -0.497  -1.258  0.00  0.00    -0.016 C 
ATOM     11  C   UNL     1       0.735  -2.028  -1.262  0.00  0.00    -0.003 C 
ATOM     12  C   UNL     1       1.410  -2.524   0.020  0.00  0.00    -0.019 C 
ATOM     13  C   UNL     1       0.669  -1.956   1.232  0.00  0.00    -0.078 C 
ATOM     14  N   UNL     1       0.711  -0.490   1.192  0.00  0.00    +0.384 N 
ATOM     15  H   UNL     1       1.671  -0.182   1.159  0.00  0.00    -0.081 HD
ENDBRANCH   7  14
ENDBRANCH   1   7
BRANCH   6  16
ATOM     16  C   UNL     1       2.454   1.518   3.102  0.00  0.00    +0.139 C 
BRANCH  16  17
ATOM     17  N   UNL     1       1.666   2.705   3.445  0.00  0.00    -0.309 N 
ATOM     18  C   UNL     1       1.893   3.872   2.810  0.00  0.00    +0.236 C 
ATOM     19  O   UNL     1       2.749   3.939   1.953  0.00  0.00    -0.273 OA
ATOM     20  H   UNL     1       0.982   2.651   4.130  0.00  0.00    +0.149 HD
BRANCH  18  21
ATOM     21  C   UNL     1       1.083   5.092   3.163  0.00  0.00    +0.106 C 
ATOM     22  C   UNL     1       1.716   5.793   4.367  0.00  0.00    +0.041 C 
ATOM     23  C   UNL     1       1.057   6.050   1.970  0.00  0.00    +0.041 C 
BRANCH  21  24
ATOM     24  N   UNL     1      -0.286   4.690   3.497  0.00  0.00    -0.286 N 
ATOM     25  C   UNL     1      -1.195   5.621   3.846  0.00  0.00    +0.300 C 
ATOM     26  O   UNL     1      -0.880   6.795   3.885  0.00  0.00    -0.253 OA
ATOM     27  N   UNL     1      -2.454   5.251   4.153  0.00  0.00    -0.302 N 
ATOM     28  C   UNL     1      -3.443   6.263   4.534  0.00  0.00    +0.129 C 
ATOM     29  H   UNL     1      -0.537   3.754   3.466  0.00  0.00    +0.151 HD
ATOM     30  H   UNL     1      -2.706   4.315   4.122  0.00  0.00    +0.150 HD
ENDBRANCH  21  24
ENDBRANCH  18  21
ENDBRANCH  16  17
ENDBRANCH   6  16
TORSDOF 6
