REMARK  Name = ZINC58948659
REMARK  11 active torsions:
REMARK  status: ('A' for Active; 'I' for Inactive)
REMARK    1  A    between atoms: C_1  and  C_2
REMARK    2  A    between atoms: C_2  and  O_3
REMARK    3  A    between atoms: O_3  and  C_4
REMARK    4  A    between atoms: C_4  and  C_6
REMARK    5  A    between atoms: C_7  and  C_31
REMARK    6  A    between atoms: C_9  and  N_30
REMARK    7  A    between atoms: C_10  and  C_27
REMARK    8  A    between atoms: C_11  and  C_13
REMARK    9  A    between atoms: C_18  and  O_19
REMARK   10  A    between atoms: O_19  and  C_20
REMARK   11  A    between atoms: C_20  and  C_21
REMARK                            x       y       z     vdW  Elec       q    Type
REMARK                         _______ _______ _______ _____ _____    ______ ____
ROOT
ATOM      1  C   UNL     1      -2.792  -2.421   0.113  0.00  0.00    +0.086 C 
ATOM      2  C   UNL     1      -2.952  -3.731  -0.117  0.00  0.00    +0.115 C 
ATOM      3  O   UNL     1      -4.168  -4.292  -0.211  0.00  0.00    -0.446 OA
ATOM      4  C   UNL     1      -5.242  -3.652   0.282  0.00  0.00    +0.193 C 
ATOM      5  C   UNL     1      -5.217  -2.320   0.539  0.00  0.00    +0.083 C 
ATOM      6  C   UNL     1      -3.977  -1.510   0.282  0.00  0.00    +0.103 C 
ATOM      7  C   UNL     1      -1.731  -4.599  -0.273  0.00  0.00    +0.087 C 
ENDROOT
BRANCH   6   8
ATOM      8  C   UNL     1      -4.167  -0.697  -0.973  0.00  0.00    +0.007 A 
ATOM      9  C   UNL     1      -4.408  -1.331  -2.177  0.00  0.00    +0.008 A 
ATOM     10  C   UNL     1      -4.582  -0.586  -3.329  0.00  0.00    +0.001 A 
ATOM     11  C   UNL     1      -4.516   0.794  -3.279  0.00  0.00    +0.004 A 
ATOM     12  C   UNL     1      -4.276   1.432  -2.077  0.00  0.00    +0.046 A 
ATOM     13  C   UNL     1      -4.106   0.687  -0.919  0.00  0.00    +0.125 A 
BRANCH  13  14
ATOM     14  O   UNL     1      -3.876   1.313   0.265  0.00  0.00    -0.487 OA
BRANCH  14  15
ATOM     15  C   UNL     1      -3.826   2.741   0.245  0.00  0.00    +0.264 C 
BRANCH  15  16
ATOM     16  C   UNL     1      -3.564   3.254   1.638  0.00  0.00    -0.010 A 
ATOM     17  C   UNL     1      -4.622   3.527   2.485  0.00  0.00    +0.007 A 
ATOM     18  C   UNL     1      -4.380   3.998   3.762  0.00  0.00    +0.000 A 
ATOM     19  C   UNL     1      -3.082   4.194   4.193  0.00  0.00    +0.000 A 
ATOM     20  C   UNL     1      -2.024   3.920   3.346  0.00  0.00    +0.000 A 
ATOM     21  C   UNL     1      -2.265   3.445   2.070  0.00  0.00    +0.007 A 
ENDBRANCH  15  16
ENDBRANCH  14  15
ENDBRANCH  13  14
ENDBRANCH   6   8
BRANCH   5  22
ATOM     22  C   UNL     1      -6.363  -1.690   1.055  0.00  0.00    +0.243 C 
ATOM     23  O   UNL     1      -6.425  -1.414   2.240  0.00  0.00    -0.271 OA
ATOM     24  N   UNL     1      -7.394  -1.391   0.239  0.00  0.00    -0.325 N 
ATOM     25  H   UNL     1      -7.344  -1.611  -0.705  0.00  0.00    +0.145 HD
ATOM     26  H   UNL     1      -8.184  -0.957   0.595  0.00  0.00    +0.145 HD
ENDBRANCH   5  22
BRANCH   4  27
ATOM     27  N   UNL     1      -6.388  -4.361   0.532  0.00  0.00    -0.329 N 
ATOM     28  H   UNL     1      -6.394  -5.325   0.427  0.00  0.00    +0.145 HD
ATOM     29  H   UNL     1      -7.193  -3.898   0.814  0.00  0.00    +0.145 HD
ENDBRANCH   4  27
BRANCH   1  30
ATOM     30  C   UNL     1      -1.484  -1.885   0.203  0.00  0.00    +0.339 C 
ATOM     31  O   UNL     1      -0.985  -1.679   1.293  0.00  0.00    -0.245 OA
BRANCH  30  32
ATOM     32  O   UNL     1      -0.792  -1.603  -0.921  0.00  0.00    -0.462 OA
BRANCH  32  34
ATOM     33  C   UNL     1       1.145  -0.811  -2.129  0.00  0.00    +0.048 C 
ATOM     34  C   UNL     1       0.521  -1.064  -0.755  0.00  0.00    +0.229 C 
ENDBRANCH  32  34
ENDBRANCH  30  32
ENDBRANCH   1  30
TORSDOF 9
