REMARK  Name = ZINC40858863
REMARK  10 active torsions:
REMARK  status: ('A' for Active; 'I' for Inactive)
REMARK    1  A    between atoms: C_1  and  C_2
REMARK    2  A    between atoms: C_2  and  C_3
REMARK    3  A    between atoms: C_3  and  C_5
REMARK    4  A    between atoms: C_3  and  C_6
REMARK    5  A    between atoms: C_6  and  C_8
REMARK    6  A    between atoms: C_6  and  N_23
REMARK    7  A    between atoms: N_10  and  C_11
REMARK    8  A    between atoms: C_12  and  C_19
REMARK    9  A    between atoms: C_19  and  O_21
REMARK   10  A    between atoms: O_21  and  C_22
REMARK                            x       y       z     vdW  Elec       q    Type
REMARK                         _______ _______ _______ _____ _____    ______ ____
ROOT
ATOM      1  C   UNL     1       1.336  -2.509  -2.568  0.00  0.00    +0.203 C 
ATOM      2  O   UNL     1       0.695  -2.801  -3.556  0.00  0.00    -0.277 OA
ATOM      3  N   UNL     1       2.679  -2.620  -2.580  0.00  0.00    -0.281 N 
ATOM      4  H   UNL     1       3.192  -2.386  -1.790  0.00  0.00    +0.155 HD
ENDROOT
BRANCH   3   5
ATOM      5  C   UNL     1       3.328  -3.067  -3.720  0.00  0.00    +0.086 A 
ATOM      6  C   UNL     1       4.686  -3.247  -3.911  0.00  0.00    +0.091 A 
ATOM      7  C   UNL     1       5.120  -3.733  -5.221  0.00  0.00    -0.021 A 
ATOM      8  C   UNL     1       4.113  -3.946  -6.087  0.00  0.00    -0.004 A 
ATOM      9  S   UNL     1       2.646  -3.521  -5.184  0.00  0.00    -0.077 S 
ATOM     10  C   UNL     1       4.614  -4.441  -7.417  0.00  0.00    +0.043 C 
ATOM     11  C   UNL     1       6.122  -4.107  -7.416  0.00  0.00    +0.010 C 
ATOM     12  C   UNL     1       6.438  -4.084  -5.906  0.00  0.00    +0.037 C 
BRANCH   6  13
ATOM     13  C   UNL     1       5.650  -2.961  -2.847  0.00  0.00    +0.342 C 
ATOM     14  O   UNL     1       5.968  -3.835  -2.063  0.00  0.00    -0.245 OA
BRANCH  13  15
ATOM     15  O   UNL     1       6.186  -1.728  -2.736  0.00  0.00    -0.464 OA
ATOM     16  C   UNL     1       7.120  -1.520  -1.674  0.00  0.00    +0.280 C 
ENDBRANCH  13  15
ENDBRANCH   6  13
ENDBRANCH   3   5
BRANCH   1  17
ATOM     17  C   UNL     1       0.630  -2.023  -1.329  0.00  0.00    +0.016 C 
BRANCH  17  18
ATOM     18  N   UNL     1      -0.780  -2.431  -1.376  0.00  0.00    +0.386 N 
ATOM     19  H   UNL     1      -1.219  -2.030  -2.192  0.00  0.00    -0.089 HD
ATOM     20  H   UNL     1      -0.838  -3.437  -1.423  0.00  0.00    -0.089 HD
ATOM     21  H   UNL     1      -1.252  -2.105  -0.546  0.00  0.00    -0.089 HD
ENDBRANCH  17  18
BRANCH  17  22
ATOM     22  C   UNL     1       0.718  -0.497  -1.257  0.00  0.00    -0.020 C 
ATOM     23  C   UNL     1       2.187  -0.073  -1.207  0.00  0.00    +0.006 C 
BRANCH  22  25
ATOM     24  C   UNL     1      -0.019   1.526   0.010  0.00  0.00    +0.004 C 
ATOM     25  C   UNL     1       0.002  -0.004   0.002  0.00  0.00    -0.001 C 
ENDBRANCH  22  25
ENDBRANCH  17  22
ENDBRANCH   1  17
TORSDOF 7
