REMARK  Name = ZINC40796672
REMARK  6 active torsions:
REMARK  status: ('A' for Active; 'I' for Inactive)
REMARK    1  A    between atoms: C_1  and  C_2
REMARK    2  A    between atoms: C_5  and  C_8
REMARK    3  A    between atoms: C_8  and  C_10
REMARK    4  A    between atoms: C_11  and  N_19
REMARK    5  A    between atoms: C_20  and  C_22
REMARK    6  A    between atoms: C_22  and  C_33
REMARK                            x       y       z     vdW  Elec       q    Type
REMARK                         _______ _______ _______ _____ _____    ______ ____
ROOT
ATOM      1  C   UNL     1       0.521  -4.964   1.195  0.00  0.00    +0.197 A 
ATOM      2  C   UNL     1       0.341  -6.329   1.306  0.00  0.00    +0.091 A 
ATOM      3  C   UNL     1       0.133  -6.588   2.736  0.00  0.00    +0.042 A 
ATOM      4  C   UNL     1      -0.100  -7.740   3.488  0.00  0.00    +0.013 A 
ATOM      5  C   UNL     1      -0.257  -7.646   4.843  0.00  0.00    +0.001 A 
ATOM      6  C   UNL     1      -0.184  -6.411   5.473  0.00  0.00    +0.004 A 
ATOM      7  C   UNL     1       0.045  -5.262   4.747  0.00  0.00    +0.047 A 
ATOM      8  C   UNL     1       0.207  -5.335   3.368  0.00  0.00    +0.138 A 
ATOM      9  O   UNL     1       0.443  -4.403   2.423  0.00  0.00    -0.450 OA
ENDROOT
BRANCH   2  10
ATOM     10  N   UNL     1       0.354  -7.263   0.279  0.00  0.00    -0.278 N 
ATOM     11  C   UNL     1       0.690  -8.543   0.535  0.00  0.00    +0.270 C 
ATOM     12  O   UNL     1       1.045  -8.865   1.649  0.00  0.00    -0.271 OA
ATOM     13  H   UNL     1       0.122  -6.994  -0.624  0.00  0.00    +0.155 HD
BRANCH  11  14
ATOM     14  C   UNL     1       0.624  -9.573  -0.562  0.00  0.00    +0.258 C 
ATOM     15  C   UNL     1       0.439 -10.941   0.045  0.00  0.00    +0.270 C 
ATOM     16  O   UNL     1       1.405 -11.634   0.291  0.00  0.00    -0.271 OA
ATOM     17  N   UNL     1      -0.804 -11.392   0.314  0.00  0.00    -0.279 N 
ATOM     18  C   UNL     1      -1.910 -10.633  -0.092  0.00  0.00    +0.076 A 
ATOM     19  C   UNL     1      -3.182 -10.943   0.360  0.00  0.00    +0.027 A 
ATOM     20  C   UNL     1      -4.261 -10.176  -0.040  0.00  0.00    +0.002 A 
ATOM     21  C   UNL     1      -4.073  -9.101  -0.889  0.00  0.00    +0.004 A 
ATOM     22  C   UNL     1      -2.806  -8.789  -1.348  0.00  0.00    +0.047 A 
ATOM     23  C   UNL     1      -1.722  -9.556  -0.956  0.00  0.00    +0.144 A 
ATOM     24  O   UNL     1      -0.476  -9.278  -1.426  0.00  0.00    -0.465 OA
ATOM     25  C   UNL     1       1.925  -9.545  -1.366  0.00  0.00    +0.076 C 
ATOM     26  H   UNL     1      -0.931 -12.232   0.783  0.00  0.00    +0.155 HD
ENDBRANCH  11  14
ENDBRANCH   2  10
BRANCH   1  27
ATOM     27  C   UNL     1       0.755  -4.264  -0.013  0.00  0.00    +0.230 C 
ATOM     28  O   UNL     1       0.719  -4.856  -1.077  0.00  0.00    -0.283 OA
BRANCH  27  33
ATOM     29  C   UNL     1       1.878   1.380   0.104  0.00  0.00    +0.044 C 
ATOM     30  C   UNL     1       1.584  -0.098   0.073  0.00  0.00    -0.050 A 
ATOM     31  C   UNL     1       1.672  -0.793  -1.120  0.00  0.00    +0.004 A 
ATOM     32  C   UNL     1       1.405  -2.146  -1.155  0.00  0.00    +0.012 A 
ATOM     33  C   UNL     1       1.044  -2.813   0.017  0.00  0.00    +0.025 A 
ATOM     34  C   UNL     1       0.958  -2.106   1.217  0.00  0.00    +0.012 A 
ATOM     35  C   UNL     1       1.233  -0.754   1.240  0.00  0.00    +0.004 A 
ENDBRANCH  27  33
ENDBRANCH   1  27
TORSDOF 4
