REMARK  Name = ZINC59093128
REMARK  10 active torsions:
REMARK  status: ('A' for Active; 'I' for Inactive)
REMARK    1  A    between atoms: C_1  and  C_2
REMARK    2  A    between atoms: C_2  and  C_30
REMARK    3  A    between atoms: C_4  and  N_10
REMARK    4  A    between atoms: C_6  and  C_8
REMARK    5  A    between atoms: C_6  and  C_9
REMARK    6  A    between atoms: N_10  and  C_11
REMARK    7  A    between atoms: N_10  and  C_19
REMARK    8  A    between atoms: C_11  and  C_12
REMARK    9  A    between atoms: C_19  and  N_21
REMARK   10  A    between atoms: N_21  and  C_22
REMARK                            x       y       z     vdW  Elec       q    Type
REMARK                         _______ _______ _______ _____ _____    ______ ____
ROOT
ATOM      1  N   UNL     1      -2.862  -2.429   0.168  0.00  0.00    -0.305 N 
ENDROOT
BRANCH   1   5
ATOM      2  C   UNL     1       1.815  -3.922   0.214  0.00  0.00    -0.010 C 
ATOM      3  C   UNL     1       0.925  -2.657   0.206  0.00  0.00    -0.072 C 
ATOM      4  C   UNL     1      -0.523  -3.117   0.331  0.00  0.00    +0.009 C 
ATOM      5  C   UNL     1      -1.477  -1.952   0.072  0.00  0.00    +0.073 C 
ATOM      6  C   UNL     1      -1.220  -1.431  -1.342  0.00  0.00    +0.009 C 
ATOM      7  C   UNL     1       0.223  -0.957  -1.480  0.00  0.00    -0.072 C 
ATOM      8  N   UNL     1       1.195  -1.935  -1.025  0.00  0.00    +0.386 N 
ATOM      9  C   UNL     1       0.400   0.382  -0.756  0.00  0.00    -0.010 C 
ATOM     10  C   UNL     1       0.483  -0.698  -2.982  0.00  0.00    -0.010 C 
ATOM     11  C   UNL     1       1.314  -1.827   1.434  0.00  0.00    -0.010 C 
ATOM     12  H   UNL     1       2.102  -1.467  -0.931  0.00  0.00    -0.084 HD
ATOM     13  H   UNL     1       1.333  -2.621  -1.774  0.00  0.00    -0.084 HD
ENDBRANCH   1   5
BRANCH   1  14
ATOM     14  C   UNL     1      -3.658  -1.992   1.164  0.00  0.00    +0.138 C 
ATOM     15  S   UNL     1      -5.242  -2.621   1.332  0.00  0.00    -0.018 S 
BRANCH  14  16
ATOM     16  N   UNL     1      -3.208  -1.060   2.027  0.00  0.00    -0.294 N 
ATOM     17  H   UNL     1      -2.895  -1.325   2.906  0.00  0.00    +0.154 HD
BRANCH  16  18
ATOM     18  C   UNL     1      -3.192   0.290   1.655  0.00  0.00    +0.068 A 
ATOM     19  C   UNL     1      -3.745   0.684   0.444  0.00  0.00    +0.029 A 
ATOM     20  C   UNL     1      -3.729   2.016   0.078  0.00  0.00    +0.040 A 
ATOM     21  C   UNL     1      -3.162   2.960   0.919  0.00  0.00    +0.126 A 
ATOM     22  C   UNL     1      -2.610   2.571   2.127  0.00  0.00    +0.078 A 
ATOM     23  C   UNL     1      -2.629   1.239   2.500  0.00  0.00    +0.147 A 
ATOM     24  F   UNL     1      -2.095   0.860   3.682  0.00  0.00    -0.203 F 
ATOM     25  F   UNL     1      -3.148   4.262   0.558  0.00  0.00    -0.205 F 
ENDBRANCH  16  18
ENDBRANCH  14  16
ENDBRANCH   1  14
BRANCH   1  26
ATOM     26  C   UNL     1      -3.379  -3.381  -0.819  0.00  0.00    +0.142 C 
BRANCH  26  27
ATOM     27  C   UNL     1      -3.184  -4.786  -0.312  0.00  0.00    -0.030 A 
ATOM     28  C   UNL     1      -2.086  -5.521  -0.719  0.00  0.00    +0.008 A 
ATOM     29  C   UNL     1      -1.906  -6.810  -0.254  0.00  0.00    +0.038 A 
ATOM     30  C   UNL     1      -2.826  -7.365   0.620  0.00  0.00    +0.123 A 
ATOM     31  C   UNL     1      -3.925  -6.628   1.027  0.00  0.00    +0.038 A 
ATOM     32  C   UNL     1      -4.100  -5.337   0.565  0.00  0.00    +0.008 A 
ATOM     33  F   UNL     1      -2.651  -8.625   1.074  0.00  0.00    -0.205 F 
ENDBRANCH  26  27
ENDBRANCH   1  26
TORSDOF 6
