REMARK  Name = ZINC13639872
REMARK  6 active torsions:
REMARK  status: ('A' for Active; 'I' for Inactive)
REMARK    1  A    between atoms: C_1  and  C_2
REMARK    2  A    between atoms: N_5  and  S_8
REMARK    3  A    between atoms: S_8  and  C_11
REMARK    4  A    between atoms: C_24  and  C_27
REMARK    5  A    between atoms: C_30  and  O_34
REMARK    6  A    between atoms: C_32  and  O_33
REMARK                            x       y       z     vdW  Elec       q    Type
REMARK                         _______ _______ _______ _____ _____    ______ ____
ROOT
ATOM      1  C   UNL     1       3.496   3.732  -0.041  0.00  0.00    +0.106 A 
ATOM      2  C   UNL     1       2.262   4.356  -0.003  0.00  0.00    +0.030 A 
ATOM      3  C   UNL     1       1.105   3.604   0.018  0.00  0.00    +0.025 A 
ATOM      4  C   UNL     1       1.170   2.216   0.003  0.00  0.00    +0.031 A 
ATOM      5  C   UNL     1       2.422   1.591  -0.024  0.00  0.00    -0.018 A 
ATOM      6  C   UNL     1       3.571   2.351  -0.051  0.00  0.00    +0.034 A 
ATOM      7  C   UNL     1       2.447   0.113  -0.018  0.00  0.00    +0.049 C 
ATOM      8  C   UNL     1       3.571  -0.688  -0.594  0.00  0.00    -0.023 C 
ATOM      9  C   UNL     1       3.091  -1.824  -1.084  0.00  0.00    -0.030 C 
ATOM     10  C   UNL     1       1.575  -1.882  -0.883  0.00  0.00    +0.033 C 
ATOM     11  C   UNL     1       1.214  -0.391  -0.826  0.00  0.00    +0.029 C 
ATOM     12  C   UNL     1       0.002  -0.004   0.002  0.00  0.00    +0.108 C 
ATOM     13  N   UNL     1      -0.018   1.475   0.010  0.00  0.00    -0.336 N 
ATOM     14  H   UNL     1      -0.869   1.940   0.017  0.00  0.00    +0.147 HD
ENDROOT
BRANCH  12  15
ATOM     15  C   UNL     1      -1.255  -0.538  -0.634  0.00  0.00    +0.015 A 
ATOM     16  C   UNL     1      -1.954   0.237  -1.540  0.00  0.00    +0.012 A 
ATOM     17  C   UNL     1      -3.107  -0.250  -2.125  0.00  0.00    +0.046 A 
ATOM     18  C   UNL     1      -3.566  -1.520  -1.804  0.00  0.00    +0.120 A 
ATOM     19  C   UNL     1      -2.867  -2.300  -0.895  0.00  0.00    +0.091 A 
ATOM     20  C   UNL     1      -1.708  -1.810  -0.314  0.00  0.00    +0.125 A 
BRANCH  20  21
ATOM     21  O   UNL     1      -1.017  -2.574   0.573  0.00  0.00    -0.506 OA
ATOM     22  H   UNL     1      -1.295  -2.459   1.492  0.00  0.00    +0.292 HD
ENDBRANCH  20  21
BRANCH  18  23
ATOM     23  O   UNL     1      -4.701  -1.999  -2.379  0.00  0.00    -0.507 OA
ATOM     24  H   UNL     1      -4.551  -2.477  -3.206  0.00  0.00    +0.292 HD
ENDBRANCH  18  23
ENDBRANCH  12  15
BRANCH   1  25
ATOM     25  S   UNL     1       4.970   4.695  -0.076  0.00  0.00    +0.061 S 
ATOM     26  O   UNL     1       4.645   5.957   0.492  0.00  0.00    -0.153 OA
ATOM     27  O   UNL     1       6.006   3.871   0.442  0.00  0.00    -0.153 OA
BRANCH  25  32
ATOM     28  C   UNL     1       4.353   4.425  -5.770  0.00  0.00    +0.007 C 
ATOM     29  C   UNL     1       5.053   4.852  -4.478  0.00  0.00    -0.012 C 
ATOM     30  C   UNL     1       4.097   5.701  -3.637  0.00  0.00    +0.020 C 
ATOM     31  C   UNL     1       4.812   6.155  -2.361  0.00  0.00    +0.110 C 
ATOM     32  N   UNL     1       5.337   4.972  -1.667  0.00  0.00    -0.177 NA
ATOM     33  C   UNL     1       6.199   4.042  -2.409  0.00  0.00    +0.110 C 
ATOM     34  C   UNL     1       5.463   3.609  -3.687  0.00  0.00    +0.020 C 
ENDBRANCH  25  32
ENDBRANCH   1  25
TORSDOF 5
