REMARK  Name = ZINC52955702
REMARK  11 active torsions:
REMARK  status: ('A' for Active; 'I' for Inactive)
REMARK    1  A    between atoms: C_1  and  C_2
REMARK    2  A    between atoms: C_2  and  C_3
REMARK    3  A    between atoms: C_3  and  C_4
REMARK    4  A    between atoms: C_4  and  N_5
REMARK    5  A    between atoms: C_6  and  N_30
REMARK    6  A    between atoms: C_7  and  N_14
REMARK    7  A    between atoms: N_14  and  C_15
REMARK    8  A    between atoms: C_15  and  C_16
REMARK    9  A    between atoms: C_17  and  C_19
REMARK   10  A    between atoms: C_20  and  C_29
REMARK   11  A    between atoms: C_25  and  C_28
REMARK                            x       y       z     vdW  Elec       q    Type
REMARK                         _______ _______ _______ _____ _____    ______ ____
ROOT
ATOM      1  N   UNL     1       2.039  -2.248   4.769  0.00  0.00    -0.280 N 
ATOM      2  C   UNL     1       3.376  -2.392   4.478  0.00  0.00    +0.127 A 
ATOM      3  C   UNL     1       3.759  -3.281   3.495  0.00  0.00    +0.140 A 
ATOM      4  C   UNL     1       2.767  -4.015   2.818  0.00  0.00    +0.277 A 
ATOM      5  O   UNL     1       3.078  -4.808   1.945  0.00  0.00    -0.266 OA
ATOM      6  N   UNL     1       1.471  -3.836   3.141  0.00  0.00    -0.273 N 
ATOM      7  H   UNL     1       0.787  -4.341   2.675  0.00  0.00    +0.173 HD
ATOM      8  C   UNL     1       1.117  -2.969   4.105  0.00  0.00    +0.331 A 
ATOM      9  O   UNL     1      -0.060  -2.830   4.380  0.00  0.00    -0.246 OA
ENDROOT
BRANCH   3  10
ATOM     10  N   UNL     1       5.122  -3.451   3.174  0.00  0.00    -0.258 N 
ATOM     11  C   UNL     1       5.578  -3.090   1.958  0.00  0.00    +0.287 C 
ATOM     12  O   UNL     1       4.802  -2.687   1.112  0.00  0.00    -0.266 OA
BRANCH  11  13
ATOM     13  C   UNL     1       7.013  -3.181   1.655  0.00  0.00    +0.194 A 
ATOM     14  C   UNL     1       7.601  -2.734   0.515  0.00  0.00    +0.008 A 
ATOM     15  C   UNL     1       9.026  -3.033   0.651  0.00  0.00    +0.024 A 
ATOM     16  C   UNL     1      10.145  -2.830  -0.161  0.00  0.00    +0.012 A 
ATOM     17  C   UNL     1      11.376  -3.238   0.269  0.00  0.00    +0.001 A 
ATOM     18  C   UNL     1      11.522  -3.852   1.506  0.00  0.00    +0.007 A 
ATOM     19  C   UNL     1      10.431  -4.061   2.321  0.00  0.00    -0.008 A 
ATOM     20  C   UNL     1       9.168  -3.655   1.905  0.00  0.00    +0.139 A 
ATOM     21  O   UNL     1       7.947  -3.716   2.470  0.00  0.00    -0.450 OA
ATOM     22  C   UNL     1      10.607  -4.729   3.661  0.00  0.00    +0.047 C 
ATOM     23  C   UNL     1       6.922  -2.066  -0.652  0.00  0.00    +0.048 C 
ENDBRANCH  11  13
BRANCH  10  24
ATOM     24  C   UNL     1       6.041  -4.022   4.162  0.00  0.00    +0.111 C 
ATOM     25  C   UNL     1       6.205  -5.520   3.900  0.00  0.00    +0.025 C 
ENDBRANCH  10  24
ENDBRANCH   3  10
BRANCH   2  26
ATOM     26  N   UNL     1       4.318  -1.659   5.159  0.00  0.00    -0.343 N 
ATOM     27  H   UNL     1       4.039  -0.985   5.799  0.00  0.00    +0.144 HD
ATOM     28  H   UNL     1       5.262  -1.816   5.000  0.00  0.00    +0.144 HD
ENDBRANCH   2  26
BRANCH   1  29
ATOM     29  C   UNL     1       1.617  -1.308   5.810  0.00  0.00    +0.128 C 
BRANCH  29  30
ATOM     30  C   UNL     1       1.578  -2.027   7.160  0.00  0.00    +0.021 C 
BRANCH  30  32
ATOM     31  C   UNL     1       1.099  -1.764   9.598  0.00  0.00    +0.004 C 
ATOM     32  C   UNL     1       1.138  -1.045   8.248  0.00  0.00    -0.002 C 
ENDBRANCH  30  32
ENDBRANCH  29  30
ENDBRANCH   1  29
TORSDOF 7
