REMARK  Name = ZINC20566266
REMARK  6 active torsions:
REMARK  status: ('A' for Active; 'I' for Inactive)
REMARK    1  A    between atoms: C_1  and  C_2
REMARK    2  A    between atoms: C_2  and  C_3
REMARK    3  A    between atoms: C_3  and  C_4
REMARK    4  A    between atoms: C_4  and  N_5
REMARK    5  A    between atoms: C_10  and  C_28
REMARK    6  A    between atoms: C_28  and  C_29
REMARK                            x       y       z     vdW  Elec       q    Type
REMARK                         _______ _______ _______ _____ _____    ______ ____
ROOT
ATOM      1  N   UNL     1      -2.787  -2.571   0.015  0.00  0.00    -0.242 N 
ATOM      2  C   UNL     1      -3.457  -2.822   1.145  0.00  0.00    +0.227 C 
ATOM      3  O   UNL     1      -3.023  -2.664   2.266  0.00  0.00    -0.275 OA
ATOM      4  C   UNL     1      -4.840  -3.332   0.807  0.00  0.00    +0.107 C 
ATOM      5  C   UNL     1      -4.945  -4.818   1.213  0.00  0.00    +0.076 C 
ATOM      6  N   UNL     1      -5.582  -5.486   0.048  0.00  0.00    -0.295 NA
ATOM      7  C   UNL     1      -4.981  -4.822  -1.123  0.00  0.00    +0.136 C 
ATOM      8  C   UNL     1      -4.853  -3.325  -0.747  0.00  0.00    +0.122 C 
ATOM      9  C   UNL     1      -3.477  -2.815  -1.105  0.00  0.00    +0.228 C 
ATOM     10  O   UNL     1      -3.061  -2.655  -2.233  0.00  0.00    -0.275 OA
ATOM     11  C   UNL     1      -3.651  -5.427  -1.476  0.00  0.00    +0.005 A 
ATOM     12  C   UNL     1      -2.466  -5.576  -0.792  0.00  0.00    +0.008 A 
ATOM     13  C   UNL     1      -1.387  -6.194  -1.399  0.00  0.00    +0.002 A 
ATOM     14  C   UNL     1      -1.502  -6.660  -2.697  0.00  0.00    +0.022 A 
ATOM     15  C   UNL     1      -2.688  -6.512  -3.388  0.00  0.00    +0.062 A 
ATOM     16  C   UNL     1      -3.779  -5.891  -2.782  0.00  0.00    +0.057 A 
ATOM     17  N   UNL     1      -5.064  -5.628  -3.265  0.00  0.00    -0.282 N 
ATOM     18  C   UNL     1      -5.831  -5.002  -2.351  0.00  0.00    +0.243 C 
ATOM     19  O   UNL     1      -6.984  -4.652  -2.492  0.00  0.00    -0.273 OA
ATOM     20 CL   UNL     1      -2.821  -7.101  -5.015  0.00  0.00    -0.082 Cl
ATOM     21  H   UNL     1      -5.383  -6.475   0.045  0.00  0.00    +0.124 HD
ATOM     22  H   UNL     1      -5.367  -5.867  -4.154  0.00  0.00    +0.155 HD
ENDROOT
BRANCH   1  23
ATOM     23  C   UNL     1      -1.413  -2.063   0.004  0.00  0.00    +0.116 C 
BRANCH  23  24
ATOM     24  C   UNL     1      -1.433  -0.534   0.013  0.00  0.00    +0.019 C 
BRANCH  24  26
ATOM     25  C   UNL     1      -0.019   1.526   0.010  0.00  0.00    +0.004 C 
ATOM     26  C   UNL     1       0.002  -0.004   0.002  0.00  0.00    -0.002 C 
ENDBRANCH  24  26
ENDBRANCH  23  24
ENDBRANCH   1  23
BRANCH   5  27
ATOM     27  C   UNL     1      -5.818  -4.969   2.461  0.00  0.00    +0.115 C 
BRANCH  27  28
ATOM     28  C   UNL     1      -5.806  -6.407   2.910  0.00  0.00    +0.212 C 
ATOM     29  O   UNL     1      -5.164  -7.230   2.293  0.00  0.00    -0.276 OA
ATOM     30  N   UNL     1      -6.511  -6.779   3.997  0.00  0.00    -0.329 N 
ATOM     31  H   UNL     1      -7.025  -6.121   4.490  0.00  0.00    +0.145 HD
ATOM     32  H   UNL     1      -6.504  -7.705   4.287  0.00  0.00    +0.145 HD
ENDBRANCH  27  28
ENDBRANCH   5  27
TORSDOF 5
