REMARK  Name = ZINC11677168
REMARK  8 active torsions:
REMARK  status: ('A' for Active; 'I' for Inactive)
REMARK    1  A    between atoms: C_1  and  C_2
REMARK    2  A    between atoms: C_4  and  O_40
REMARK    3  A    between atoms: C_14  and  C_25
REMARK    4  A    between atoms: C_16  and  C_18
REMARK    5  A    between atoms: C_16  and  C_19
REMARK    6  A    between atoms: C_25  and  C_27
REMARK    7  A    between atoms: C_27  and  O_28
REMARK    8  A    between atoms: C_37  and  C_38
REMARK                            x       y       z     vdW  Elec       q    Type
REMARK                         _______ _______ _______ _____ _____    ______ ____
ROOT
ATOM      1  C   UNL     1       1.070   7.944   0.463  0.00  0.00    +0.015 C 
ATOM      2  C   UNL     1      -0.032   7.464   1.417  0.00  0.00    +0.012 C 
ATOM      3  C   UNL     1      -1.390   7.574   0.749  0.00  0.00    +0.044 C 
ATOM      4  C   UNL     1      -1.849   6.193   0.239  0.00  0.00    +0.154 C 
ATOM      5  C   UNL     1      -0.672   5.431  -0.366  0.00  0.00    +0.153 C 
ATOM      6  C   UNL     1       0.300   5.029   0.764  0.00  0.00    +0.034 C 
ATOM      7  C   UNL     1       0.199   5.999   1.865  0.00  0.00    +0.007 C 
ATOM      8  C   UNL     1       1.265   6.124   2.978  0.00  0.00    +0.039 C 
ATOM      9  C   UNL     1       0.499   7.146   3.759  0.00  0.00    +0.162 C 
ATOM     10  C   UNL     1       0.151   8.273   2.706  0.00  0.00    +0.164 C 
ATOM     11  O   UNL     1      -0.978   8.796   3.408  0.00  0.00    -0.328 OA
ATOM     12  C   UNL     1      -0.586   8.738   4.813  0.00  0.00    +0.195 C 
ATOM     13  O   UNL     1       0.591   7.870   4.915  0.00  0.00    -0.338 OA
ATOM     14  C   UNL     1      -0.252  10.137   5.335  0.00  0.00    +0.080 C 
ATOM     15  C   UNL     1       1.668   4.693   0.206  0.00  0.00    +0.011 C 
ATOM     16  C   UNL     1       1.475   3.790  -1.029  0.00  0.00    +0.032 C 
ATOM     17  C   UNL     1       0.082   3.192  -0.932  0.00  0.00    -0.053 C 
ATOM     18  C   UNL     1      -0.068   1.893  -0.734  0.00  0.00    +0.051 C 
ATOM     19  C   UNL     1      -1.423   1.324  -0.612  0.00  0.00    +0.179 C 
ATOM     20  O   UNL     1      -1.614   0.125  -0.707  0.00  0.00    -0.288 OA
ATOM     21  C   UNL     1      -2.530   2.260  -0.337  0.00  0.00    +0.047 C 
ATOM     22  C   UNL     1      -2.361   3.562  -0.550  0.00  0.00    -0.009 C 
ATOM     23  C   UNL     1      -1.091   4.136  -1.078  0.00  0.00    +0.044 C 
ATOM     24  C   UNL     1      -1.281   4.444  -2.572  0.00  0.00    +0.023 C 
ATOM     25  F   UNL     1      -0.019   6.234  -1.319  0.00  0.00    -0.238 F 
ENDROOT
BRANCH  12  26
ATOM     26  C   UNL     1      -1.713   8.167   5.634  0.00  0.00    +0.011 A 
ATOM     27  C   UNL     1      -3.024   8.365   5.240  0.00  0.00    +0.009 A 
ATOM     28  C   UNL     1      -4.058   7.837   5.990  0.00  0.00    +0.000 A 
ATOM     29  C   UNL     1      -3.782   7.121   7.140  0.00  0.00    +0.000 A 
ATOM     30  C   UNL     1      -2.472   6.928   7.537  0.00  0.00    +0.000 A 
ATOM     31  C   UNL     1      -1.438   7.451   6.784  0.00  0.00    +0.009 A 
ENDBRANCH  12  26
BRANCH  10  32
ATOM     32  C   UNL     1       1.259   9.283   2.532  0.00  0.00    +0.193 C 
ATOM     33  O   UNL     1       2.399   8.978   2.788  0.00  0.00    -0.292 OA
BRANCH  32  34
ATOM     34  C   UNL     1       0.943  10.672   2.040  0.00  0.00    +0.233 C 
BRANCH  34  35
ATOM     35  O   UNL     1       2.131  11.465   2.057  0.00  0.00    -0.387 OA
ATOM     36  H   UNL     1       2.002  12.374   1.752  0.00  0.00    +0.210 HD
ENDBRANCH  34  35
ENDBRANCH  32  34
ENDBRANCH  10  32
BRANCH   4  37
ATOM     37  O   UNL     1      -2.461   5.461   1.301  0.00  0.00    -0.389 OA
ATOM     38  H   UNL     1      -3.238   5.894   1.680  0.00  0.00    +0.210 HD
ENDBRANCH   4  37
TORSDOF 5
