REMARK  Name = ZINC07989413
REMARK  11 active torsions:
REMARK  status: ('A' for Active; 'I' for Inactive)
REMARK    1  A    between atoms: C_1  and  N_59
REMARK    2  A    between atoms: C_2  and  N_59
REMARK    3  A    between atoms: C_3  and  C_5
REMARK    4  A    between atoms: C_3  and  C_22
REMARK    5  A    between atoms: C_3  and  N_59
REMARK    6  A    between atoms: C_5  and  N_6
REMARK    7  A    between atoms: C_7  and  C_9
REMARK    8  A    between atoms: C_9  and  C_10
REMARK    9  A    between atoms: C_10  and  N_11
REMARK   10  A    between atoms: C_25  and  O_28
REMARK   11  A    between atoms: O_28  and  C_29
REMARK                            x       y       z     vdW  Elec       q    Type
REMARK                         _______ _______ _______ _____ _____    ______ ____
ROOT
ATOM      1  N   UNL     1      -3.001   4.041   3.428  0.00  0.00    -0.316 N 
ATOM      2  C   UNL     1      -2.164   3.693   2.430  0.00  0.00    +0.214 C 
ATOM      3  O   UNL     1      -2.505   3.837   1.275  0.00  0.00    -0.276 OA
ATOM      4  H   UNL     1      -2.728   3.927   4.352  0.00  0.00    +0.149 HD
ENDROOT
BRANCH   1   5
ATOM      5  C   UNL     1      -4.322   4.592   3.117  0.00  0.00    +0.093 C 
BRANCH   5   6
ATOM      6  C   UNL     1      -5.115   4.779   4.413  0.00  0.00    -0.021 C 
BRANCH   6   7
ATOM      7  C   UNL     1      -5.347   3.436   5.058  0.00  0.00    -0.059 A 
ATOM      8  C   UNL     1      -6.363   2.617   4.600  0.00  0.00    +0.005 A 
ATOM      9  C   UNL     1      -6.574   1.384   5.186  0.00  0.00    +0.046 A 
ATOM     10  C   UNL     1      -5.773   0.973   6.242  0.00  0.00    +0.120 A 
ATOM     11  C   UNL     1      -4.758   1.799   6.702  0.00  0.00    +0.046 A 
ATOM     12  C   UNL     1      -4.547   3.028   6.109  0.00  0.00    +0.005 A 
BRANCH  10  13
ATOM     13  O   UNL     1      -5.982  -0.237   6.824  0.00  0.00    -0.495 OA
ATOM     14  C   UNL     1      -7.045  -1.035   6.298  0.00  0.00    +0.277 C 
ENDBRANCH  10  13
ENDBRANCH   6   7
BRANCH   6  17
ATOM     15  C   UNL     1      -7.176   5.649   5.338  0.00  0.00    -0.096 C 
ATOM     16  C   UNL     1      -6.224   6.650   3.350  0.00  0.00    -0.096 C 
ATOM     17  N   UNL     1      -6.423   5.388   4.093  0.00  0.00    +0.382 N 
ATOM     18  H   UNL     1      -6.960   4.737   3.509  0.00  0.00    -0.082 HD
ENDBRANCH   6  17
ENDBRANCH   5   6
ENDBRANCH   1   5
BRANCH   2  19
ATOM     19  C   UNL     1      -0.805   3.127   2.750  0.00  0.00    +0.115 C 
BRANCH  19  20
ATOM     20  C   UNL     1      -0.062   2.818   1.449  0.00  0.00    +0.127 C 
BRANCH  20  21
ATOM     21  N   UNL     1       1.259   2.267   1.760  0.00  0.00    -0.224 N 
ATOM     22  C   UNL     1       1.515   0.951   1.920  0.00  0.00    +0.247 C 
ATOM     23  O   UNL     1       0.726   0.034   1.842  0.00  0.00    -0.273 OA
ATOM     24  C   UNL     1       2.990   0.865   2.216  0.00  0.00    +0.113 C 
ATOM     25  C   UNL     1       3.716   0.021   1.160  0.00  0.00    +0.035 C 
ATOM     26  C   UNL     1       4.827  -0.707   1.961  0.00  0.00    +0.003 C 
ATOM     27  C   UNL     1       4.129  -1.023   3.309  0.00  0.00    +0.003 C 
ATOM     28  C   UNL     1       3.247   0.217   3.578  0.00  0.00    +0.035 C 
ATOM     29  N   UNL     1       3.451   2.255   2.190  0.00  0.00    -0.285 N 
ATOM     30  C   UNL     1       2.366   3.006   1.915  0.00  0.00    +0.309 C 
ATOM     31  O   UNL     1       2.389   4.217   1.818  0.00  0.00    -0.252 OA
ATOM     32  H   UNL     1       4.355   2.571   2.341  0.00  0.00    +0.151 HD
ENDBRANCH  20  21
ENDBRANCH  19  20
ENDBRANCH   2  19
TORSDOF 8
