REMARK  Name = ZINC51616983
REMARK  8 active torsions:
REMARK  status: ('A' for Active; 'I' for Inactive)
REMARK    1  A    between atoms: C_1  and  C_2
REMARK    2  A    between atoms: C_4  and  C_25
REMARK    3  A    between atoms: N_5  and  C_7
REMARK    4  A    between atoms: C_10  and  N_14
REMARK    5  A    between atoms: N_17  and  C_18
REMARK    6  A    between atoms: C_18  and  C_19
REMARK    7  A    between atoms: N_21  and  C_22
REMARK    8  A    between atoms: C_22  and  C_23
REMARK                            x       y       z     vdW  Elec       q    Type
REMARK                         _______ _______ _______ _____ _____    ______ ____
ROOT
ATOM      1  C   UNL     1       0.095  -3.235   1.455  0.00  0.00    +0.101 A 
ATOM      2  C   UNL     1       0.191  -4.499   0.888  0.00  0.00    +0.032 A 
ATOM      3  C   UNL     1       0.199  -5.619   1.695  0.00  0.00    +0.025 A 
ATOM      4  C   UNL     1       0.111  -5.483   3.074  0.00  0.00    +0.038 A 
ATOM      5  C   UNL     1       0.014  -4.220   3.643  0.00  0.00    +0.063 A 
ATOM      6  C   UNL     1       0.012  -3.098   2.836  0.00  0.00    +0.150 A 
ATOM      7  F   UNL     1      -0.077  -1.868   3.388  0.00  0.00    -0.203 F 
ENDROOT
BRANCH   1  12
ATOM      8  C   UNL     1       1.226   1.240  -0.366  0.00  0.00    +0.067 C 
ATOM      9  C   UNL     1       0.597  -0.114  -0.162  0.00  0.00    +0.061 A 
ATOM     10  C   UNL     1      -0.399  -0.685  -0.961  0.00  0.00    +0.047 A 
ATOM     11  C   UNL     1      -0.695  -1.903  -0.451  0.00  0.00    +0.042 A 
ATOM     12  N   UNL     1       0.087  -2.097   0.634  0.00  0.00    -0.234 N 
ATOM     13  N   UNL     1       0.893  -0.962   0.792  0.00  0.00    -0.171 NA
ATOM     14  C   UNL     1      -1.715  -2.871  -0.995  0.00  0.00    +0.066 C 
ENDBRANCH   1  12
BRANCH   4  15
ATOM     15  N   UNL     1       0.118  -6.620   3.892  0.00  0.00    -0.269 N 
ATOM     16  C   UNL     1      -0.621  -6.645   5.018  0.00  0.00    +0.304 C 
ATOM     17  O   UNL     1      -1.231  -5.653   5.367  0.00  0.00    -0.252 OA
ATOM     18  N   UNL     1      -0.684  -7.770   5.758  0.00  0.00    -0.291 N 
ATOM     19  H   UNL     1       0.656  -7.389   3.647  0.00  0.00    +0.156 HD
ATOM     20  H   UNL     1      -0.198  -8.561   5.480  0.00  0.00    +0.151 HD
BRANCH  18  21
ATOM     21  C   UNL     1      -1.488  -7.797   6.982  0.00  0.00    +0.201 C 
BRANCH  21  22
ATOM     22  C   UNL     1      -1.391  -9.160   7.617  0.00  0.00    +0.231 C 
ATOM     23  O   UNL     1      -0.716 -10.024   7.098  0.00  0.00    -0.274 OA
ATOM     24  N   UNL     1      -2.053  -9.420   8.762  0.00  0.00    -0.303 N 
ATOM     25  H   UNL     1      -2.593  -8.729   9.177  0.00  0.00    +0.150 HD
BRANCH  24  26
ATOM     26  C   UNL     1      -1.958 -10.745   9.379  0.00  0.00    +0.193 C 
BRANCH  26  27
ATOM     27  C   UNL     1      -2.766 -10.772  10.609  0.00  0.00    -0.087 C 
ATOM     28  C   UNL     1      -3.410 -10.794  11.590  0.00  0.00    +0.005 C 
ENDBRANCH  26  27
ENDBRANCH  24  26
ENDBRANCH  21  22
ENDBRANCH  18  21
ENDBRANCH   4  15
TORSDOF 6
