REMARK  Name = ZINC40322147
REMARK  7 active torsions:
REMARK  status: ('A' for Active; 'I' for Inactive)
REMARK    1  A    between atoms: C_1  and  C_2
REMARK    2  A    between atoms: C_2  and  C_4
REMARK    3  A    between atoms: C_2  and  N_11
REMARK    4  A    between atoms: N_11  and  C_12
REMARK    5  A    between atoms: C_13  and  C_15
REMARK    6  A    between atoms: C_17  and  N_22
REMARK    7  A    between atoms: C_19  and  N_21
REMARK                            x       y       z     vdW  Elec       q    Type
REMARK                         _______ _______ _______ _____ _____    ______ ____
ROOT
ATOM      1  N   UNL     1       0.727  -0.577   1.075  0.00  0.00    -0.294 N 
ATOM      2  C   UNL     1       2.138  -0.224   1.250  0.00  0.00    +0.133 C 
ATOM      3  C   UNL     1       0.113  -1.365   1.980  0.00  0.00    +0.247 C 
ATOM      4  O   UNL     1      -1.077  -1.592   1.880  0.00  0.00    -0.270 OA
ENDROOT
BRANCH   3   5
ATOM      5  C   UNL     1       0.887  -1.954   3.094  0.00  0.00    +0.040 A 
ATOM      6  C   UNL     1       1.841  -1.189   3.763  0.00  0.00    +0.036 A 
ATOM      7  C   UNL     1       2.565  -1.745   4.808  0.00  0.00    +0.027 A 
ATOM      8  C   UNL     1       2.340  -3.061   5.188  0.00  0.00    +0.045 A 
ATOM      9  C   UNL     1       1.391  -3.826   4.523  0.00  0.00    +0.027 A 
ATOM     10  C   UNL     1       0.659  -3.275   3.481  0.00  0.00    +0.036 A 
BRANCH   9  11
ATOM     11  N   UNL     1       1.167  -5.151   4.908  0.00  0.00    -0.358 N 
ATOM     12  H   UNL     1       1.676  -5.535   5.639  0.00  0.00    +0.142 HD
ATOM     13  H   UNL     1       0.504  -5.685   4.444  0.00  0.00    +0.142 HD
ENDBRANCH   9  11
BRANCH   7  14
ATOM     14  N   UNL     1       3.522  -0.979   5.479  0.00  0.00    -0.358 N 
ATOM     15  H   UNL     1       3.680  -0.059   5.214  0.00  0.00    +0.142 HD
ATOM     16  H   UNL     1       4.028  -1.367   6.210  0.00  0.00    +0.142 HD
ENDBRANCH   7  14
ENDBRANCH   3   5
BRANCH   1  18
ATOM     17  C   UNL     1       0.865   0.898  -0.871  0.00  0.00    +0.033 C 
ATOM     18  C   UNL     1      -0.016  -0.074  -0.083  0.00  0.00    +0.103 C 
BRANCH  18  19
ATOM     19  C   UNL     1      -0.408  -1.228  -0.969  0.00  0.00    -0.027 A 
ATOM     20  C   UNL     1      -1.692  -1.306  -1.475  0.00  0.00    +0.007 A 
ATOM     21  C   UNL     1      -2.051  -2.364  -2.288  0.00  0.00    +0.020 A 
ATOM     22  C   UNL     1      -1.126  -3.347  -2.594  0.00  0.00    +0.041 A 
ATOM     23  C   UNL     1       0.158  -3.269  -2.087  0.00  0.00    +0.020 A 
ATOM     24  C   UNL     1       0.519  -2.207  -1.279  0.00  0.00    +0.007 A 
ATOM     25 CL   UNL     1      -1.578  -4.677  -3.614  0.00  0.00    -0.084 Cl
ENDBRANCH  18  19
ENDBRANCH   1  18
TORSDOF 5
