REMARK  Name = ZINC13052354
REMARK  10 active torsions:
REMARK  status: ('A' for Active; 'I' for Inactive)
REMARK    1  A    between atoms: C_1  and  C_2
REMARK    2  A    between atoms: C_2  and  C_4
REMARK    3  A    between atoms: C_2  and  O_29
REMARK    4  A    between atoms: C_4  and  N_5
REMARK    5  A    between atoms: C_11  and  C_27
REMARK    6  A    between atoms: C_15  and  S_16
REMARK    7  A    between atoms: S_16  and  C_17
REMARK    8  A    between atoms: C_17  and  C_18
REMARK    9  A    between atoms: C_23  and  O_24
REMARK   10  A    between atoms: O_24  and  C_25
REMARK                            x       y       z     vdW  Elec       q    Type
REMARK                         _______ _______ _______ _____ _____    ______ ____
ROOT
ATOM      1  N   UNL     1      -5.318   1.582  -2.407  0.00  0.00    -0.285 N 
ATOM      2  C   UNL     1      -6.487   2.235  -2.212  0.00  0.00    +0.262 A 
ATOM      3  O   UNL     1      -7.164   2.611  -3.151  0.00  0.00    -0.267 OA
ATOM      4  C   UNL     1      -6.911   2.474  -0.823  0.00  0.00    +0.065 A 
ATOM      5  C   UNL     1      -8.100   3.139  -0.524  0.00  0.00    +0.016 A 
ATOM      6  C   UNL     1      -8.458   3.341   0.777  0.00  0.00    +0.016 A 
ATOM      7  C   UNL     1      -7.640   2.887   1.821  0.00  0.00    +0.065 A 
ATOM      8  C   UNL     1      -6.451   2.223   1.546  0.00  0.00    +0.043 A 
ATOM      9  C   UNL     1      -6.074   2.010   0.217  0.00  0.00    +0.080 A 
ATOM     10  N   UNL     1      -4.927   1.364  -0.098  0.00  0.00    -0.223 NA
ATOM     11  C   UNL     1      -4.570   1.167  -1.343  0.00  0.00    +0.173 A 
ENDROOT
BRANCH   7  12
ATOM     12  C   UNL     1      -8.045   3.117   3.225  0.00  0.00    +0.387 C 
ATOM     13  O   UNL     1      -7.340   2.726   4.132  0.00  0.00    -0.241 OA
ATOM     14  O   UNL     1      -9.197   3.760   3.497  0.00  0.00    -0.241 OA
ENDBRANCH   7  12
BRANCH   1  15
ATOM     15  C   UNL     1      -4.852   1.319  -3.770  0.00  0.00    +0.158 C 
BRANCH  15  17
ATOM     16  C   UNL     1      -4.904  -0.308  -5.666  0.00  0.00    +0.039 C 
ATOM     17  C   UNL     1      -5.391  -0.033  -4.242  0.00  0.00    +0.131 C 
BRANCH  17  18
ATOM     18  O   UNL     1      -4.922  -1.063  -3.370  0.00  0.00    -0.390 OA
ATOM     19  H   UNL     1      -5.226  -1.950  -3.610  0.00  0.00    +0.210 HD
ENDBRANCH  17  18
ENDBRANCH  15  17
ENDBRANCH   1  15
BRANCH  11  20
ATOM     20  S   UNL     1      -3.056   0.322  -1.659  0.00  0.00    -0.083 S 
BRANCH  20  21
ATOM     21  C   UNL     1      -2.505   0.019   0.038  0.00  0.00    +0.116 C 
BRANCH  21  22
ATOM     22  C   UNL     1      -1.189  -0.715   0.015  0.00  0.00    +0.006 A 
ATOM     23  C   UNL     1      -1.168  -2.096   0.003  0.00  0.00    +0.028 A 
ATOM     24  C   UNL     1       0.040  -2.771  -0.012  0.00  0.00    +0.041 A 
ATOM     25  C   UNL     1       1.229  -2.063  -0.020  0.00  0.00    +0.023 A 
ATOM     26  C   UNL     1       1.212  -0.682  -0.013  0.00  0.00    +0.047 A 
ATOM     27  C   UNL     1       0.002  -0.004   0.002  0.00  0.00    +0.124 A 
ATOM     28 CL   UNL     1       0.063  -4.506  -0.021  0.00  0.00    -0.084 Cl
BRANCH  27  29
ATOM     29  O   UNL     1      -0.016   1.355   0.009  0.00  0.00    -0.495 OA
ATOM     30  C   UNL     1       1.248   2.021   0.001  0.00  0.00    +0.277 C 
ENDBRANCH  27  29
ENDBRANCH  21  22
ENDBRANCH  20  21
ENDBRANCH  11  20
TORSDOF 8
