REMARK  Name = ZINC15103865
REMARK  10 active torsions:
REMARK  status: ('A' for Active; 'I' for Inactive)
REMARK    1  A    between atoms: C_1  and  N_60
REMARK    2  A    between atoms: C_2  and  C_3
REMARK    3  A    between atoms: C_2  and  N_60
REMARK    4  A    between atoms: C_8  and  N_9
REMARK    5  A    between atoms: C_15  and  C_16
REMARK    6  A    between atoms: C_15  and  N_60
REMARK    7  A    between atoms: N_18  and  C_19
REMARK    8  A    between atoms: C_24  and  S_25
REMARK    9  A    between atoms: S_25  and  C_26
REMARK   10  A    between atoms: C_26  and  C_27
REMARK                            x       y       z     vdW  Elec       q    Type
REMARK                         _______ _______ _______ _____ _____    ______ ____
ROOT
ATOM      1  C   UNL     1      -4.868  -0.157   0.017  0.00  0.00    +0.019 C 
ENDROOT
BRANCH   1   2
ATOM      2  C   UNL     1      -3.612  -0.958   0.251  0.00  0.00    +0.201 C 
ATOM      3  O   UNL     1      -3.668  -2.168   0.316  0.00  0.00    -0.278 OA
ATOM      4  N   UNL     1      -2.428  -0.329   0.388  0.00  0.00    -0.286 N 
ATOM      5  H   UNL     1      -2.394   0.640   0.416  0.00  0.00    +0.155 HD
BRANCH   4   6
ATOM      6  C   UNL     1      -1.246  -1.075   0.490  0.00  0.00    +0.047 A 
ATOM      7  C   UNL     1      -1.215  -2.391   0.055  0.00  0.00    +0.024 A 
ATOM      8  C   UNL     1      -0.048  -3.126   0.156  0.00  0.00    +0.002 A 
ATOM      9  C   UNL     1       1.091  -2.552   0.692  0.00  0.00    +0.001 A 
ATOM     10  C   UNL     1       1.071  -1.239   1.123  0.00  0.00    +0.016 A 
ATOM     11  C   UNL     1      -0.098  -0.496   1.031  0.00  0.00    +0.030 A 
BRANCH  11  12
ATOM     12  S   UNL     1      -0.129   1.175   1.587  0.00  0.00    -0.114 S 
BRANCH  12  13
ATOM     13  C   UNL     1       1.557   1.468   2.191  0.00  0.00    +0.169 C 
BRANCH  13  14
ATOM     14  C   UNL     1       1.669   2.881   2.702  0.00  0.00    +0.221 C 
ATOM     15  O   UNL     1       0.706   3.618   2.663  0.00  0.00    -0.275 OA
ATOM     16  N   UNL     1       2.838   3.326   3.203  0.00  0.00    -0.329 N 
ATOM     17  H   UNL     1       3.608   2.736   3.235  0.00  0.00    +0.145 HD
ATOM     18  H   UNL     1       2.910   4.235   3.532  0.00  0.00    +0.145 HD
ENDBRANCH  13  14
ENDBRANCH  12  13
ENDBRANCH  11  12
ENDBRANCH   4   6
ENDBRANCH   1   2
BRANCH   1  20
ATOM     19  C   UNL     1      -6.271  -1.755   1.175  0.00  0.00    -0.095 C 
ATOM     20  N   UNL     1      -6.008  -1.088  -0.118  0.00  0.00    +0.386 N 
ATOM     21  H   UNL     1      -5.777  -1.800  -0.820  0.00  0.00    -0.081 HD
BRANCH  20  22
ATOM     22  C   UNL     1      -7.211  -0.352  -0.560  0.00  0.00    -0.041 C 
BRANCH  22  23
ATOM     23  C   UNL     1      -8.244  -1.346  -1.023  0.00  0.00    -0.043 A 
ATOM     24  C   UNL     1      -9.330  -1.640  -0.221  0.00  0.00    +0.003 A 
ATOM     25  C   UNL     1     -10.281  -2.549  -0.648  0.00  0.00    +0.000 A 
ATOM     26  C   UNL     1     -10.143  -3.174  -1.874  0.00  0.00    +0.002 A 
ATOM     27  C   UNL     1      -9.058  -2.889  -2.678  0.00  0.00    +0.023 A 
ATOM     28  C   UNL     1      -8.103  -1.972  -2.255  0.00  0.00    +0.031 A 
BRANCH  28  29
ATOM     29  N   UNL     1      -7.004  -1.681  -3.066  0.00  0.00    -0.330 N 
ATOM     30  C   UNL     1      -7.421  -0.976  -4.284  0.00  0.00    +0.105 C 
ATOM     31  C   UNL     1      -6.184  -0.546  -5.075  0.00  0.00    +0.019 C 
ATOM     32  C   UNL     1      -5.360  -1.785  -5.438  0.00  0.00    +0.003 C 
ATOM     33  C   UNL     1      -4.979  -2.528  -4.154  0.00  0.00    +0.019 C 
ATOM     34  C   UNL     1      -6.252  -2.900  -3.390  0.00  0.00    +0.105 C 
ENDBRANCH  28  29
ENDBRANCH  22  23
ENDBRANCH  20  22
ENDBRANCH   1  20
TORSDOF 9
