REMARK  Name = ZINC39944151
REMARK  1 active torsions:
REMARK  status: ('A' for Active; 'I' for Inactive)
REMARK    1  A    between atoms: C_1  and  C_2
REMARK                            x       y       z     vdW  Elec       q    Type
REMARK                         _______ _______ _______ _____ _____    ______ ____
ROOT
ATOM      1  C   UNL     1      -0.019   1.526   0.010  0.00  0.00    +0.080 C 
ATOM      2  C   UNL     1       0.002  -0.004   0.002  0.00  0.00    +0.308 C 
ATOM      3  N   UNL     1       0.755  -0.503  -1.159  0.00  0.00    -0.150 NA
ATOM      4  N   UNL     1       1.716  -1.153  -0.736  0.00  0.00    -0.075 NA
ATOM      5  C   UNL     1       1.768  -1.196   0.602  0.00  0.00    +0.272 C 
ATOM      6  S   UNL     1       2.970  -2.011   1.509  0.00  0.00    +0.009 S 
ATOM      7  O   UNL     1       0.732  -0.504   1.136  0.00  0.00    -0.445 OA
ENDROOT
TORSDOF 0
