REMARK  Name = ZINC04236552
REMARK  15 active torsions:
REMARK  status: ('A' for Active; 'I' for Inactive)
REMARK    1  A    between atoms: C_1  and  C_2
REMARK    2  A    between atoms: C_2  and  N_3
REMARK    3  A    between atoms: C_4  and  O_6
REMARK    4  A    between atoms: O_6  and  C_7
REMARK    5  A    between atoms: C_11  and  C_38
REMARK    6  A    between atoms: C_14  and  C_15
REMARK    7  A    between atoms: C_14  and  C_16
REMARK    8  A    between atoms: C_16  and  O_17
REMARK    9  A    between atoms: C_20  and  O_37
REMARK   10  A    between atoms: C_22  and  C_24
REMARK   11  A    between atoms: C_24  and  C_25
REMARK   12  A    between atoms: N_27  and  C_28
REMARK   13  A    between atoms: C_28  and  C_29
REMARK   14  A    between atoms: C_32  and  O_35
REMARK   15  A    between atoms: O_35  and  C_36
REMARK                            x       y       z     vdW  Elec       q    Type
REMARK                         _______ _______ _______ _____ _____    ______ ____
ROOT
ATOM      1  C   UNL     1      -0.571   0.167  -0.225  0.00  0.00    +0.186 C 
ATOM      2  C   UNL     1      -0.321  -0.518  -1.570  0.00  0.00    +0.046 C 
ATOM      3  C   UNL     1      -0.116  -2.018  -1.348  0.00  0.00    +0.011 C 
ATOM      4  C   UNL     1      -1.366  -2.612  -0.697  0.00  0.00    -0.023 C 
ATOM      5  C   UNL     1      -1.615  -1.927   0.648  0.00  0.00    +0.007 C 
ATOM      6  C   UNL     1      -1.821  -0.428   0.426  0.00  0.00    +0.031 C 
ATOM      7  C   UNL     1      -2.070   0.258   1.772  0.00  0.00    +0.017 C 
ATOM      8  C   UNL     1      -0.410  -2.147   1.564  0.00  0.00    +0.007 C 
ATOM      9  C   UNL     1      -0.204  -3.647   1.786  0.00  0.00    +0.032 C 
ATOM     10  C   UNL     1       0.045  -4.332   0.441  0.00  0.00    +0.119 C 
ATOM     11  C   UNL     1      -1.161  -4.112  -0.475  0.00  0.00    +0.032 C 
ATOM     12  C   UNL     1      -2.572  -2.393  -1.613  0.00  0.00    +0.012 C 
ENDROOT
BRANCH  10  13
ATOM     13  O   UNL     1       0.236  -5.733   0.648  0.00  0.00    -0.391 OA
ATOM     14  H   UNL     1       0.986  -5.947   1.220  0.00  0.00    +0.210 HD
ENDBRANCH  10  13
BRANCH   1  15
ATOM     15  O   UNL     1      -0.765   1.591  -0.436  0.00  0.00    -0.446 OA
BRANCH  15  17
ATOM     16  N   UNL     1       0.221   3.700  -0.585  0.00  0.00    -0.281 N 
ATOM     17  C   UNL     1       0.332   2.370  -0.397  0.00  0.00    +0.401 C 
ATOM     18  O   UNL     1       1.423   1.874  -0.194  0.00  0.00    -0.226 OA
ATOM     19  H   UNL     1      -0.649   4.096  -0.748  0.00  0.00    +0.152 HD
BRANCH  16  21
ATOM     20  C   UNL     1       1.014   6.005  -0.784  0.00  0.00    +0.024 C 
ATOM     21  C   UNL     1       1.415   4.548  -0.543  0.00  0.00    +0.104 C 
ENDBRANCH  16  21
ENDBRANCH  15  17
ENDBRANCH   1  15
BRANCH   6  22
ATOM     22  C   UNL     1      -3.026  -0.208  -0.489  0.00  0.00    +0.166 C 
BRANCH  22  23
ATOM     23  O   UNL     1      -3.344   1.185  -0.532  0.00  0.00    -0.394 OA
ATOM     24  H   UNL     1      -4.101   1.398  -1.095  0.00  0.00    +0.209 HD
ENDBRANCH  22  23
ENDBRANCH   6  22
BRANCH  11  25
ATOM     25  C   UNL     1      -2.411  -4.707   0.176  0.00  0.00    +0.102 C 
BRANCH  25  26
ATOM     26  C   UNL     1      -2.317  -6.211   0.164  0.00  0.00    +0.214 C 
ATOM     27  O   UNL     1      -1.437  -6.758  -0.467  0.00  0.00    -0.276 OA
ATOM     28  N   UNL     1      -3.209  -6.948   0.854  0.00  0.00    -0.311 N 
ATOM     29  H   UNL     1      -3.913  -6.511   1.359  0.00  0.00    +0.149 HD
BRANCH  28  30
ATOM     30  C   UNL     1      -3.118  -8.410   0.842  0.00  0.00    +0.139 C 
BRANCH  30  31
ATOM     31  C   UNL     1      -4.224  -8.990   1.685  0.00  0.00    -0.030 A 
ATOM     32  C   UNL     1      -4.016  -9.224   3.032  0.00  0.00    +0.009 A 
ATOM     33  C   UNL     1      -5.030  -9.750   3.808  0.00  0.00    +0.046 A 
ATOM     34  C   UNL     1      -6.255 -10.054   3.232  0.00  0.00    +0.120 A 
ATOM     35  C   UNL     1      -6.460  -9.824   1.880  0.00  0.00    +0.046 A 
ATOM     36  C   UNL     1      -5.444  -9.293   1.109  0.00  0.00    +0.009 A 
BRANCH  34  37
ATOM     37  O   UNL     1      -7.253 -10.577   3.993  0.00  0.00    -0.495 OA
ATOM     38  C   UNL     1      -6.972 -10.787   5.378  0.00  0.00    +0.277 C 
ENDBRANCH  34  37
ENDBRANCH  30  31
ENDBRANCH  28  30
ENDBRANCH  25  26
ENDBRANCH  11  25
TORSDOF 11
