REMARK  Name = ZINC55325332
REMARK  8 active torsions:
REMARK  status: ('A' for Active; 'I' for Inactive)
REMARK    1  A    between atoms: C_1  and  C_2
REMARK    2  A    between atoms: C_2  and  C_3
REMARK    3  A    between atoms: C_3  and  C_4
REMARK    4  A    between atoms: C_4  and  C_5
REMARK    5  A    between atoms: N_7  and  C_8
REMARK    6  A    between atoms: C_11  and  C_29
REMARK    7  A    between atoms: C_13  and  N_14
REMARK    8  A    between atoms: C_15  and  C_17
REMARK                            x       y       z     vdW  Elec       q    Type
REMARK                         _______ _______ _______ _____ _____    ______ ____
ROOT
ATOM      1  N   UNL     1       2.154  -6.584   3.066  0.00  0.00    -0.279 N 
ATOM      2  C   UNL     1       2.773  -7.774   2.930  0.00  0.00    +0.272 C 
ATOM      3  O   UNL     1       3.817  -7.987   3.515  0.00  0.00    -0.268 OA
ATOM      4  H   UNL     1       1.365  -6.385   2.538  0.00  0.00    +0.155 HD
ENDROOT
BRANCH   2   5
ATOM      5  C   UNL     1       2.182  -8.820   2.070  0.00  0.00    +0.191 A 
ATOM      6  C   UNL     1       2.855 -10.122   1.926  0.00  0.00    +0.280 A 
ATOM      7  O   UNL     1       3.899 -10.345   2.512  0.00  0.00    -0.265 OA
ATOM      8  N   UNL     1       2.299 -11.066   1.135  0.00  0.00    -0.319 N 
ATOM      9  H   UNL     1       2.725 -11.930   1.027  0.00  0.00    +0.169 HD
ATOM     10  C   UNL     1       1.117 -10.782   0.485  0.00  0.00    +0.068 A 
ATOM     11  C   UNL     1       0.521 -11.736  -0.335  0.00  0.00    +0.028 A 
ATOM     12  C   UNL     1      -0.660 -11.444  -0.981  0.00  0.00    +0.002 A 
ATOM     13  C   UNL     1      -1.266 -10.203  -0.821  0.00  0.00    +0.002 A 
ATOM     14  C   UNL     1      -0.704  -9.252  -0.023  0.00  0.00    +0.030 A 
ATOM     15  C   UNL     1       0.503  -9.522   0.649  0.00  0.00    +0.088 A 
ATOM     16  N   UNL     1       1.054  -8.590   1.438  0.00  0.00    -0.235 NA
ENDBRANCH   2   5
BRANCH   1  22
ATOM     17  C   UNL     1       2.391  -4.281   3.772  0.00  0.00    +0.055 A 
ATOM     18  C   UNL     1       2.881  -3.348   4.674  0.00  0.00    +0.025 A 
ATOM     19  C   UNL     1       3.628  -3.762   5.760  0.00  0.00    +0.005 A 
ATOM     20  C   UNL     1       3.889  -5.107   5.952  0.00  0.00    -0.049 A 
ATOM     21  C   UNL     1       3.405  -6.044   5.059  0.00  0.00    +0.028 A 
ATOM     22  C   UNL     1       2.650  -5.637   3.969  0.00  0.00    +0.055 A 
ATOM     23  C   UNL     1       4.705  -5.551   7.139  0.00  0.00    +0.044 C 
BRANCH  17  26
ATOM     24  C   UNL     1       0.961  -2.696   2.718  0.00  0.00    +0.217 C 
ATOM     25  O   UNL     1       0.928  -2.057   3.749  0.00  0.00    -0.275 OA
ATOM     26  N   UNL     1       1.635  -3.863   2.670  0.00  0.00    -0.284 N 
ATOM     27  H   UNL     1       1.595  -4.413   1.872  0.00  0.00    +0.155 HD
BRANCH  24  28
ATOM     28  C   UNL     1       0.250  -2.186   1.492  0.00  0.00    +0.096 C 
BRANCH  28  29
ATOM     29  C   UNL     1      -0.430  -0.853   1.815  0.00  0.00    +0.009 C 
BRANCH  29  31
ATOM     30  C   UNL     1      -1.832   0.997   0.892  0.00  0.00    +0.004 C 
ATOM     31  C   UNL     1      -1.153  -0.335   0.570  0.00  0.00    -0.003 C 
ENDBRANCH  29  31
ENDBRANCH  28  29
ENDBRANCH  24  28
ENDBRANCH  17  26
ENDBRANCH   1  22
TORSDOF 6
