REMARK  Name = ZINC13879003
REMARK  4 active torsions:
REMARK  status: ('A' for Active; 'I' for Inactive)
REMARK    1  A    between atoms: C_1  and  C_2
REMARK    2  A    between atoms: C_5  and  C_7
REMARK    3  A    between atoms: N_8  and  N_9
REMARK    4  A    between atoms: N_11  and  C_12
REMARK                            x       y       z     vdW  Elec       q    Type
REMARK                         _______ _______ _______ _____ _____    ______ ____
ROOT
ATOM      1  N   UNL     1       3.819  -4.119  -0.042  0.00  0.00    -0.258 N 
ATOM      2  C   UNL     1       5.170  -3.915  -0.047  0.00  0.00    +0.159 C 
ATOM      3  N   UNL     1       6.023  -4.984  -0.058  0.00  0.00    -0.321 N 
ATOM      4  S   UNL     1       5.777  -2.370  -0.041  0.00  0.00    -0.015 SA
ATOM      5  H   UNL     1       5.669  -5.887  -0.061  0.00  0.00    +0.148 HD
ATOM      6  H   UNL     1       3.464  -5.021  -0.045  0.00  0.00    +0.191 HD
ENDROOT
BRANCH   3   7
ATOM      7  C   UNL     1       7.472  -4.766  -0.064  0.00  0.00    +0.072 C 
ATOM      8  C   UNL     1       7.950  -4.557  -1.502  0.00  0.00    +0.022 C 
ATOM      9  C   UNL     1       9.463  -4.329  -1.508  0.00  0.00    +0.002 C 
ATOM     10  C   UNL     1      10.165  -5.549  -0.909  0.00  0.00    +0.000 C 
ATOM     11  C   UNL     1       9.687  -5.758   0.529  0.00  0.00    +0.002 C 
ATOM     12  C   UNL     1       8.174  -5.986   0.535  0.00  0.00    +0.022 C 
ENDBRANCH   3   7
BRANCH   1  14
ATOM     13  C   UNL     1       1.659  -3.217  -0.025  0.00  0.00    +0.178 C 
ATOM     14  N   UNL     1       2.945  -3.023  -0.031  0.00  0.00    -0.177 NA
BRANCH  13  19
ATOM     15  C   UNL     1      -0.018   1.503   0.010  0.00  0.00    +0.086 C 
ATOM     16  C   UNL     1       0.002  -0.004   0.002  0.00  0.00    +0.103 A 
ATOM     17  C   UNL     1      -1.083  -0.804   0.003  0.00  0.00    +0.045 A 
ATOM     18  C   UNL     1      -0.618  -2.132  -0.008  0.00  0.00    +0.051 A 
ATOM     19  C   UNL     1       0.745  -2.071  -0.014  0.00  0.00    +0.148 A 
ATOM     20  O   UNL     1       1.104  -0.771  -0.013  0.00  0.00    -0.459 OA
ENDBRANCH  13  19
ENDBRANCH   1  14
TORSDOF 3
