REMARK  Name = ZINC39665221
REMARK  8 active torsions:
REMARK  status: ('A' for Active; 'I' for Inactive)
REMARK    1  A    between atoms: C_1  and  C_2
REMARK    2  A    between atoms: C_5  and  C_10
REMARK    3  A    between atoms: C_14  and  C_23
REMARK    4  A    between atoms: N_25  and  C_26
REMARK    5  A    between atoms: C_26  and  C_27
REMARK    6  A    between atoms: C_27  and  C_29
REMARK    7  A    between atoms: C_27  and  O_30
REMARK    8  A    between atoms: O_30  and  C_31
REMARK                            x       y       z     vdW  Elec       q    Type
REMARK                         _______ _______ _______ _____ _____    ______ ____
ROOT
ATOM      1  C   UNL     1      -0.155  -4.606   0.069  0.00  0.00    +0.250 C 
ATOM      2  O   UNL     1      -0.106  -5.270   1.086  0.00  0.00    -0.270 OA
ATOM      3  N   UNL     1      -0.232  -5.216  -1.130  0.00  0.00    -0.296 N 
ATOM      4  C   UNL     1      -0.193  -4.589  -2.473  0.00  0.00    +0.121 C 
ATOM      5  C   UNL     1       0.653  -5.556  -3.331  0.00  0.00    +0.100 C 
ATOM      6  C   UNL     1       0.530  -6.917  -2.627  0.00  0.00    -0.004 C 
ATOM      7  C   UNL     1      -0.367  -6.667  -1.405  0.00  0.00    +0.115 C 
ATOM      8  C   UNL     1       1.903  -7.405  -2.174  0.00  0.00    -0.010 C 
ATOM      9  C   UNL     1       1.761  -8.786  -1.528  0.00  0.00    -0.082 C 
ATOM     10  N   UNL     1       1.181  -9.724  -2.496  0.00  0.00    +0.379 N 
ATOM     11  C   UNL     1      -0.177  -9.297  -2.856  0.00  0.00    -0.082 C 
ATOM     12  C   UNL     1      -0.117  -7.938  -3.558  0.00  0.00    -0.010 C 
ATOM     13  H   UNL     1       1.755  -9.748  -3.326  0.00  0.00    -0.086 HD
ATOM     14  H   UNL     1       1.145 -10.646  -2.089  0.00  0.00    -0.086 HD
ENDROOT
BRANCH   1  19
ATOM     15  C   UNL     1      -0.065   1.141   0.370  0.00  0.00    +0.047 C 
ATOM     16  C   UNL     1      -0.086  -0.363   0.293  0.00  0.00    -0.012 A 
ATOM     17  C   UNL     1      -0.835  -0.992  -0.688  0.00  0.00    +0.007 A 
ATOM     18  C   UNL     1      -0.861  -2.368  -0.766  0.00  0.00    +0.016 A 
ATOM     19  C   UNL     1      -0.130  -3.132   0.147  0.00  0.00    +0.075 A 
ATOM     20  C   UNL     1       0.625  -2.494   1.136  0.00  0.00    +0.171 A 
ATOM     21  C   UNL     1       0.646  -1.110   1.199  0.00  0.00    +0.162 A 
ATOM     22  F   UNL     1       1.378  -0.489   2.149  0.00  0.00    -0.202 F 
ATOM     23  F   UNL     1       1.335  -3.224   2.024  0.00  0.00    -0.202 F 
ENDBRANCH   1  19
BRANCH   5  24
ATOM     24  C   UNL     1       0.101  -5.634  -4.731  0.00  0.00    +0.218 C 
ATOM     25  O   UNL     1      -1.073  -5.409  -4.933  0.00  0.00    -0.275 OA
ATOM     26  N   UNL     1       0.912  -5.955  -5.758  0.00  0.00    -0.312 N 
ATOM     27  H   UNL     1       1.852  -6.136  -5.596  0.00  0.00    +0.149 HD
BRANCH  26  28
ATOM     28  C   UNL     1       0.376  -6.032  -7.119  0.00  0.00    +0.148 C 
BRANCH  28  29
ATOM     29  C   UNL     1       1.497  -6.412  -8.089  0.00  0.00    +0.187 C 
ATOM     30  C   UNL     1       0.966  -6.370  -9.523  0.00  0.00    +0.053 C 
BRANCH  29  31
ATOM     31  O   UNL     1       1.959  -7.731  -7.790  0.00  0.00    -0.488 OA
BRANCH  31  32
ATOM     32  C   UNL     1       3.221  -8.046  -8.181  0.00  0.00    +0.121 A 
ATOM     33  C   UNL     1       4.018  -7.089  -8.794  0.00  0.00    +0.045 A 
ATOM     34  C   UNL     1       5.301  -7.412  -9.190  0.00  0.00    +0.004 A 
ATOM     35  C   UNL     1       5.792  -8.687  -8.978  0.00  0.00    +0.000 A 
ATOM     36  C   UNL     1       5.000  -9.642  -8.368  0.00  0.00    +0.004 A 
ATOM     37  C   UNL     1       3.718  -9.323  -7.964  0.00  0.00    +0.045 A 
ENDBRANCH  31  32
ENDBRANCH  29  31
ENDBRANCH  28  29
ENDBRANCH  26  28
ENDBRANCH   5  24
TORSDOF 6
