REMARK  Name = ZINC45551255
REMARK  5 active torsions:
REMARK  status: ('A' for Active; 'I' for Inactive)
REMARK    1  A    between atoms: C_1  and  C_2
REMARK    2  A    between atoms: C_7  and  N_12
REMARK    3  A    between atoms: C_9  and  C_11
REMARK    4  A    between atoms: N_15  and  N_16
REMARK    5  A    between atoms: C_17  and  C_19
REMARK                            x       y       z     vdW  Elec       q    Type
REMARK                         _______ _______ _______ _____ _____    ______ ____
ROOT
ATOM      1  N   UNL     1       2.778  -3.389   4.647  0.00  0.00    -0.228 N 
ATOM      2  C   UNL     1       3.430  -3.835   5.739  0.00  0.00    +0.279 C 
ATOM      3  O   UNL     1       3.958  -4.931   5.727  0.00  0.00    -0.267 OA
ATOM      4  H   UNL     1       2.357  -2.515   4.657  0.00  0.00    +0.173 HD
ENDROOT
BRANCH   2   5
ATOM      5  C   UNL     1       3.502  -2.997   6.947  0.00  0.00    +0.136 A 
ATOM      6  C   UNL     1       4.168  -3.439   8.062  0.00  0.00    +0.081 A 
ATOM      7  S   UNL     1       3.930  -2.052   9.165  0.00  0.00    -0.060 S 
ATOM      8  C   UNL     1       2.979  -1.033   8.047  0.00  0.00    +0.162 A 
ATOM      9  N   UNL     1       2.927  -1.793   6.971  0.00  0.00    -0.220 NA
ATOM     10  N   UNL     1       2.443   0.227   8.254  0.00  0.00    -0.305 N 
ATOM     11  C   UNL     1       1.676   0.907   7.198  0.00  0.00    +0.135 C 
ATOM     12  C   UNL     1       0.350   1.388   7.797  0.00  0.00    +0.179 C 
ATOM     13  O   UNL     1       0.615   2.147   8.979  0.00  0.00    -0.377 OA
ATOM     14  C   UNL     1       1.250   1.405  10.022  0.00  0.00    +0.179 C 
ATOM     15  C   UNL     1       2.617   0.922   9.539  0.00  0.00    +0.135 C 
ENDBRANCH   2   5
BRANCH   1  19
ATOM     16  N   UNL     1       1.471  -2.526   2.420  0.00  0.00    -0.295 N 
ATOM     17  C   UNL     1       2.056  -3.740   2.406  0.00  0.00    +0.316 C 
ATOM     18  O   UNL     1       1.996  -4.433   1.409  0.00  0.00    -0.251 OA
ATOM     19  N   UNL     1       2.708  -4.187   3.498  0.00  0.00    -0.218 N 
ATOM     20  H   UNL     1       1.520  -1.974   3.216  0.00  0.00    +0.151 HD
ATOM     21  H   UNL     1       3.129  -5.060   3.488  0.00  0.00    +0.174 HD
BRANCH  16  27
ATOM     22  C   UNL     1      -0.019   1.526   0.010  0.00  0.00    +0.008 C 
ATOM     23  C   UNL     1       0.002  -0.004   0.002  0.00  0.00    -0.009 C 
ATOM     24  C   UNL     1      -1.433  -0.534   0.013  0.00  0.00    +0.003 C 
ATOM     25  C   UNL     1      -1.413  -2.063   0.004  0.00  0.00    +0.002 C 
ATOM     26  C   UNL     1      -0.673  -2.570   1.244  0.00  0.00    +0.022 C 
ATOM     27  C   UNL     1       0.763  -2.041   1.233  0.00  0.00    +0.078 C 
ATOM     28  C   UNL     1       0.742  -0.511   1.242  0.00  0.00    +0.009 C 
ATOM     29  C   UNL     1       0.026  -0.018   2.500  0.00  0.00    +0.009 C 
ENDBRANCH  16  27
ENDBRANCH   1  19
TORSDOF 3
