REMARK  Name = ZINC06002202
REMARK  5 active torsions:
REMARK  status: ('A' for Active; 'I' for Inactive)
REMARK    1  A    between atoms: C_1  and  C_2
REMARK    2  A    between atoms: C_2  and  S_3
REMARK    3  A    between atoms: S_3  and  C_4
REMARK    4  A    between atoms: C_14  and  C_16
REMARK    5  A    between atoms: C_19  and  N_22
REMARK                            x       y       z     vdW  Elec       q    Type
REMARK                         _______ _______ _______ _____ _____    ______ ____
ROOT
ATOM      1  C   UNL     1       0.792  -2.345  -1.354  0.00  0.00    +0.171 A 
ATOM      2  N   UNL     1       0.203  -2.893  -0.311  0.00  0.00    -0.185 NA
ATOM      3  C   UNL     1       0.139  -4.227  -0.177  0.00  0.00    +0.280 A 
ATOM      4  O   UNL     1      -0.411  -4.720   0.797  0.00  0.00    -0.265 OA
ATOM      5  C   UNL     1       0.708  -5.056  -1.167  0.00  0.00    +0.069 A 
ATOM      6  C   UNL     1       1.317  -4.478  -2.237  0.00  0.00    +0.111 A 
ATOM      7  N   UNL     1       1.352  -3.111  -2.331  0.00  0.00    -0.322 N 
ATOM      8  N   UNL     1       1.890  -5.259  -3.213  0.00  0.00    -0.304 N 
ATOM      9  C   UNL     1       2.204  -6.567  -2.965  0.00  0.00    +0.017 C 
ATOM     10  C   UNL     1       1.632  -7.229  -1.937  0.00  0.00    +0.024 C 
ATOM     11  C   UNL     1       0.633  -6.549  -1.036  0.00  0.00    +0.092 C 
ATOM     12  C   UNL     1       1.945  -8.575  -1.678  0.00  0.00    +0.162 C 
ATOM     13  O   UNL     1       1.427  -9.137  -0.734  0.00  0.00    -0.292 OA
ATOM     14  C   UNL     1       2.909  -9.334  -2.549  0.00  0.00    +0.080 C 
ATOM     15  C   UNL     1       2.879  -8.740  -3.961  0.00  0.00    +0.014 C 
ATOM     16  C   UNL     1       3.206  -7.248  -3.865  0.00  0.00    +0.051 C 
ATOM     17  H   UNL     1       2.074  -4.878  -4.087  0.00  0.00    +0.153 HD
ATOM     18  H   UNL     1       1.780  -2.689  -3.093  0.00  0.00    +0.169 HD
ENDROOT
BRANCH  11  19
ATOM     19  C   UNL     1      -0.754  -7.007  -1.403  0.00  0.00    -0.035 A 
ATOM     20  C   UNL     1      -1.253  -6.758  -2.667  0.00  0.00    +0.007 A 
ATOM     21  C   UNL     1      -2.526  -7.178  -3.004  0.00  0.00    +0.033 A 
ATOM     22  C   UNL     1      -3.300  -7.849  -2.076  0.00  0.00    +0.126 A 
ATOM     23  C   UNL     1      -2.801  -8.100  -0.811  0.00  0.00    +0.033 A 
ATOM     24  C   UNL     1      -1.527  -7.683  -0.476  0.00  0.00    +0.007 A 
BRANCH  22  25
ATOM     25  N   UNL     1      -4.664  -8.299  -2.436  0.00  0.00    +0.056 N 
ATOM     26  O   UNL     1      -5.101  -8.079  -3.542  0.00  0.00    -0.126 OA
ATOM     27  O   UNL     1      -5.341  -8.886  -1.624  0.00  0.00    -0.126 OA
ENDBRANCH  22  25
ENDBRANCH  11  19
BRANCH   1  28
ATOM     28  S   UNL     1       0.851  -0.589  -1.490  0.00  0.00    -0.088 S 
BRANCH  28  30
ATOM     29  C   UNL     1      -0.019   1.526   0.010  0.00  0.00    +0.016 C 
ATOM     30  C   UNL     1       0.002  -0.004   0.002  0.00  0.00    +0.074 C 
ENDBRANCH  28  30
ENDBRANCH   1  28
TORSDOF 4
