REMARK  Name = ZINC46934583
REMARK  8 active torsions:
REMARK  status: ('A' for Active; 'I' for Inactive)
REMARK    1  A    between atoms: C_1  and  C_2
REMARK    2  A    between atoms: N_7  and  C_9
REMARK    3  A    between atoms: C_9  and  C_10
REMARK    4  A    between atoms: C_13  and  N_16
REMARK    5  A    between atoms: C_17  and  C_19
REMARK    6  A    between atoms: C_20  and  C_21
REMARK    7  A    between atoms: N_23  and  C_30
REMARK    8  A    between atoms: N_26  and  C_29
REMARK                            x       y       z     vdW  Elec       q    Type
REMARK                         _______ _______ _______ _____ _____    ______ ____
ROOT
ATOM      1  N   UNL     1       1.058  -8.146   2.885  0.00  0.00    -0.282 N 
ATOM      2  C   UNL     1       2.178  -8.894   2.850  0.00  0.00    +0.241 C 
ATOM      3  O   UNL     1       3.260  -8.380   3.070  0.00  0.00    -0.270 OA
ATOM      4  H   UNL     1       0.189  -8.568   2.790  0.00  0.00    +0.155 HD
ENDROOT
BRANCH   1   8
ATOM      5  C   UNL     1       1.323  -4.021   3.404  0.00  0.00    -0.064 A 
ATOM      6  C   UNL     1       0.247  -4.715   3.927  0.00  0.00    +0.003 A 
ATOM      7  C   UNL     1       0.156  -6.082   3.757  0.00  0.00    +0.023 A 
ATOM      8  C   UNL     1       1.146  -6.761   3.059  0.00  0.00    +0.034 A 
ATOM      9  C   UNL     1       2.226  -6.062   2.534  0.00  0.00    +0.023 A 
ATOM     10  C   UNL     1       2.308  -4.694   2.704  0.00  0.00    +0.003 A 
BRANCH   5  11
ATOM     11  C   UNL     1       1.419  -2.530   3.592  0.00  0.00    -0.043 C 
BRANCH  11  17
ATOM     12  C   UNL     1      -0.058   1.808   1.867  0.00  0.00    +0.005 C 
ATOM     13  C   UNL     1      -0.043   0.300   1.607  0.00  0.00    -0.031 C 
ATOM     14  C   UNL     1       0.643   0.019   0.267  0.00  0.00    -0.001 C 
ATOM     15  C   UNL     1       0.723  -1.495   0.053  0.00  0.00    -0.018 C 
ATOM     16  C   UNL     1       1.466  -2.133   1.229  0.00  0.00    -0.078 C 
ATOM     17  N   UNL     1       0.746  -1.851   2.477  0.00  0.00    +0.383 N 
ATOM     18  C   UNL     1       0.727  -0.404   2.726  0.00  0.00    -0.075 C 
ATOM     19  H   UNL     1      -0.201  -2.190   2.402  0.00  0.00    -0.081 HD
ENDBRANCH  11  17
ENDBRANCH   5  11
ENDBRANCH   1   8
BRANCH   2  20
ATOM     20  C   UNL     1       2.097 -10.277   2.557  0.00  0.00    +0.068 C 
ATOM     21  C   UNL     1       3.222 -11.028   2.522  0.00  0.00    +0.020 C 
BRANCH  21  22
ATOM     22  C   UNL     1       3.128 -12.481   2.357  0.00  0.00    +0.056 A 
ATOM     23  C   UNL     1       4.264 -13.255   2.199  0.00  0.00    +0.103 A 
ATOM     24  N   UNL     1       4.136 -14.600   2.049  0.00  0.00    -0.303 N 
ATOM     25  C   UNL     1       2.933 -15.195   2.051  0.00  0.00    +0.331 A 
ATOM     26  O   UNL     1       2.874 -16.402   1.914  0.00  0.00    -0.246 OA
ATOM     27  N   UNL     1       1.792 -14.502   2.201  0.00  0.00    -0.264 N 
ATOM     28  C   UNL     1       1.821 -13.162   2.363  0.00  0.00    +0.263 A 
ATOM     29  O   UNL     1       0.791 -12.530   2.504  0.00  0.00    -0.267 OA
ATOM     30  C   UNL     1       0.507 -15.206   2.196  0.00  0.00    +0.157 C 
ATOM     31  C   UNL     1       5.340 -15.419   1.881  0.00  0.00    +0.153 C 
ENDBRANCH  21  22
ENDBRANCH   2  20
TORSDOF 5
