REMARK  Name = ZINC48268688
REMARK  4 active torsions:
REMARK  status: ('A' for Active; 'I' for Inactive)
REMARK    1  A    between atoms: C_8  and  C_10
REMARK    2  A    between atoms: C_10  and  C_11
REMARK    3  A    between atoms: C_11  and  N_12
REMARK    4  A    between atoms: C_13  and  C_15
REMARK                            x       y       z     vdW  Elec       q    Type
REMARK                         _______ _______ _______ _____ _____    ______ ____
ROOT
ATOM      1  C   UNL     1      -4.635  -3.049  -0.208  0.00  0.00    +0.115 C 
ENDROOT
BRANCH   1   9
ATOM      2  C   UNL     1      -0.017   1.376   0.012  0.00  0.00    +0.021 A 
ATOM      3  C   UNL     1      -1.235   2.040  -0.019  0.00  0.00    +0.056 A 
ATOM      4  C   UNL     1      -2.400   1.285  -0.019  0.00  0.00    +0.217 A 
ATOM      5  C   UNL     1      -2.303  -0.107   0.013  0.00  0.00    +0.150 A 
ATOM      6  N   UNL     1      -1.121  -0.698   0.042  0.00  0.00    -0.346 N 
ATOM      7  C   UNL     1       0.002  -0.004   0.042  0.00  0.00    +0.084 A 
ATOM      8  N   UNL     1      -3.464  -0.881   0.014  0.00  0.00    -0.269 N 
ATOM      9  C   UNL     1      -3.381  -2.222  -0.096  0.00  0.00    +0.220 C 
ATOM     10  O   UNL     1      -2.295  -2.763  -0.104  0.00  0.00    -0.275 OA
ATOM     11  O   UNL     1      -3.616   1.892  -0.048  0.00  0.00    -0.284 OA
ATOM     12  H   UNL     1      -4.332  -0.454   0.093  0.00  0.00    +0.156 HD
ATOM     13  H   UNL     1      -1.077  -1.667   0.064  0.00  0.00    +0.167 HD
ENDBRANCH   1   9
BRANCH   1  14
ATOM     14  C   UNL     1      -4.263  -4.528  -0.319  0.00  0.00    +0.113 C 
BRANCH  14  15
ATOM     15  N   UNL     1      -5.483  -5.332  -0.428  0.00  0.00    -0.311 N 
ATOM     16  C   UNL     1      -5.399  -6.673  -0.537  0.00  0.00    +0.245 C 
ATOM     17  O   UNL     1      -4.311  -7.215  -0.546  0.00  0.00    -0.270 OA
ATOM     18  H   UNL     1      -6.351  -4.900  -0.421  0.00  0.00    +0.149 HD
BRANCH  16  19
ATOM     19  C   UNL     1      -6.629  -7.484  -0.647  0.00  0.00    +0.053 A 
ATOM     20  C   UNL     1      -7.880  -6.864  -0.644  0.00  0.00    +0.052 A 
ATOM     21  C   UNL     1      -9.026  -7.628  -0.748  0.00  0.00    +0.124 A 
ATOM     22  C   UNL     1      -8.936  -9.007  -0.855  0.00  0.00    +0.039 A 
ATOM     23  C   UNL     1      -7.700  -9.626  -0.858  0.00  0.00    +0.019 A 
ATOM     24  C   UNL     1      -6.546  -8.873  -0.761  0.00  0.00    +0.030 A 
ATOM     25 BR   UNL     1      -4.856  -9.723  -0.774  0.00  0.00    -0.050 Br
ATOM     26  F   UNL     1     -10.238  -7.030  -0.744  0.00  0.00    -0.205 F 
ENDBRANCH  16  19
ENDBRANCH  14  15
ENDBRANCH   1  14
TORSDOF 4
