REMARK  Name = ZINC62997811
REMARK  7 active torsions:
REMARK  status: ('A' for Active; 'I' for Inactive)
REMARK    1  A    between atoms: C_1  and  C_2
REMARK    2  A    between atoms: C_4  and  N_21
REMARK    3  A    between atoms: C_5  and  C_20
REMARK    4  A    between atoms: C_7  and  O_8
REMARK    5  A    between atoms: O_8  and  C_9
REMARK    6  A    between atoms: C_9  and  C_11
REMARK    7  A    between atoms: C_9  and  C_12
REMARK                            x       y       z     vdW  Elec       q    Type
REMARK                         _______ _______ _______ _____ _____    ______ ____
ROOT
ATOM      1  C   UNL     1       0.427   1.474   0.026  0.00  0.00    +0.047 C 
ATOM      2  C   UNL     1       0.215  -0.018   0.009  0.00  0.00    -0.007 A 
ATOM      3  C   UNL     1       0.218  -0.702  -1.190  0.00  0.00    +0.030 A 
ATOM      4  C   UNL     1       0.023  -2.077  -1.205  0.00  0.00    +0.028 A 
ATOM      5  C   UNL     1      -0.175  -2.762  -0.014  0.00  0.00    -0.026 A 
ATOM      6  C   UNL     1      -0.178  -2.076   1.185  0.00  0.00    +0.051 A 
ATOM      7  C   UNL     1       0.022  -0.704   1.199  0.00  0.00    +0.125 A 
ATOM      8  C   UNL     1      -0.387  -4.254  -0.029  0.00  0.00    +0.046 C 
ENDROOT
BRANCH   4   9
ATOM      9  N   UNL     1       0.026  -2.771  -2.420  0.00  0.00    -0.358 N 
ATOM     10  H   UNL     1       0.164  -2.292  -3.252  0.00  0.00    +0.142 HD
ATOM     11  H   UNL     1      -0.110  -3.732  -2.430  0.00  0.00    +0.142 HD
ENDBRANCH   4   9
BRANCH   7  12
ATOM     12  O   UNL     1       0.025  -0.029   2.380  0.00  0.00    -0.480 OA
BRANCH  12  13
ATOM     13  C   UNL     1      -0.065  -0.811   3.574  0.00  0.00    +0.256 C 
ATOM     14  C   UNL     1      -1.534  -1.106   3.881  0.00  0.00    +0.062 C 
BRANCH  13  15
ATOM     15  C   UNL     1       0.546  -0.047   4.721  0.00  0.00    +0.256 C 
ATOM     16  O   UNL     1       0.929   1.091   4.556  0.00  0.00    -0.272 OA
ATOM     17  N   UNL     1       0.666  -0.630   5.930  0.00  0.00    -0.298 N 
ATOM     18  C   UNL     1       0.212  -2.011   6.144  0.00  0.00    +0.108 C 
ATOM     19  C   UNL     1       1.365  -2.822   6.744  0.00  0.00    +0.019 C 
ATOM     20  C   UNL     1       1.871  -2.123   8.008  0.00  0.00    +0.003 C 
ATOM     21  C   UNL     1       2.394  -0.731   7.649  0.00  0.00    +0.019 C 
ATOM     22  C   UNL     1       1.259   0.101   7.058  0.00  0.00    +0.108 C 
ENDBRANCH  13  15
ENDBRANCH  12  13
ENDBRANCH   7  12
TORSDOF 4
