REMARK  Name = ZINC48270384
REMARK  8 active torsions:
REMARK  status: ('A' for Active; 'I' for Inactive)
REMARK    1  A    between atoms: C_1  and  C_2
REMARK    2  A    between atoms: C_5  and  N_26
REMARK    3  A    between atoms: C_7  and  N_8
REMARK    4  A    between atoms: N_11  and  C_12
REMARK    5  A    between atoms: C_12  and  C_13
REMARK    6  A    between atoms: C_13  and  C_15
REMARK    7  A    between atoms: C_13  and  N_20
REMARK    8  A    between atoms: C_27  and  C_29
REMARK                            x       y       z     vdW  Elec       q    Type
REMARK                         _______ _______ _______ _____ _____    ______ ____
ROOT
ATOM      1  N   UNL     1       0.065   0.018   2.509  0.00  0.00    -0.269 N 
ATOM      2  C   UNL     1       0.455  -0.802   3.505  0.00  0.00    +0.304 C 
ATOM      3  O   UNL     1       0.671  -1.977   3.275  0.00  0.00    -0.253 OA
ATOM      4  N   UNL     1       0.604  -0.321   4.755  0.00  0.00    -0.300 N 
ATOM      5  H   UNL     1      -0.051   0.966   2.679  0.00  0.00    +0.156 HD
ATOM      6  H   UNL     1       0.431   0.616   4.938  0.00  0.00    +0.150 HD
ENDROOT
BRANCH   1  13
ATOM      7  C   UNL     1      -1.750   1.408   0.818  0.00  0.00    +0.045 C 
ATOM      8  C   UNL     1      -1.051   0.149   0.371  0.00  0.00    -0.029 A 
ATOM      9  C   UNL     1      -1.281  -0.356  -0.894  0.00  0.00    +0.007 A 
ATOM     10  C   UNL     1      -0.642  -1.509  -1.308  0.00  0.00    +0.024 A 
ATOM     11  C   UNL     1       0.234  -2.165  -0.451  0.00  0.00    +0.035 A 
ATOM     12  C   UNL     1       0.467  -1.660   0.820  0.00  0.00    +0.047 A 
ATOM     13  C   UNL     1      -0.172  -0.498   1.230  0.00  0.00    +0.039 A 
BRANCH  11  14
ATOM     14  N   UNL     1       0.880  -3.333  -0.870  0.00  0.00    -0.286 N 
ATOM     15  C   UNL     1       1.111  -3.542  -2.181  0.00  0.00    +0.214 C 
ATOM     16  O   UNL     1       0.841  -2.679  -2.990  0.00  0.00    -0.276 OA
ATOM     17  C   UNL     1       1.706  -4.848  -2.643  0.00  0.00    +0.109 C 
ATOM     18  H   UNL     1       1.161  -3.993  -0.217  0.00  0.00    +0.155 HD
ENDBRANCH  11  14
ENDBRANCH   1  13
BRANCH   4  19
ATOM     19  C   UNL     1       1.028  -1.213   5.837  0.00  0.00    +0.098 C 
BRANCH  19  20
ATOM     20  C   UNL     1       1.242  -0.399   7.114  0.00  0.00    +0.016 C 
BRANCH  20  21
ATOM     21  N   UNL     1       2.193   0.689   6.848  0.00  0.00    +0.387 N 
ATOM     22  C   UNL     1       3.429   0.129   6.287  0.00  0.00    -0.078 C 
ATOM     23  C   UNL     1       4.392   1.263   5.933  0.00  0.00    -0.019 C 
ATOM     24  C   UNL     1       4.720   2.061   7.198  0.00  0.00    -0.004 C 
ATOM     25  C   UNL     1       3.418   2.578   7.816  0.00  0.00    -0.019 C 
ATOM     26  C   UNL     1       2.490   1.394   8.101  0.00  0.00    -0.078 C 
ATOM     27  H   UNL     1       1.788   1.334   6.188  0.00  0.00    -0.081 HD
ENDBRANCH  20  21
BRANCH  20  28
ATOM     28  C   UNL     1       1.791  -1.294   8.195  0.00  0.00    +0.093 A 
ATOM     29  C   UNL     1       1.069  -1.915   9.145  0.00  0.00    +0.043 A 
ATOM     30  C   UNL     1       1.981  -2.644   9.941  0.00  0.00    +0.041 A 
ATOM     31  C   UNL     1       3.206  -2.426   9.430  0.00  0.00    +0.195 A 
ATOM     32  O   UNL     1       3.084  -1.612   8.369  0.00  0.00    -0.469 OA
ENDBRANCH  20  28
ENDBRANCH  19  20
ENDBRANCH   4  19
TORSDOF 6
