REMARK  Name = ZINC13858377
REMARK  3 active torsions:
REMARK  status: ('A' for Active; 'I' for Inactive)
REMARK    1  A    between atoms: C_3  and  C_9
REMARK    2  A    between atoms: C_9  and  O_10
REMARK    3  A    between atoms: O_10  and  N_11
REMARK                            x       y       z     vdW  Elec       q    Type
REMARK                         _______ _______ _______ _____ _____    ______ ____
ROOT
ATOM      1  N   UNL     1       4.545   4.406  -0.020  0.00  0.00    -0.077 NA
ATOM      2  C   UNL     1       4.425   5.692  -0.013  0.00  0.00    +0.229 C 
ATOM      3  N   UNL     1       5.550   6.490  -0.020  0.00  0.00    -0.287 N 
ATOM      4  C   UNL     1       6.809   5.912  -0.036  0.00  0.00    +0.135 A 
ATOM      5  C   UNL     1       7.975   6.726  -0.037  0.00  0.00    +0.048 A 
ATOM      6  C   UNL     1       8.097   8.174  -0.024  0.00  0.00    +0.021 A 
ATOM      7  C   UNL     1       9.319   8.728  -0.029  0.00  0.00    +0.048 A 
ATOM      8  S   UNL     1      10.414   7.321  -0.051  0.00  0.00    -0.077 S 
ATOM      9  C   UNL     1       9.202   6.027  -0.054  0.00  0.00    +0.113 A 
ATOM     10  N   UNL     1       9.242   4.710  -0.068  0.00  0.00    -0.228 NA
ATOM     11  C   UNL     1       8.125   4.008  -0.066  0.00  0.00    +0.224 A 
ATOM     12  N   UNL     1       6.942   4.596  -0.044  0.00  0.00    -0.220 NA
ATOM     13  H   UNL     1       5.459   7.456  -0.014  0.00  0.00    +0.155 HD
ENDROOT
BRANCH   1  14
ATOM     14  O   UNL     1       3.390   3.586  -0.013  0.00  0.00    -0.388 OA
BRANCH  14  15
ATOM     15  C   UNL     1       3.671   2.185  -0.023  0.00  0.00    +0.299 C 
BRANCH  15  18
ATOM     16  C   UNL     1      -0.017   1.379   0.010  0.00  0.00    +0.020 A 
ATOM     17  C   UNL     1       1.171   2.087   0.002  0.00  0.00    +0.010 A 
ATOM     18  C   UNL     1       2.377   1.413  -0.013  0.00  0.00    +0.011 A 
ATOM     19  C   UNL     1       2.397   0.029  -0.021  0.00  0.00    +0.049 A 
ATOM     20  C   UNL     1       1.210  -0.679  -0.013  0.00  0.00    +0.040 A 
ATOM     21  C   UNL     1       0.002  -0.004   0.002  0.00  0.00    +0.042 A 
ATOM     22 CL   UNL     1      -1.489  -0.893   0.012  0.00  0.00    -0.083 Cl
ATOM     23 CL   UNL     1       3.913  -0.817  -0.041  0.00  0.00    -0.083 Cl
ENDBRANCH  15  18
ENDBRANCH  14  15
ENDBRANCH   1  14
TORSDOF 3
