REMARK  Name = ZINC40318423
REMARK  14 active torsions:
REMARK  status: ('A' for Active; 'I' for Inactive)
REMARK    1  A    between atoms: C_1  and  O_2
REMARK    2  A    between atoms: O_2  and  C_3
REMARK    3  A    between atoms: C_6  and  C_11
REMARK    4  A    between atoms: C_8  and  O_9
REMARK    5  A    between atoms: O_9  and  C_10
REMARK    6  A    between atoms: C_11  and  N_12
REMARK    7  A    between atoms: N_12  and  C_13
REMARK    8  A    between atoms: N_12  and  C_27
REMARK    9  A    between atoms: C_13  and  C_14
REMARK   10  A    between atoms: C_14  and  C_16
REMARK   11  A    between atoms: C_14  and  O_26
REMARK   12  A    between atoms: C_16  and  O_17
REMARK   13  A    between atoms: O_17  and  C_18
REMARK   14  A    between atoms: C_22  and  C_24
REMARK                            x       y       z     vdW  Elec       q    Type
REMARK                         _______ _______ _______ _____ _____    ______ ____
ROOT
ATOM      1  N   UNL     1      -5.407  -2.987  -1.401  0.00  0.00    +0.387 N 
ATOM      2  H   UNL     1      -5.161  -2.598  -2.299  0.00  0.00    -0.081 HD
ENDROOT
BRANCH   1   3
ATOM      3  C   UNL     1      -4.761  -4.297  -1.241  0.00  0.00    -0.045 C 
ATOM      4  C   UNL     1      -3.252  -4.167  -1.506  0.00  0.00    +0.009 C 
ATOM      5  C   UNL     1      -2.620  -5.572  -1.656  0.00  0.00    +0.164 C 
ATOM      6  S   UNL     1      -4.021  -6.579  -2.293  0.00  0.00    -0.033 S 
ATOM      7  O   UNL     1      -4.335  -7.588  -1.343  0.00  0.00    -0.174 OA
ATOM      8  O   UNL     1      -3.753  -6.946  -3.639  0.00  0.00    -0.174 OA
ATOM      9  C   UNL     1      -5.349  -5.302  -2.273  0.00  0.00    +0.151 C 
ENDBRANCH   1   3
BRANCH   1  10
ATOM     10  C   UNL     1      -4.955  -2.084  -0.335  0.00  0.00    -0.042 C 
BRANCH  10  14
ATOM     11  C   UNL     1      -0.844  -1.088  -0.965  0.00  0.00    +0.161 A 
ATOM     12  C   UNL     1      -1.771  -0.886  -1.974  0.00  0.00    +0.049 A 
ATOM     13  C   UNL     1      -3.099  -1.209  -1.768  0.00  0.00    +0.005 A 
ATOM     14  C   UNL     1      -3.505  -1.734  -0.555  0.00  0.00    -0.060 A 
ATOM     15  C   UNL     1      -2.585  -1.938   0.456  0.00  0.00    +0.051 A 
ATOM     16  C   UNL     1      -1.251  -1.622   0.254  0.00  0.00    +0.162 A 
BRANCH  11  18
ATOM     17  C   UNL     1       0.810  -0.227  -2.442  0.00  0.00    +0.277 C 
ATOM     18  O   UNL     1       0.463  -0.771  -1.167  0.00  0.00    -0.491 OA
ENDBRANCH  11  18
BRANCH  16  19
ATOM     19  O   UNL     1      -0.344  -1.828   1.245  0.00  0.00    -0.491 OA
ATOM     20  C   UNL     1      -0.834  -2.379   2.469  0.00  0.00    +0.277 C 
ENDBRANCH  16  19
ENDBRANCH  10  14
ENDBRANCH   1  10
BRANCH   1  21
ATOM     21  C   UNL     1      -6.865  -3.147  -1.321  0.00  0.00    -0.043 C 
BRANCH  21  22
ATOM     22  C   UNL     1      -7.460  -3.123  -2.731  0.00  0.00    +0.135 C 
BRANCH  22  23
ATOM     23  O   UNL     1      -7.271  -1.828  -3.304  0.00  0.00    -0.390 OA
ATOM     24  H   UNL     1      -7.688  -1.112  -2.806  0.00  0.00    +0.210 HD
ENDBRANCH  22  23
BRANCH  22  25
ATOM     25  C   UNL     1      -8.956  -3.436  -2.659  0.00  0.00    +0.258 C 
BRANCH  25  26
ATOM     26  O   UNL     1      -9.487  -3.527  -3.982  0.00  0.00    -0.489 OA
BRANCH  26  27
ATOM     27  C   UNL     1     -10.813  -3.802  -4.097  0.00  0.00    +0.121 A 
ATOM     28  C   UNL     1     -11.588  -3.974  -2.957  0.00  0.00    +0.046 A 
ATOM     29  C   UNL     1     -12.938  -4.253  -3.066  0.00  0.00    +0.004 A 
ATOM     30  C   UNL     1     -13.526  -4.363  -4.308  0.00  0.00    +0.011 A 
ATOM     31  C   UNL     1     -12.756  -4.192  -5.463  0.00  0.00    +0.018 A 
ATOM     32  C   UNL     1     -11.392  -3.905  -5.350  0.00  0.00    +0.056 A 
BRANCH  31  33
ATOM     33  C   UNL     1     -13.379  -4.310  -6.791  0.00  0.00    +0.258 C 
ATOM     34  O   UNL     1     -14.562  -4.556  -6.886  0.00  0.00    -0.296 OA
ENDBRANCH  31  33
ENDBRANCH  26  27
ENDBRANCH  25  26
ENDBRANCH  22  25
ENDBRANCH  21  22
ENDBRANCH   1  21
TORSDOF 12
