REMARK  Name = ZINC12792580
REMARK  3 active torsions:
REMARK  status: ('A' for Active; 'I' for Inactive)
REMARK    1  A    between atoms: C_1  and  C_2
REMARK    2  A    between atoms: C_13  and  C_15
REMARK    3  A    between atoms: C_15  and  C_16
REMARK                            x       y       z     vdW  Elec       q    Type
REMARK                         _______ _______ _______ _____ _____    ______ ____
ROOT
ATOM      1  C   UNL     1       5.022   4.054  -0.557  0.00  0.00    +0.124 C 
ENDROOT
BRANCH   1   2
ATOM      2  C   UNL     1       3.700   3.331  -0.569  0.00  0.00    +0.222 C 
ATOM      3  O   UNL     1       2.729   3.851  -1.077  0.00  0.00    -0.275 OA
ATOM      4  N   UNL     1       3.596   2.107  -0.015  0.00  0.00    -0.261 N 
ATOM      5  C   UNL     1       4.758   1.455   0.608  0.00  0.00    +0.209 C 
ATOM      6  C   UNL     1       4.772  -0.001   0.219  0.00  0.00    +0.235 C 
ATOM      7  O   UNL     1       5.828  -0.592   0.147  0.00  0.00    -0.274 OA
ATOM      8  N   UNL     1       3.625  -0.653  -0.051  0.00  0.00    -0.283 N 
ATOM      9  C   UNL     1       2.398   0.018  -0.024  0.00  0.00    +0.055 A 
ATOM     10  C   UNL     1       2.376   1.414  -0.013  0.00  0.00    +0.058 A 
ATOM     11  C   UNL     1       1.170   2.090   0.002  0.00  0.00    +0.025 A 
ATOM     12  C   UNL     1      -0.017   1.378   0.010  0.00  0.00    +0.002 A 
ATOM     13  C   UNL     1       0.002  -0.004   0.002  0.00  0.00    +0.002 A 
ATOM     14  C   UNL     1       1.205  -0.687  -0.015  0.00  0.00    +0.025 A 
ATOM     15  H   UNL     1       3.650  -1.599  -0.266  0.00  0.00    +0.155 HD
ENDBRANCH   1   2
BRANCH   1  28
ATOM     16  C   UNL     1       1.772   7.328  -0.052  0.00  0.00    +0.109 C 
ATOM     17  C   UNL     1       2.696   6.456  -0.862  0.00  0.00    +0.217 C 
ATOM     18  O   UNL     1       2.295   5.929  -1.879  0.00  0.00    -0.276 OA
ATOM     19  N   UNL     1       3.966   6.261  -0.458  0.00  0.00    -0.270 N 
ATOM     20  C   UNL     1       4.427   6.864   0.706  0.00  0.00    +0.079 C 
ATOM     21  C   UNL     1       5.712   7.225   0.801  0.00  0.00    +0.023 C 
ATOM     22  C   UNL     1       6.624   6.947  -0.325  0.00  0.00    -0.019 A 
ATOM     23  C   UNL     1       7.877   7.556  -0.394  0.00  0.00    +0.008 A 
ATOM     24  C   UNL     1       8.696   7.310  -1.478  0.00  0.00    +0.001 A 
ATOM     25  C   UNL     1       8.277   6.465  -2.490  0.00  0.00    +0.000 A 
ATOM     26  C   UNL     1       7.038   5.852  -2.423  0.00  0.00    +0.006 A 
ATOM     27  C   UNL     1       6.214   6.084  -1.344  0.00  0.00    -0.019 A 
ATOM     28  C   UNL     1       4.867   5.412  -1.245  0.00  0.00    +0.120 C 
ENDBRANCH   1  28
TORSDOF 2
