REMARK  Name = ZINC06134607
REMARK  13 active torsions:
REMARK  status: ('A' for Active; 'I' for Inactive)
REMARK    1  A    between atoms: C_1  and  C_2
REMARK    2  A    between atoms: C_2  and  C_3
REMARK    3  A    between atoms: C_2  and  C_4
REMARK    4  A    between atoms: C_4  and  C_5
REMARK    5  A    between atoms: C_5  and  N_6
REMARK    6  A    between atoms: C_7  and  C_9
REMARK    7  A    between atoms: C_9  and  C_11
REMARK    8  A    between atoms: C_9  and  N_16
REMARK    9  A    between atoms: N_16  and  C_17
REMARK   10  A    between atoms: C_21  and  O_23
REMARK   11  A    between atoms: C_24  and  C_26
REMARK   12  A    between atoms: C_27  and  N_34
REMARK   13  A    between atoms: C_28  and  C_31
REMARK                            x       y       z     vdW  Elec       q    Type
REMARK                         _______ _______ _______ _____ _____    ______ ____
ROOT
ATOM      1  N   UNL     1      -0.177   5.376  -0.209  0.00  0.00    -0.248 N 
ATOM      2  C   UNL     1      -1.409   5.768   0.174  0.00  0.00    +0.262 C 
ATOM      3  O   UNL     1      -2.285   4.941   0.345  0.00  0.00    -0.269 OA
ENDROOT
BRANCH   1   4
ATOM      4  C   UNL     1       0.099   4.017  -0.391  0.00  0.00    +0.041 A 
ATOM      5  C   UNL     1       1.339   3.618  -0.874  0.00  0.00    +0.024 A 
ATOM      6  C   UNL     1       1.611   2.276  -1.054  0.00  0.00    +0.005 A 
ATOM      7  C   UNL     1       0.652   1.327  -0.753  0.00  0.00    +0.045 A 
ATOM      8  C   UNL     1      -0.590   1.720  -0.276  0.00  0.00    +0.119 A 
ATOM      9  C   UNL     1      -0.865   3.066  -0.089  0.00  0.00    +0.069 A 
BRANCH   8  10
ATOM     10  O   UNL     1      -1.534   0.786   0.014  0.00  0.00    -0.507 OA
ATOM     11  H   UNL     1      -1.504   0.467   0.926  0.00  0.00    +0.292 HD
ENDBRANCH   8  10
ENDBRANCH   1   4
BRANCH   2  12
ATOM     12  C   UNL     1      -1.692   7.189   0.384  0.00  0.00    +0.116 A 
ATOM     13  C   UNL     1      -2.922   7.847   0.442  0.00  0.00    +0.076 A 
ATOM     14  C   UNL     1      -2.785   9.218   0.659  0.00  0.00    +0.155 A 
ATOM     15  N   UNL     1      -1.581   9.732   0.781  0.00  0.00    -0.203 NA
ATOM     16  S   UNL     1      -0.560   8.540   0.641  0.00  0.00    +0.019 S 
BRANCH  14  17
ATOM     17  C   UNL     1      -3.977  10.081   0.750  0.00  0.00    +0.262 C 
ATOM     18  O   UNL     1      -5.087   9.598   0.636  0.00  0.00    -0.269 OA
ATOM     19  N   UNL     1      -3.836  11.405   0.960  0.00  0.00    -0.324 N 
ATOM     20  H   UNL     1      -2.950  11.790   1.051  0.00  0.00    +0.145 HD
ATOM     21  H   UNL     1      -4.620  11.972   1.020  0.00  0.00    +0.145 HD
ENDBRANCH  14  17
BRANCH  13  22
ATOM     22  N   UNL     1      -4.146   7.207   0.300  0.00  0.00    -0.355 N 
ATOM     23  H   UNL     1      -4.179   6.249   0.151  0.00  0.00    +0.142 HD
ATOM     24  H   UNL     1      -4.969   7.718   0.350  0.00  0.00    +0.142 HD
ENDBRANCH  13  22
ENDBRANCH   2  12
BRANCH   1  25
ATOM     25  C   UNL     1       0.872   6.373  -0.435  0.00  0.00    +0.233 C 
BRANCH  25  26
ATOM     26  C   UNL     1       1.957   6.204   0.597  0.00  0.00    +0.135 A 
ATOM     27  C   UNL     1       2.615   7.199   1.217  0.00  0.00    +0.047 A 
ATOM     28  C   UNL     1       3.537   6.593   2.101  0.00  0.00    +0.041 A 
ATOM     29  C   UNL     1       3.393   5.263   1.961  0.00  0.00    +0.195 A 
ATOM     30  O   UNL     1       2.435   5.033   1.049  0.00  0.00    -0.465 OA
ENDBRANCH  25  26
BRANCH  25  32
ATOM     31  N   UNL     1       2.442   6.996  -2.242  0.00  0.00    -0.313 N 
ATOM     32  C   UNL     1       1.455   6.186  -1.812  0.00  0.00    +0.242 C 
ATOM     33  O   UNL     1       1.035   5.306  -2.534  0.00  0.00    -0.273 OA
ATOM     34  H   UNL     1       2.778   7.700  -1.665  0.00  0.00    +0.149 HD
BRANCH  31  35
ATOM     35  C   UNL     1       3.009   6.814  -3.580  0.00  0.00    +0.104 C 
BRANCH  35  36
ATOM     36  C   UNL     1       4.105   7.856  -3.816  0.00  0.00    +0.022 C 
BRANCH  36  38
ATOM     37  C   UNL     1       5.703   8.782  -5.498  0.00  0.00    +0.007 C 
ATOM     38  C   UNL     1       4.696   7.666  -5.215  0.00  0.00    -0.016 C 
ATOM     39  C   UNL     1       5.403   6.311  -5.289  0.00  0.00    +0.007 C 
ENDBRANCH  36  38
ENDBRANCH  35  36
ENDBRANCH  31  35
ENDBRANCH  25  32
ENDBRANCH   1  25
TORSDOF 11
