REMARK  Name = ZINC28932964
REMARK  9 active torsions:
REMARK  status: ('A' for Active; 'I' for Inactive)
REMARK    1  A    between atoms: C_1  and  C_2
REMARK    2  A    between atoms: C_7  and  S_8
REMARK    3  A    between atoms: S_8  and  C_9
REMARK    4  A    between atoms: C_9  and  C_10
REMARK    5  A    between atoms: C_10  and  O_12
REMARK    6  A    between atoms: O_12  and  C_13
REMARK    7  A    between atoms: C_13  and  C_14
REMARK    8  A    between atoms: C_16  and  O_17
REMARK    9  A    between atoms: C_26  and  C_28
REMARK                            x       y       z     vdW  Elec       q    Type
REMARK                         _______ _______ _______ _____ _____    ______ ____
ROOT
ATOM      1  C   UNL     1      -0.848  -6.301   0.341  0.00  0.00    +0.007 A 
ATOM      2  C   UNL     1      -2.014  -6.998   0.339  0.00  0.00    +0.095 A 
ATOM      3  C   UNL     1      -3.242  -6.309   0.254  0.00  0.00    +0.285 A 
ATOM      4  O   UNL     1      -3.295  -4.970   0.176  0.00  0.00    -0.425 OA
ATOM      5  C   UNL     1      -2.173  -4.219   0.173  0.00  0.00    +0.141 A 
ATOM      6  C   UNL     1      -0.913  -4.841   0.254  0.00  0.00    +0.024 A 
ATOM      7  C   UNL     1       0.252  -4.067   0.252  0.00  0.00    +0.014 A 
ATOM      8  C   UNL     1       0.164  -2.708   0.166  0.00  0.00    +0.024 A 
ATOM      9  C   UNL     1      -1.081  -2.085   0.091  0.00  0.00    +0.037 A 
ATOM     10  C   UNL     1      -2.247  -2.837   0.092  0.00  0.00    +0.070 A 
ATOM     11  N   UNL     1      -1.156  -0.694   0.009  0.00  0.00    -0.286 N 
ATOM     12  C   UNL     1      -2.168  -0.037   0.609  0.00  0.00    +0.214 C 
ATOM     13  O   UNL     1      -3.058  -0.658   1.150  0.00  0.00    -0.276 OA
ATOM     14  C   UNL     1      -2.193   1.470   0.609  0.00  0.00    +0.109 C 
ATOM     15  H   UNL     1      -0.388  -0.134  -0.545  0.00  0.00    +0.155 HD
ENDROOT
BRANCH   3  16
ATOM     16  O   UNL     1      -4.280  -6.946   0.253  0.00  0.00    -0.480 OA
ATOM     17  H   UNL     1      -5.246  -6.423   0.188  0.00  0.00    +0.295 HD
ENDBRANCH   3  16
BRANCH   1  18
ATOM     18  C   UNL     1       0.478  -7.013   0.429  0.00  0.00    +0.268 C 
BRANCH  18  19
ATOM     19  O   UNL     1       0.255  -8.445   0.503  0.00  0.00    -0.459 OA
BRANCH  19  20
ATOM     20  C   UNL     1       1.342  -9.228   0.587  0.00  0.00    +0.318 C 
ATOM     21  O   UNL     1       2.444  -8.732   0.599  0.00  0.00    -0.250 OA
BRANCH  20  22
ATOM     22  C   UNL     1       1.188 -10.725   0.668  0.00  0.00    +0.194 C 
BRANCH  22  23
ATOM     23  S   UNL     1       2.827 -11.496   0.771  0.00  0.00    -0.114 S 
BRANCH  23  30
ATOM     24  C   UNL     1       4.951 -13.656   0.959  0.00  0.00    +0.045 C 
ATOM     25  C   UNL     1       3.523 -14.137   0.942  0.00  0.00    -0.036 A 
ATOM     26  C   UNL     1       3.248 -15.489   1.014  0.00  0.00    +0.019 A 
ATOM     27  C   UNL     1       1.938 -15.932   0.992  0.00  0.00    +0.018 A 
ATOM     28  C   UNL     1       0.898 -15.023   0.903  0.00  0.00    +0.016 A 
ATOM     29  C   UNL     1       1.166 -13.671   0.836  0.00  0.00    +0.016 A 
ATOM     30  C   UNL     1       2.481 -13.222   0.857  0.00  0.00    +0.011 A 
ATOM     31 BR   UNL     1       1.567 -17.784   1.084  0.00  0.00    -0.050 Br
ENDBRANCH  23  30
ENDBRANCH  22  23
ENDBRANCH  20  22
ENDBRANCH  19  20
ENDBRANCH  18  19
ENDBRANCH   1  18
TORSDOF 7
