REMARK  Name = ZINC36500703
REMARK  13 active torsions:
REMARK  status: ('A' for Active; 'I' for Inactive)
REMARK    1  A    between atoms: C_1  and  C_2
REMARK    2  A    between atoms: C_2  and  C_3
REMARK    3  A    between atoms: C_3  and  C_4
REMARK    4  A    between atoms: C_4  and  N_5
REMARK    5  A    between atoms: C_6  and  C_8
REMARK    6  A    between atoms: C_8  and  C_10
REMARK    7  A    between atoms: C_8  and  N_17
REMARK    8  A    between atoms: C_14  and  O_16
REMARK    9  A    between atoms: N_17  and  C_18
REMARK   10  A    between atoms: C_18  and  C_19
REMARK   11  A    between atoms: C_24  and  C_26
REMARK   12  A    between atoms: C_30  and  O_33
REMARK   13  A    between atoms: C_31  and  O_32
REMARK                            x       y       z     vdW  Elec       q    Type
REMARK                         _______ _______ _______ _____ _____    ______ ____
ROOT
ATOM      1  N   UNL     1       1.481  -5.938  -4.619  0.00  0.00    -0.275 N 
ATOM      2  C   UNL     1       2.726  -5.613  -5.021  0.00  0.00    +0.252 C 
ATOM      3  O   UNL     1       3.685  -6.213  -4.574  0.00  0.00    -0.270 OA
ENDROOT
BRANCH   2   4
ATOM      4  C   UNL     1       2.925  -4.530  -6.003  0.00  0.00    +0.082 A 
ATOM      5  C   UNL     1       2.339  -3.278  -5.796  0.00  0.00    +0.017 A 
ATOM      6  C   UNL     1       2.527  -2.269  -6.715  0.00  0.00    +0.005 A 
ATOM      7  C   UNL     1       3.297  -2.488  -7.846  0.00  0.00    +0.049 A 
ATOM      8  C   UNL     1       3.884  -3.722  -8.065  0.00  0.00    +0.159 A 
ATOM      9  C   UNL     1       3.707  -4.750  -7.143  0.00  0.00    +0.171 A 
BRANCH   9  10
ATOM     10  O   UNL     1       4.286  -5.960  -7.351  0.00  0.00    -0.503 OA
ATOM     11  H   UNL     1       3.736  -6.578  -7.852  0.00  0.00    +0.292 HD
ENDBRANCH   9  10
BRANCH   8  12
ATOM     12  O   UNL     1       4.638  -3.929  -9.178  0.00  0.00    -0.503 OA
ATOM     13  H   UNL     1       5.575  -3.724  -9.062  0.00  0.00    +0.292 HD
ENDBRANCH   8  12
ENDBRANCH   2   4
BRANCH   1  14
ATOM     14  C   UNL     1       0.323  -5.247  -5.191  0.00  0.00    +0.193 C 
BRANCH  14  15
ATOM     15  C   UNL     1      -0.070  -5.911  -6.485  0.00  0.00    -0.015 A 
ATOM     16  C   UNL     1      -0.188  -7.288  -6.547  0.00  0.00    +0.006 A 
ATOM     17  C   UNL     1      -0.548  -7.900  -7.733  0.00  0.00    +0.004 A 
ATOM     18  C   UNL     1      -0.790  -7.138  -8.860  0.00  0.00    +0.045 A 
ATOM     19  C   UNL     1      -0.673  -5.757  -8.800  0.00  0.00    +0.117 A 
ATOM     20  C   UNL     1      -0.317  -5.144  -7.607  0.00  0.00    +0.051 A 
BRANCH  19  21
ATOM     21  O   UNL     1      -0.911  -5.005  -9.907  0.00  0.00    -0.507 OA
ATOM     22  H   UNL     1      -1.832  -4.725 -10.001  0.00  0.00    +0.292 HD
ENDBRANCH  19  21
ENDBRANCH  14  15
BRANCH  14  24
ATOM     23  N   UNL     1      -1.395  -4.176  -3.770  0.00  0.00    -0.313 N 
ATOM     24  C   UNL     1      -0.830  -5.312  -4.223  0.00  0.00    +0.238 C 
ATOM     25  O   UNL     1      -1.249  -6.388  -3.851  0.00  0.00    -0.273 OA
ATOM     26  H   UNL     1      -1.060  -3.315  -4.067  0.00  0.00    +0.149 HD
BRANCH  23  27
ATOM     27  C   UNL     1      -2.516  -4.239  -2.828  0.00  0.00    +0.104 C 
BRANCH  27  28
ATOM     28  C   UNL     1      -2.967  -2.821  -2.476  0.00  0.00    +0.018 C 
BRANCH  28  30
ATOM     29  C   UNL     1      -4.589  -1.468  -1.141  0.00  0.00    +0.004 C 
ATOM     30  C   UNL     1      -4.138  -2.887  -1.493  0.00  0.00    -0.002 C 
ENDBRANCH  28  30
ENDBRANCH  27  28
ENDBRANCH  23  27
ENDBRANCH  14  24
ENDBRANCH   1  14
BRANCH   1  31
ATOM     31  C   UNL     1       1.286  -6.982  -3.610  0.00  0.00    +0.183 C 
BRANCH  31  32
ATOM     32  C   UNL     1       1.522  -6.405  -2.238  0.00  0.00    +0.122 A 
ATOM     33  C   UNL     1       0.705  -5.555  -1.591  0.00  0.00    +0.046 A 
ATOM     34  C   UNL     1       1.310  -5.274  -0.344  0.00  0.00    +0.041 A 
ATOM     35  C   UNL     1       2.461  -5.970  -0.304  0.00  0.00    +0.195 A 
ATOM     36  O   UNL     1       2.582  -6.657  -1.452  0.00  0.00    -0.466 OA
ENDBRANCH  31  32
ENDBRANCH   1  31
TORSDOF 12
