REMARK  Name = ZINC54339565
REMARK  6 active torsions:
REMARK  status: ('A' for Active; 'I' for Inactive)
REMARK    1  A    between atoms: C_1  and  C_2
REMARK    2  A    between atoms: C_2  and  C_4
REMARK    3  A    between atoms: C_2  and  C_6
REMARK    4  A    between atoms: C_4  and  N_5
REMARK    5  A    between atoms: N_8  and  C_9
REMARK    6  A    between atoms: C_12  and  N_16
REMARK                            x       y       z     vdW  Elec       q    Type
REMARK                         _______ _______ _______ _____ _____    ______ ____
ROOT
ATOM      1  C   UNL     1       0.735  -0.499   1.223  0.00  0.00    +0.218 C 
ATOM      2  O   UNL     1       1.727  -1.185   1.099  0.00  0.00    -0.275 OA
ATOM      3  N   UNL     1       0.278  -0.191   2.453  0.00  0.00    -0.284 N 
ATOM      4  H   UNL     1      -0.476   0.411   2.554  0.00  0.00    +0.155 HD
ENDROOT
BRANCH   3   5
ATOM      5  C   UNL     1       0.891  -0.739   3.585  0.00  0.00    +0.048 A 
ATOM      6  C   UNL     1       2.262  -0.963   3.594  0.00  0.00    +0.026 A 
ATOM      7  C   UNL     1       2.865  -1.504   4.713  0.00  0.00    +0.034 A 
ATOM      8  C   UNL     1       2.105  -1.824   5.824  0.00  0.00    +0.127 A 
ATOM      9  C   UNL     1       0.740  -1.602   5.819  0.00  0.00    +0.049 A 
ATOM     10  C   UNL     1       0.132  -1.055   4.705  0.00  0.00    +0.041 A 
ATOM     11 BR   UNL     1      -1.734  -0.745   4.701  0.00  0.00    -0.048 Br
BRANCH   8  12
ATOM     12  N   UNL     1       2.754  -2.405   7.020  0.00  0.00    +0.056 N 
ATOM     13  O   UNL     1       3.948  -2.599   7.026  0.00  0.00    -0.126 OA
ATOM     14  O   UNL     1       2.092  -2.684   7.992  0.00  0.00    -0.126 OA
ENDBRANCH   8  12
ENDBRANCH   3   5
BRANCH   1  16
ATOM     15  C   UNL     1      -0.002   1.540   0.018  0.00  0.00    +0.015 C 
ATOM     16  C   UNL     1       0.013   0.010   0.002  0.00  0.00    +0.055 C 
BRANCH  16  17
ATOM     17  C   UNL     1       0.732  -0.480  -1.256  0.00  0.00    -0.074 C 
BRANCH  17  18
ATOM     18  N   UNL     1      -0.037  -0.086  -2.445  0.00  0.00    +0.379 N 
ATOM     19  H   UNL     1      -0.957  -0.497  -2.401  0.00  0.00    -0.090 HD
ATOM     20  H   UNL     1      -0.119   0.919  -2.474  0.00  0.00    -0.090 HD
ATOM     21  H   UNL     1       0.438  -0.409  -3.275  0.00  0.00    -0.090 HD
ENDBRANCH  17  18
ENDBRANCH  16  17
ENDBRANCH   1  16
TORSDOF 5
