REMARK  Name = ZINC44173946
REMARK  10 active torsions:
REMARK  status: ('A' for Active; 'I' for Inactive)
REMARK    1  A    between atoms: C_1  and  C_2
REMARK    2  A    between atoms: C_2  and  C_3
REMARK    3  A    between atoms: C_2  and  C_4
REMARK    4  A    between atoms: C_2  and  N_5
REMARK    5  A    between atoms: C_10  and  C_23
REMARK    6  A    between atoms: C_13  and  C_18
REMARK    7  A    between atoms: C_13  and  C_20
REMARK    8  A    between atoms: C_18  and  O_19
REMARK    9  A    between atoms: C_26  and  C_29
REMARK   10  A    between atoms: C_30  and  C_31
REMARK                            x       y       z     vdW  Elec       q    Type
REMARK                         _______ _______ _______ _____ _____    ______ ____
ROOT
ATOM      1  N   UNL     1       0.688  -0.476  -1.203  0.00  0.00    -0.236 N 
ATOM      2  C   UNL     1       0.094  -1.267  -2.156  0.00  0.00    +0.225 C 
ATOM      3  O   UNL     1      -1.087  -1.510  -2.284  0.00  0.00    -0.275 OA
ATOM      4  C   UNL     1       1.184  -1.744  -2.970  0.00  0.00    +0.077 C 
ATOM      5  C   UNL     1       1.444  -2.302  -4.308  0.00  0.00    -0.027 C 
ATOM      6  N   UNL     1       2.946  -2.271  -4.376  0.00  0.00    +0.397 N 
ATOM      7  C   UNL     1       3.425  -1.236  -3.412  0.00  0.00    +0.071 C 
ATOM      8  C   UNL     1       2.155  -0.497  -2.962  0.00  0.00    +0.088 C 
ATOM      9  C   UNL     1       1.986  -0.173  -1.504  0.00  0.00    +0.225 C 
ATOM     10  O   UNL     1       2.828   0.265  -0.750  0.00  0.00    -0.275 OA
ATOM     11  H   UNL     1       3.318  -3.173  -4.122  0.00  0.00    -0.083 HD
ATOM     12  H   UNL     1       3.241  -2.030  -5.310  0.00  0.00    -0.083 HD
ENDROOT
BRANCH   5  13
ATOM     13  C   UNL     1       0.930  -3.715  -4.411  0.00  0.00    -0.061 A 
ATOM     14  C   UNL     1       1.671  -4.758  -3.882  0.00  0.00    +0.002 A 
ATOM     15  C   UNL     1       1.207  -6.053  -3.972  0.00  0.00    +0.008 A 
ATOM     16  C   UNL     1      -0.015  -6.312  -4.599  0.00  0.00    -0.025 A 
ATOM     17  C   UNL     1      -0.758  -5.254  -5.130  0.00  0.00    +0.008 A 
ATOM     18  C   UNL     1      -0.283  -3.963  -5.028  0.00  0.00    +0.002 A 
BRANCH  16  19
ATOM     19  C   UNL     1      -0.518  -7.694  -4.699  0.00  0.00    +0.008 C 
ATOM     20  C   UNL     1      -1.692  -7.939  -5.302  0.00  0.00    +0.008 C 
BRANCH  20  21
ATOM     21  C   UNL     1      -2.195  -9.321  -5.403  0.00  0.00    -0.025 A 
ATOM     22  C   UNL     1      -1.455 -10.378  -4.867  0.00  0.00    +0.008 A 
ATOM     23  C   UNL     1      -1.932 -11.668  -4.964  0.00  0.00    +0.001 A 
ATOM     24  C   UNL     1      -3.140 -11.917  -5.591  0.00  0.00    +0.000 A 
ATOM     25  C   UNL     1      -3.879 -10.875  -6.124  0.00  0.00    +0.001 A 
ATOM     26  C   UNL     1      -3.417  -9.579  -6.029  0.00  0.00    +0.008 A 
ENDBRANCH  20  21
ENDBRANCH  16  19
ENDBRANCH   5  13
BRANCH   1  28
ATOM     27  C   UNL     1      -0.019   1.526   0.010  0.00  0.00    +0.031 C 
ATOM     28  C   UNL     1       0.002  -0.004   0.002  0.00  0.00    +0.036 C 
ATOM     29  C   UNL     1       0.742  -0.511   1.242  0.00  0.00    +0.031 C 
ATOM     30  C   UNL     1      -1.433  -0.534   0.013  0.00  0.00    +0.031 C 
ENDBRANCH   1  28
BRANCH   7  31
ATOM     31  C   UNL     1       4.358  -0.273  -4.100  0.00  0.00    +0.348 C 
ATOM     32  O   UNL     1       4.636  -0.430  -5.277  0.00  0.00    -0.248 OA
ATOM     33  O   UNL     1       4.834   0.663  -3.481  0.00  0.00    -0.248 OA
ENDBRANCH   7  31
BRANCH   7  34
ATOM     34  C   UNL     1       4.129  -1.901  -2.227  0.00  0.00    +0.155 C 
BRANCH  34  35
ATOM     35  O   UNL     1       5.268  -2.626  -2.695  0.00  0.00    -0.396 OA
ATOM     36  H   UNL     1       5.763  -3.074  -1.996  0.00  0.00    +0.209 HD
ENDBRANCH  34  35
ENDBRANCH   7  34
TORSDOF 7
