REMARK  Name = ZINC09252821
REMARK  12 active torsions:
REMARK  status: ('A' for Active; 'I' for Inactive)
REMARK    1  A    between atoms: C_1  and  C_2
REMARK    2  A    between atoms: C_4  and  C_11
REMARK    3  A    between atoms: C_5  and  C_10
REMARK    4  A    between atoms: C_6  and  C_9
REMARK    5  A    between atoms: C_7  and  C_8
REMARK    6  A    between atoms: C_11  and  C_13
REMARK    7  A    between atoms: C_13  and  N_14
REMARK    8  A    between atoms: C_17  and  C_21
REMARK    9  A    between atoms: C_17  and  C_22
REMARK   10  A    between atoms: C_22  and  C_23
REMARK   11  A    between atoms: C_23  and  C_24
REMARK   12  A    between atoms: C_23  and  C_25
REMARK                            x       y       z     vdW  Elec       q    Type
REMARK                         _______ _______ _______ _____ _____    ______ ____
ROOT
ATOM      1  C   UNL     1       2.183   4.280   0.560  0.00  0.00    +0.197 C 
ENDROOT
BRANCH   1   2
ATOM      2  N   UNL     1       1.754   5.588   0.059  0.00  0.00    -0.217 N 
ATOM      3  C   UNL     1       1.587   6.678   0.834  0.00  0.00    +0.247 C 
ATOM      4  O   UNL     1       1.757   6.758   2.031  0.00  0.00    -0.273 OA
ATOM      5  C   UNL     1       1.145   7.784  -0.104  0.00  0.00    +0.110 C 
ATOM      6  N   UNL     1       1.104   7.125  -1.421  0.00  0.00    -0.285 N 
ATOM      7  C   UNL     1       1.475   5.847  -1.224  0.00  0.00    +0.310 C 
ATOM      8  O   UNL     1       1.549   5.020  -2.111  0.00  0.00    -0.252 OA
ATOM      9  C   UNL     1      -0.243   8.293   0.287  0.00  0.00    +0.041 C 
ATOM     10  H   UNL     1       0.856   7.533  -2.266  0.00  0.00    +0.151 HD
BRANCH   5  11
ATOM     11  C   UNL     1       2.156   8.933  -0.109  0.00  0.00    +0.038 C 
BRANCH  11  12
ATOM     12  C   UNL     1       1.684  10.024  -1.071  0.00  0.00    -0.015 C 
ATOM     13  C   UNL     1       2.598  11.245  -0.947  0.00  0.00    +0.007 C 
ATOM     14  C   UNL     1       1.731   9.495  -2.506  0.00  0.00    +0.007 C 
ENDBRANCH  11  12
ENDBRANCH   5  11
ENDBRANCH   1   2
BRANCH   1  15
ATOM     15  C   UNL     1       3.686   4.191   0.509  0.00  0.00    +0.181 C 
ATOM     16  O   UNL     1       4.336   5.127   0.096  0.00  0.00    -0.290 OA
BRANCH  15  20
ATOM     17  C   UNL     1       3.460  -0.493   2.206  0.00  0.00    +0.044 C 
ATOM     18  C   UNL     1       4.264   0.709   1.780  0.00  0.00    -0.047 A 
ATOM     19  C   UNL     1       3.619   1.853   1.357  0.00  0.00    +0.015 A 
ATOM     20  C   UNL     1       4.366   2.967   0.962  0.00  0.00    +0.022 A 
ATOM     21  C   UNL     1       5.763   2.911   0.999  0.00  0.00    -0.037 A 
ATOM     22  C   UNL     1       6.393   1.761   1.425  0.00  0.00    -0.044 A 
ATOM     23  C   UNL     1       5.646   0.662   1.814  0.00  0.00    -0.044 A 
ATOM     24  C   UNL     1       6.343  -0.591   2.277  0.00  0.00    +0.044 C 
ATOM     25  C   UNL     1       7.898   1.699   1.466  0.00  0.00    +0.044 C 
ATOM     26  C   UNL     1       6.579   4.106   0.576  0.00  0.00    +0.045 C 
ENDBRANCH  15  20
ENDBRANCH   1  15
TORSDOF 5
