REMARK  Name = ZINC55185719
REMARK  3 active torsions:
REMARK  status: ('A' for Active; 'I' for Inactive)
REMARK    1  A    between atoms: C_1  and  N_2
REMARK    2  A    between atoms: N_2  and  C_3
REMARK    3  A    between atoms: C_11  and  C_13
REMARK                            x       y       z     vdW  Elec       q    Type
REMARK                         _______ _______ _______ _____ _____    ______ ____
ROOT
ATOM      1  C   UNL     1      -0.083   1.461   0.012  0.00  0.00    +0.132 C 
ATOM      2  N   UNL     1      -0.024  -0.003   0.003  0.00  0.00    -0.295 N 
ATOM      3  C   UNL     1      -0.102  -0.673  -1.163  0.00  0.00    +0.266 C 
ATOM      4  O   UNL     1      -0.153  -1.888  -1.164  0.00  0.00    -0.268 OA
ENDROOT
BRANCH   3   5
ATOM      5  C   UNL     1      -0.124   0.065  -2.436  0.00  0.00    +0.135 A 
ATOM      6  C   UNL     1      -0.337  -0.595  -3.620  0.00  0.00    +0.081 A 
ATOM      7  S   UNL     1      -0.259   0.765  -4.779  0.00  0.00    -0.060 S 
ATOM      8  C   UNL     1       0.045   2.062  -3.588  0.00  0.00    +0.156 A 
ATOM      9  N   UNL     1       0.057   1.388  -2.455  0.00  0.00    -0.221 NA
ATOM     10  N   UNL     1       0.218   3.420  -3.799  0.00  0.00    -0.338 N 
ATOM     11  H   UNL     1       0.178   3.779  -4.698  0.00  0.00    +0.144 HD
ATOM     12  H   UNL     1       0.378   4.011  -3.046  0.00  0.00    +0.144 HD
ENDBRANCH   3   5
BRANCH   2  13
ATOM     13  C   UNL     1       0.119  -0.738   1.262  0.00  0.00    +0.098 C 
ATOM     14  C   UNL     1       1.420  -0.308   1.960  0.00  0.00    +0.046 C 
ATOM     15  C   UNL     1       1.393  -0.854   3.416  0.00  0.00    +0.168 C 
ATOM     16  S   UNL     1      -0.367  -0.540   3.861  0.00  0.00    -0.029 S 
ATOM     17  O   UNL     1      -0.465   0.731   4.487  0.00  0.00    -0.174 OA
ATOM     18  O   UNL     1      -0.888  -1.687   4.519  0.00  0.00    -0.174 OA
ATOM     19  C   UNL     1      -1.093  -0.434   2.175  0.00  0.00    +0.188 C 
ENDBRANCH   2  13
TORSDOF 2
