REMARK  Name = ZINC12636399
REMARK  14 active torsions:
REMARK  status: ('A' for Active; 'I' for Inactive)
REMARK    1  A    between atoms: C_1  and  C_2
REMARK    2  A    between atoms: C_5  and  O_8
REMARK    3  A    between atoms: O_8  and  C_9
REMARK    4  A    between atoms: C_9  and  C_10
REMARK    5  A    between atoms: C_10  and  N_11
REMARK    6  A    between atoms: C_15  and  C_42
REMARK    7  A    between atoms: N_19  and  O_20
REMARK    8  A    between atoms: O_20  and  C_21
REMARK    9  A    between atoms: C_23  and  N_36
REMARK   10  A    between atoms: C_25  and  O_35
REMARK   11  A    between atoms: C_27  and  O_34
REMARK   12  A    between atoms: C_29  and  C_32
REMARK   13  A    between atoms: C_32  and  O_33
REMARK   14  A    between atoms: C_37  and  C_39
REMARK                            x       y       z     vdW  Elec       q    Type
REMARK                         _______ _______ _______ _____ _____    ______ ____
ROOT
ATOM      1  N   UNL     1      -0.018   1.461   0.010  0.00  0.00    -0.262 N 
ATOM      2  C   UNL     1      -1.179   2.228   0.019  0.00  0.00    +0.046 A 
ATOM      3  C   UNL     1      -2.522   1.867   0.023  0.00  0.00    +0.024 A 
ATOM      4  C   UNL     1      -3.501   2.840   0.032  0.00  0.00    +0.005 A 
ATOM      5  C   UNL     1      -3.162   4.182   0.038  0.00  0.00    -0.050 A 
ATOM      6  C   UNL     1      -1.833   4.559   0.044  0.00  0.00    +0.015 A 
ATOM      7  C   UNL     1      -0.840   3.587   0.029  0.00  0.00    +0.030 A 
ATOM      8  C   UNL     1       0.641   3.650   0.016  0.00  0.00    +0.174 C 
ATOM      9  N   UNL     1       1.390   4.716   0.015  0.00  0.00    -0.076 NA
ATOM     10  C   UNL     1       1.083   2.232   0.004  0.00  0.00    +0.273 C 
ATOM     11  O   UNL     1       2.233   1.840  -0.009  0.00  0.00    -0.268 OA
ATOM     12  C   UNL     1      -4.242   5.232   0.047  0.00  0.00    +0.044 C 
ENDROOT
BRANCH   1  13
ATOM     13  C   UNL     1       0.002  -0.004   0.002  0.00  0.00    +0.155 C 
BRANCH  13  14
ATOM     14  C   UNL     1       0.022  -0.522   1.442  0.00  0.00    +0.248 C 
BRANCH  14  15
ATOM     15  O   UNL     1      -1.198  -0.164   2.094  0.00  0.00    -0.490 OA
BRANCH  15  20
ATOM     16  C   UNL     1      -1.796  -1.769   7.459  0.00  0.00    +0.044 C 
ATOM     17  C   UNL     1      -1.636  -1.339   6.024  0.00  0.00    -0.050 A 
ATOM     18  C   UNL     1      -2.646  -0.632   5.398  0.00  0.00    +0.007 A 
ATOM     19  C   UNL     1      -2.502  -0.237   4.082  0.00  0.00    +0.046 A 
ATOM     20  C   UNL     1      -1.343  -0.551   3.388  0.00  0.00    +0.121 A 
ATOM     21  C   UNL     1      -0.333  -1.266   4.016  0.00  0.00    +0.046 A 
ATOM     22  C   UNL     1      -0.480  -1.654   5.334  0.00  0.00    +0.007 A 
ENDBRANCH  15  20
ENDBRANCH  14  15
ENDBRANCH  13  14
ENDBRANCH   1  13
BRANCH   9  23
ATOM     23  O   UNL     1       0.795   6.000   0.028  0.00  0.00    -0.359 OA
BRANCH  23  24
ATOM     24  C   UNL     1       1.734   7.077   0.025  0.00  0.00    +0.360 C 
ATOM     25  C   UNL     1       1.135   8.279   0.759  0.00  0.00    +0.175 C 
ATOM     26  C   UNL     1      -0.115   8.752   0.012  0.00  0.00    +0.172 C 
ATOM     27  C   UNL     1       0.263   9.083  -1.435  0.00  0.00    +0.176 C 
ATOM     28  C   UNL     1       0.896   7.850  -2.084  0.00  0.00    +0.179 C 
ATOM     29  O   UNL     1       2.035   7.444  -1.323  0.00  0.00    -0.330 OA
BRANCH  25  30
ATOM     30  N   UNL     1       0.772   7.889   2.123  0.00  0.00    -0.304 N 
ATOM     31  C   UNL     1       1.698   7.918   3.102  0.00  0.00    +0.210 C 
ATOM     32  O   UNL     1       2.832   8.267   2.853  0.00  0.00    -0.276 OA
ATOM     33  C   UNL     1       1.324   7.516   4.506  0.00  0.00    +0.109 C 
ATOM     34  H   UNL     1      -0.136   7.609   2.322  0.00  0.00    +0.149 HD
ENDBRANCH  25  30
BRANCH  27  35
ATOM     35  O   UNL     1       1.198  10.163  -1.449  0.00  0.00    -0.387 OA
ATOM     36  H   UNL     1       1.482  10.427  -2.335  0.00  0.00    +0.210 HD
ENDBRANCH  27  35
BRANCH  26  37
ATOM     37  O   UNL     1      -1.100   7.716   0.023  0.00  0.00    -0.387 OA
ATOM     38  H   UNL     1      -1.920   7.948  -0.433  0.00  0.00    +0.210 HD
ENDBRANCH  26  37
BRANCH  28  39
ATOM     39  C   UNL     1       1.331   8.190  -3.511  0.00  0.00    +0.190 C 
BRANCH  39  40
ATOM     40  O   UNL     1       1.814   7.011  -4.156  0.00  0.00    -0.392 OA
ATOM     41  H   UNL     1       2.108   7.152  -5.066  0.00  0.00    +0.210 HD
ENDBRANCH  39  40
ENDBRANCH  28  39
ENDBRANCH  23  24
ENDBRANCH   9  23
TORSDOF 11
