REMARK  Name = ZINC19899184
REMARK  8 active torsions:
REMARK  status: ('A' for Active; 'I' for Inactive)
REMARK    1  A    between atoms: C_1  and  C_2
REMARK    2  A    between atoms: C_5  and  N_9
REMARK    3  A    between atoms: C_6  and  C_8
REMARK    4  A    between atoms: C_12  and  C_17
REMARK    5  A    between atoms: C_17  and  N_18
REMARK    6  A    between atoms: N_21  and  C_24
REMARK    7  A    between atoms: C_24  and  C_25
REMARK    8  A    between atoms: C_25  and  C_26
REMARK                            x       y       z     vdW  Elec       q    Type
REMARK                         _______ _______ _______ _____ _____    ______ ____
ROOT
ATOM      1  N   UNL     1      -3.972   6.869  -2.206  0.00  0.00    -0.283 N 
ATOM      2  C   UNL     1      -2.659   6.662  -2.580  0.00  0.00    +0.224 A 
ATOM      3  N   UNL     1      -1.769   6.242  -1.683  0.00  0.00    -0.198 NA
ATOM      4  C   UNL     1      -0.512   6.045  -2.040  0.00  0.00    +0.150 A 
ATOM      5  N   UNL     1      -0.132   6.268  -3.286  0.00  0.00    -0.198 NA
ATOM      6  C   UNL     1      -1.017   6.683  -4.189  0.00  0.00    +0.217 A 
ATOM      7  N   UNL     1      -2.281   6.883  -3.834  0.00  0.00    -0.181 NA
ATOM      8  N   UNL     1      -0.620   6.910  -5.491  0.00  0.00    -0.327 N 
ATOM      9  H   UNL     1      -4.306   6.595  -1.195  0.00  0.00    +0.155 HD
ATOM     10  H   UNL     1      -1.352   7.252  -6.237  0.00  0.00    +0.145 HD
ATOM     11  H   UNL     1       0.428   6.748  -5.783  0.00  0.00    +0.145 HD
ENDROOT
BRANCH   1  16
ATOM     12  C   UNL     1      -7.647   9.128  -5.890  0.00  0.00    +0.044 C 
ATOM     13  C   UNL     1      -6.671   8.528  -4.911  0.00  0.00    -0.050 A 
ATOM     14  C   UNL     1      -5.317   8.777  -5.046  0.00  0.00    +0.005 A 
ATOM     15  C   UNL     1      -4.420   8.228  -4.151  0.00  0.00    +0.024 A 
ATOM     16  C   UNL     1      -4.878   7.426  -3.114  0.00  0.00    +0.037 A 
ATOM     17  C   UNL     1      -6.238   7.173  -2.985  0.00  0.00    -0.029 A 
ATOM     18  C   UNL     1      -7.130   7.729  -3.880  0.00  0.00    +0.008 A 
ATOM     19  C   UNL     1      -6.739   6.297  -1.865  0.00  0.00    +0.045 C 
ENDBRANCH   1  16
BRANCH   4  20
ATOM     20  C   UNL     1       0.492   5.569  -1.021  0.00  0.00    +0.160 C 
BRANCH  20  21
ATOM     21  N   UNL     1       0.521   4.100  -1.011  0.00  0.00    -0.299 NA
ATOM     22  C   UNL     1       1.306   3.597   0.125  0.00  0.00    +0.066 C 
ATOM     23  C   UNL     1       1.378   2.070   0.055  0.00  0.00    -0.063 C 
ATOM     24  N   UNL     1       0.016   1.517   0.074  0.00  0.00    +0.382 N 
ATOM     25  C   UNL     1      -0.769   2.020  -1.061  0.00  0.00    -0.063 C 
ATOM     26  C   UNL     1      -0.841   3.547  -0.992  0.00  0.00    +0.066 C 
ATOM     27  H   UNL     1      -0.473   1.851   1.001  0.00  0.00    -0.082 HD
BRANCH  24  28
ATOM     28  C   UNL     1       0.045   0.048   0.085  0.00  0.00    -0.074 C 
BRANCH  28  29
ATOM     29  C   UNL     1      -1.363  -0.487   0.355  0.00  0.00    +0.016 C 
BRANCH  29  30
ATOM     30  C   UNL     1      -1.333  -1.994   0.366  0.00  0.00    -0.049 A 
ATOM     31  C   UNL     1      -1.546  -2.698  -0.805  0.00  0.00    +0.003 A 
ATOM     32  C   UNL     1      -1.514  -4.080  -0.796  0.00  0.00    +0.000 A 
ATOM     33  C   UNL     1      -1.280  -4.758   0.386  0.00  0.00    +0.000 A 
ATOM     34  C   UNL     1      -1.073  -4.054   1.557  0.00  0.00    +0.000 A 
ATOM     35  C   UNL     1      -1.099  -2.672   1.547  0.00  0.00    +0.003 A 
ENDBRANCH  29  30
ENDBRANCH  28  29
ENDBRANCH  24  28
ENDBRANCH  20  21
ENDBRANCH   4  20
TORSDOF 6
