REMARK  Name = ZINC56862541
REMARK  9 active torsions:
REMARK  status: ('A' for Active; 'I' for Inactive)
REMARK    1  A    between atoms: C_4  and  C_7
REMARK    2  A    between atoms: C_7  and  C_8
REMARK    3  A    between atoms: C_8  and  C_10
REMARK    4  A    between atoms: C_8  and  N_19
REMARK    5  A    between atoms: N_12  and  C_13
REMARK    6  A    between atoms: C_13  and  C_14
REMARK    7  A    between atoms: C_14  and  S_15
REMARK    8  A    between atoms: S_15  and  N_18
REMARK    9  A    between atoms: C_20  and  C_22
REMARK                            x       y       z     vdW  Elec       q    Type
REMARK                         _______ _______ _______ _____ _____    ______ ____
ROOT
ATOM      1  C   UNL     1       4.171  -0.963   1.399  0.00  0.00    +0.163 C 
ENDROOT
BRANCH   1   2
ATOM      2  C   UNL     1       5.543  -1.588   1.383  0.00  0.00    +0.234 C 
ATOM      3  O   UNL     1       5.715  -2.683   1.875  0.00  0.00    -0.274 OA
ATOM      4  N   UNL     1       6.577  -0.931   0.823  0.00  0.00    -0.312 N 
ATOM      5  H   UNL     1       6.438  -0.055   0.429  0.00  0.00    +0.149 HD
BRANCH   4   6
ATOM      6  C   UNL     1       7.910  -1.538   0.807  0.00  0.00    +0.128 C 
BRANCH   6   7
ATOM      7  C   UNL     1       8.894  -0.592   0.117  0.00  0.00    +0.203 C 
BRANCH   7   8
ATOM      8  S   UNL     1      10.544  -1.344   0.099  0.00  0.00    +0.028 S 
ATOM      9  O   UNL     1      11.061  -1.424   1.420  0.00  0.00    -0.158 OA
ATOM     10  O   UNL     1      10.554  -2.481  -0.753  0.00  0.00    -0.158 OA
BRANCH   8  11
ATOM     11  N   UNL     1      11.509  -0.235  -0.665  0.00  0.00    -0.208 NA
ATOM     12  H   UNL     1      11.130   0.600  -0.983  0.00  0.00    +0.144 HD
ATOM     13  H   UNL     1      12.452  -0.421  -0.795  0.00  0.00    +0.144 HD
ENDBRANCH   8  11
ENDBRANCH   7   8
ENDBRANCH   6   7
ENDBRANCH   4   6
ENDBRANCH   1   2
BRANCH   1  14
ATOM     14  N   UNL     1       3.229  -1.870   2.059  0.00  0.00    -0.299 N 
ATOM     15  C   UNL     1       2.116  -1.379   2.640  0.00  0.00    +0.251 C 
ATOM     16  O   UNL     1       1.895  -0.182   2.616  0.00  0.00    -0.270 OA
ATOM     17  H   UNL     1       3.406  -2.823   2.078  0.00  0.00    +0.150 HD
BRANCH  15  18
ATOM     18  C   UNL     1       1.173  -2.286   3.301  0.00  0.00    +0.074 A 
ATOM     19  C   UNL     1      -0.018  -1.990   3.946  0.00  0.00    +0.021 A 
ATOM     20  C   UNL     1      -0.693  -3.064   4.475  0.00  0.00    +0.008 A 
ATOM     21  C   UNL     1      -0.167  -4.306   4.337  0.00  0.00    +0.046 A 
ATOM     22  S   UNL     1       1.255  -4.058   3.478  0.00  0.00    -0.092 S 
ENDBRANCH  15  18
ENDBRANCH   1  14
BRANCH   1  23
ATOM     23  C   UNL     1       3.711  -0.707  -0.038  0.00  0.00    +0.067 C 
BRANCH  23  27
ATOM     24  C   UNL     1      -0.017   1.378   0.010  0.00  0.00    +0.000 A 
ATOM     25  C   UNL     1       1.171   2.086   0.002  0.00  0.00    +0.000 A 
ATOM     26  C   UNL     1       2.377   1.411  -0.013  0.00  0.00    +0.004 A 
ATOM     27  C   UNL     1       2.396   0.029  -0.020  0.00  0.00    -0.045 A 
ATOM     28  C   UNL     1       1.208  -0.679  -0.012  0.00  0.00    +0.004 A 
ATOM     29  C   UNL     1       0.002  -0.004   0.002  0.00  0.00    +0.000 A 
ENDBRANCH  23  27
ENDBRANCH   1  23
TORSDOF 9
