REMARK  Name = ZINC01568071
REMARK  14 active torsions:
REMARK  status: ('A' for Active; 'I' for Inactive)
REMARK    1  A    between atoms: C_1  and  C_2
REMARK    2  A    between atoms: C_2  and  C_3
REMARK    3  A    between atoms: C_3  and  C_4
REMARK    4  A    between atoms: C_7  and  C_12
REMARK    5  A    between atoms: N_9  and  C_11
REMARK    6  A    between atoms: N_14  and  C_15
REMARK    7  A    between atoms: C_15  and  C_17
REMARK    8  A    between atoms: C_15  and  C_33
REMARK    9  A    between atoms: C_19  and  O_32
REMARK   10  A    between atoms: C_21  and  O_31
REMARK   11  A    between atoms: C_23  and  O_30
REMARK   12  A    between atoms: C_25  and  S_28
REMARK   13  A    between atoms: S_28  and  C_29
REMARK   14  A    between atoms: C_33  and  C_35
REMARK                            x       y       z     vdW  Elec       q    Type
REMARK                         _______ _______ _______ _____ _____    ______ ____
ROOT
ATOM      1  C   UNL     1       0.862  -2.017  -1.204  0.00  0.00    +0.122 C 
ENDROOT
BRANCH   1   2
ATOM      2  C   UNL     1       0.785  -0.489  -1.221  0.00  0.00    +0.172 C 
ATOM      3  C   UNL     1       0.002  -0.004   0.002  0.00  0.00    +0.176 C 
ATOM      4  C   UNL     1      -0.019   1.528   0.010  0.00  0.00    +0.177 C 
ATOM      5  C   UNL     1       1.422   2.047  -0.001  0.00  0.00    +0.184 C 
ATOM      6  C   UNL     1       2.151   1.482  -1.223  0.00  0.00    +0.207 C 
ATOM      7  O   UNL     1       2.106   0.054  -1.185  0.00  0.00    -0.356 OA
BRANCH   6   8
ATOM      8  S   UNL     1       3.878   2.035  -1.206  0.00  0.00    -0.131 S 
ATOM      9  C   UNL     1       4.510   1.550  -2.836  0.00  0.00    +0.087 C 
ENDBRANCH   6   8
BRANCH   5  10
ATOM     10  O   UNL     1       1.415   3.474  -0.066  0.00  0.00    -0.386 OA
ATOM     11  H   UNL     1       2.365   4.029  -0.083  0.00  0.00    +0.210 HD
ENDBRANCH   5  10
BRANCH   4  12
ATOM     12  O   UNL     1      -0.685   1.990   1.187  0.00  0.00    -0.386 OA
ATOM     13  H   UNL     1      -0.797   3.069   1.367  0.00  0.00    +0.210 HD
ENDBRANCH   4  12
BRANCH   3  14
ATOM     14  O   UNL     1      -1.337  -0.499  -0.061  0.00  0.00    -0.387 OA
ATOM     15  H   UNL     1      -2.053  -0.253   0.737  0.00  0.00    +0.210 HD
ENDBRANCH   3  14
ENDBRANCH   1   2
BRANCH   1  18
ATOM     16  C   UNL     1      -0.728  -3.805  -0.741  0.00  0.00    +0.200 C 
ATOM     17  O   UNL     1       0.181  -4.450  -0.264  0.00  0.00    -0.278 OA
ATOM     18  N   UNL     1      -0.493  -2.575  -1.239  0.00  0.00    -0.310 N 
ATOM     19  H   UNL     1      -1.317  -1.989  -1.672  0.00  0.00    +0.149 HD
BRANCH  16  22
ATOM     20  C   UNL     1      -3.383  -5.055   1.212  0.00  0.00    -0.029 C 
ATOM     21  C   UNL     1      -2.950  -3.817   0.393  0.00  0.00    -0.005 C 
ATOM     22  C   UNL     1      -2.122  -4.378  -0.777  0.00  0.00    +0.019 C 
ATOM     23  N   UNL     1      -2.067  -5.846  -0.605  0.00  0.00    +0.386 N 
ATOM     24  C   UNL     1      -3.274  -6.207   0.182  0.00  0.00    -0.075 C 
ATOM     25  C   UNL     1      -2.063  -6.528  -1.906  0.00  0.00    -0.095 C 
ATOM     26  H   UNL     1      -1.141  -6.158  -0.100  0.00  0.00    -0.081 HD
BRANCH  20  27
ATOM     27  C   UNL     1      -4.823  -4.905   1.707  0.00  0.00    +0.001 C 
BRANCH  27  29
ATOM     28  C   UNL     1      -6.657  -5.995   3.007  0.00  0.00    +0.004 C 
ATOM     29  C   UNL     1      -5.217  -6.145   2.512  0.00  0.00    -0.003 C 
ENDBRANCH  27  29
ENDBRANCH  20  27
ENDBRANCH  16  22
ENDBRANCH   1  18
BRANCH   1  30
ATOM     30  C   UNL     1       1.645  -2.502  -2.426  0.00  0.00    +0.100 C 
ATOM     31  C   UNL     1       1.615  -4.031  -2.477  0.00  0.00    +0.026 C 
ATOM     32 CL   UNL     1       0.893  -1.836  -3.924  0.00  0.00    -0.120 Cl
ENDBRANCH   1  30
TORSDOF 10
