REMARK  Name = ZINC46060854
REMARK  8 active torsions:
REMARK  status: ('A' for Active; 'I' for Inactive)
REMARK    1  A    between atoms: C_6  and  O_11
REMARK    2  A    between atoms: O_11  and  C_12
REMARK    3  A    between atoms: C_12  and  C_13
REMARK    4  A    between atoms: C_13  and  C_15
REMARK    5  A    between atoms: C_13  and  O_30
REMARK    6  A    between atoms: C_15  and  N_16
REMARK    7  A    between atoms: C_19  and  C_21
REMARK    8  A    between atoms: C_24  and  N_27
REMARK                            x       y       z     vdW  Elec       q    Type
REMARK                         _______ _______ _______ _____ _____    ______ ____
ROOT
ATOM      1  C   UNL     1       6.260  -4.616  -0.082  0.00  0.00    +0.173 C 
ENDROOT
BRANCH   1   2
ATOM      2  O   UNL     1       6.922  -4.264   1.135  0.00  0.00    -0.387 OA
ATOM      3  H   UNL     1       6.492  -4.607   1.930  0.00  0.00    +0.210 HD
ENDBRANCH   1   2
BRANCH   1   4
ATOM      4  C   UNL     1       4.834  -4.062  -0.065  0.00  0.00    +0.262 C 
BRANCH   4   5
ATOM      5  O   UNL     1       4.878  -2.633  -0.059  0.00  0.00    -0.489 OA
BRANCH   5  11
ATOM      6  C   UNL     1      -0.016   1.357   0.009  0.00  0.00    +0.001 A 
ATOM      7  C   UNL     1       1.169   2.091   0.002  0.00  0.00    +0.001 A 
ATOM      8  C   UNL     1       2.378   1.468  -0.013  0.00  0.00    +0.008 A 
ATOM      9  C   UNL     1       2.437   0.063  -0.021  0.00  0.00    -0.014 A 
ATOM     10  C   UNL     1       3.668  -0.614  -0.037  0.00  0.00    +0.054 A 
ATOM     11  C   UNL     1       3.687  -1.980  -0.044  0.00  0.00    +0.121 A 
ATOM     12  C   UNL     1       2.497  -2.714  -0.036  0.00  0.00    +0.046 A 
ATOM     13  C   UNL     1       1.289  -2.088  -0.022  0.00  0.00    +0.012 A 
ATOM     14  C   UNL     1       1.232  -0.683  -0.013  0.00  0.00    -0.018 A 
ATOM     15  C   UNL     1       0.002  -0.004   0.002  0.00  0.00    +0.008 A 
ENDBRANCH   5  11
ENDBRANCH   4   5
ENDBRANCH   1   4
BRANCH   1  16
ATOM     16  C   UNL     1       6.213  -6.139  -0.215  0.00  0.00    +0.180 C 
BRANCH  16  17
ATOM     17  N   UNL     1       7.576  -6.660  -0.351  0.00  0.00    -0.249 N 
ATOM     18  C   UNL     1       8.157  -7.603   0.412  0.00  0.00    +0.219 A 
ATOM     19  N   UNL     1       9.374  -7.792  -0.025  0.00  0.00    -0.215 NA
ATOM     20  C   UNL     1       9.611  -6.986  -1.068  0.00  0.00    +0.181 A 
ATOM     21  N   UNL     1       8.530  -6.276  -1.307  0.00  0.00    -0.150 NA
BRANCH  20  22
ATOM     22  C   UNL     1      10.881  -6.911  -1.833  0.00  0.00    +0.021 A 
ATOM     23  C   UNL     1      11.004  -6.023  -2.899  0.00  0.00    +0.014 A 
ATOM     24  C   UNL     1      12.187  -5.958  -3.607  0.00  0.00    +0.033 A 
ATOM     25  C   UNL     1      13.250  -6.772  -3.259  0.00  0.00    +0.126 A 
ATOM     26  C   UNL     1      13.133  -7.656  -2.201  0.00  0.00    +0.033 A 
ATOM     27  C   UNL     1      11.957  -7.725  -1.483  0.00  0.00    +0.014 A 
BRANCH  25  28
ATOM     28  N   UNL     1      14.517  -6.698  -4.021  0.00  0.00    +0.056 N 
ATOM     29  O   UNL     1      14.621  -5.926  -4.946  0.00  0.00    -0.126 OA
ATOM     30  O   UNL     1      15.447  -7.408  -3.719  0.00  0.00    -0.126 OA
ENDBRANCH  25  28
ENDBRANCH  20  22
ENDBRANCH  16  17
ENDBRANCH   1  16
TORSDOF 8
