REMARK  Name = ZINC03516769
REMARK  4 active torsions:
REMARK  status: ('A' for Active; 'I' for Inactive)
REMARK    1  A    between atoms: C_1  and  C_2
REMARK    2  A    between atoms: N_11  and  C_15
REMARK    3  A    between atoms: C_15  and  C_16
REMARK    4  A    between atoms: N_21  and  C_22
REMARK                            x       y       z     vdW  Elec       q    Type
REMARK                         _______ _______ _______ _____ _____    ______ ____
ROOT
ATOM      1  C   UNL     1      -1.536   3.561   2.539  0.00  0.00    +0.010 C 
ATOM      2  C   UNL     1      -0.790   3.101   1.286  0.00  0.00    +0.018 C 
ATOM      3  C   UNL     1      -1.527   3.600   0.040  0.00  0.00    +0.006 C 
ATOM      4  C   UNL     1      -0.790   3.122  -1.213  0.00  0.00    +0.000 C 
ATOM      5  C   UNL     1      -0.753   1.593  -1.233  0.00  0.00    +0.003 C 
ATOM      6  C   UNL     1      -0.013   1.086   0.008  0.00  0.00    +0.035 C 
ATOM      7  C   UNL     1      -0.726   1.577   1.263  0.00  0.00    +0.115 C 
ATOM      8  C   UNL     1      -2.117   0.991   1.342  0.00  0.00    +0.247 C 
ATOM      9  O   UNL     1      -3.023   1.142   0.552  0.00  0.00    -0.273 OA
ATOM     10  N   UNL     1      -2.136   0.263   2.478  0.00  0.00    -0.215 N 
ATOM     11  C   UNL     1      -0.960   0.312   3.115  0.00  0.00    +0.310 C 
ATOM     12  O   UNL     1      -0.734  -0.264   4.161  0.00  0.00    -0.252 OA
ATOM     13  N   UNL     1      -0.056   1.072   2.468  0.00  0.00    -0.285 N 
ATOM     14  H   UNL     1       0.857   1.250   2.743  0.00  0.00    +0.151 HD
ENDROOT
BRANCH  10  15
ATOM     15  C   UNL     1      -3.300  -0.489   2.954  0.00  0.00    +0.214 C 
BRANCH  15  16
ATOM     16  C   UNL     1      -3.259  -1.887   2.394  0.00  0.00    +0.238 C 
ATOM     17  O   UNL     1      -2.347  -2.223   1.669  0.00  0.00    -0.274 OA
ATOM     18  N   UNL     1      -4.235  -2.765   2.700  0.00  0.00    -0.239 N 
ATOM     19  C   UNL     1      -4.198  -4.015   2.199  0.00  0.00    +0.306 C 
ATOM     20  O   UNL     1      -3.284  -4.352   1.472  0.00  0.00    -0.252 OA
ATOM     21  N   UNL     1      -5.174  -4.893   2.504  0.00  0.00    -0.296 N 
ATOM     22  H   UNL     1      -4.965  -2.496   3.280  0.00  0.00    +0.159 HD
ATOM     23  H   UNL     1      -5.904  -4.624   3.084  0.00  0.00    +0.151 HD
BRANCH  21  24
ATOM     24  C   UNL     1      -5.134  -6.252   1.960  0.00  0.00    +0.074 C 
ATOM     25  C   UNL     1      -5.829  -6.291   0.583  0.00  0.00    +0.022 C 
ATOM     26  C   UNL     1      -6.558  -7.658   0.564  0.00  0.00    +0.002 C 
ATOM     27  C   UNL     1      -7.061  -7.797   2.022  0.00  0.00    +0.002 C 
ATOM     28  C   UNL     1      -5.917  -7.210   2.875  0.00  0.00    +0.022 C 
ENDBRANCH  21  24
ENDBRANCH  15  16
ENDBRANCH  10  15
TORSDOF 3
