REMARK  Name = ZINC66118463
REMARK  9 active torsions:
REMARK  status: ('A' for Active; 'I' for Inactive)
REMARK    1  A    between atoms: C_1  and  C_2
REMARK    2  A    between atoms: C_2  and  C_3
REMARK    3  A    between atoms: C_3  and  C_5
REMARK    4  A    between atoms: C_3  and  O_6
REMARK    5  A    between atoms: O_6  and  C_7
REMARK    6  A    between atoms: C_11  and  C_13
REMARK    7  A    between atoms: C_13  and  C_30
REMARK    8  A    between atoms: N_23  and  C_24
REMARK    9  A    between atoms: C_24  and  C_25
REMARK                            x       y       z     vdW  Elec       q    Type
REMARK                         _______ _______ _______ _____ _____    ______ ____
ROOT
ATOM      1  C   UNL     1      -0.178   0.935  -7.079  0.00  0.00    +0.125 C 
ATOM      2  N   UNL     1      -1.596   0.572  -6.970  0.00  0.00    -0.319 N 
ATOM      3  C   UNL     1      -1.964  -0.755  -7.159  0.00  0.00    +0.041 A 
ATOM      4  C   UNL     1      -3.077  -1.298  -6.539  0.00  0.00    +0.024 A 
ATOM      5  C   UNL     1      -3.409  -2.620  -6.766  0.00  0.00    +0.002 A 
ATOM      6  C   UNL     1      -2.639  -3.405  -7.609  0.00  0.00    +0.001 A 
ATOM      7  C   UNL     1      -1.525  -2.881  -8.231  0.00  0.00    +0.015 A 
ATOM      8  C   UNL     1      -1.175  -1.551  -8.008  0.00  0.00    +0.058 A 
ATOM      9  C   UNL     1       0.019  -0.951  -8.629  0.00  0.00    +0.251 C 
ATOM     10  O   UNL     1       0.629  -1.552  -9.492  0.00  0.00    -0.270 OA
ATOM     11  N   UNL     1       0.428   0.271  -8.233  0.00  0.00    -0.265 N 
ATOM     12  C   UNL     1      -0.058   2.451  -7.247  0.00  0.00    +0.059 C 
ATOM     13  H   UNL     1      -2.264   1.246  -6.769  0.00  0.00    +0.148 HD
ENDROOT
BRANCH   1  18
ATOM     14  C   UNL     1       1.197   0.946  -3.559  0.00  0.00    +0.121 A 
ATOM     15  C   UNL     1       1.869  -0.268  -3.524  0.00  0.00    +0.045 A 
ATOM     16  C   UNL     1       1.876  -1.085  -4.637  0.00  0.00    +0.004 A 
ATOM     17  C   UNL     1       1.213  -0.696  -5.786  0.00  0.00    +0.007 A 
ATOM     18  C   UNL     1       0.543   0.513  -5.824  0.00  0.00    -0.003 A 
ATOM     19  C   UNL     1       0.529   1.332  -4.712  0.00  0.00    +0.053 A 
BRANCH  14  20
ATOM     20  O   UNL     1       1.189   1.752  -2.465  0.00  0.00    -0.489 OA
BRANCH  20  21
ATOM     21  C   UNL     1       0.376   2.925  -2.530  0.00  0.00    +0.170 C 
ATOM     22  C   UNL     1       1.171   4.062  -3.176  0.00  0.00    +0.052 C 
BRANCH  21  24
ATOM     23  C   UNL     1      -0.940   2.252  -0.516  0.00  0.00    +0.007 C 
ATOM     24  C   UNL     1      -0.042   3.335  -1.116  0.00  0.00    +0.041 C 
ENDBRANCH  21  24
ENDBRANCH  20  21
ENDBRANCH  14  20
ENDBRANCH   1  18
BRANCH  11  25
ATOM     25  C   UNL     1       1.500   0.945  -8.970  0.00  0.00    +0.184 C 
BRANCH  25  26
ATOM     26  C   UNL     1       2.820   0.679  -8.293  0.00  0.00    +0.122 A 
ATOM     27  C   UNL     1       3.682  -0.304  -8.609  0.00  0.00    +0.046 A 
ATOM     28  C   UNL     1       4.780  -0.185  -7.727  0.00  0.00    +0.041 A 
ATOM     29  C   UNL     1       4.524   0.864  -6.925  0.00  0.00    +0.195 A 
ATOM     30  O   UNL     1       3.337   1.386  -7.276  0.00  0.00    -0.466 OA
ENDBRANCH  25  26
ENDBRANCH  11  25
TORSDOF 6
