REMARK  Name = ZINC23989360
REMARK  16 active torsions:
REMARK  status: ('A' for Active; 'I' for Inactive)
REMARK    1  A    between atoms: C_1  and  C_2
REMARK    2  A    between atoms: C_2  and  O_3
REMARK    3  A    between atoms: O_3  and  C_4
REMARK    4  A    between atoms: C_4  and  C_6
REMARK    5  A    between atoms: C_7  and  C_36
REMARK    6  A    between atoms: C_11  and  N_35
REMARK    7  A    between atoms: C_13  and  C_15
REMARK    8  A    between atoms: C_15  and  N_16
REMARK    9  A    between atoms: N_16  and  C_17
REMARK   10  A    between atoms: N_16  and  C_18
REMARK   11  A    between atoms: C_18  and  C_19
REMARK   12  A    between atoms: C_23  and  C_29
REMARK   13  A    between atoms: C_24  and  C_28
REMARK   14  A    between atoms: C_29  and  O_31
REMARK   15  A    between atoms: O_31  and  C_32
REMARK   16  A    between atoms: C_32  and  C_33
REMARK                            x       y       z     vdW  Elec       q    Type
REMARK                         _______ _______ _______ _____ _____    ______ ____
ROOT
ATOM      1  N   UNL     1       2.754   8.088  -4.020  0.00  0.00    -0.291 NA
ATOM      2  C   UNL     1       3.389   7.021  -4.806  0.00  0.00    +0.105 C 
ENDROOT
BRANCH   1   3
ATOM      3  C   UNL     1       1.358   7.753  -3.708  0.00  0.00    +0.161 C 
BRANCH   3  11
ATOM      4  C   UNL     1       1.232   3.545   0.009  0.00  0.00    +0.112 A 
ATOM      5  C   UNL     1       1.268   4.362   1.098  0.00  0.00    +0.119 A 
ATOM      6  O   UNL     1       1.319   5.641   0.703  0.00  0.00    -0.441 OA
ATOM      7  C   UNL     1       1.310   5.741  -0.638  0.00  0.00    +0.233 A 
ATOM      8  C   UNL     1       1.256   4.441  -1.160  0.00  0.00    +0.094 A 
ATOM      9  C   UNL     1       1.235   4.268  -2.548  0.00  0.00    +0.132 A 
ATOM     10  N   UNL     1       1.270   5.352  -3.320  0.00  0.00    -0.216 NA
ATOM     11  C   UNL     1       1.321   6.560  -2.788  0.00  0.00    +0.149 A 
ATOM     12  N   UNL     1       1.341   6.764  -1.488  0.00  0.00    -0.196 NA
ATOM     13  C   UNL     1       1.257   3.897   2.532  0.00  0.00    +0.087 C 
BRANCH   9  14
ATOM     14  N   UNL     1       1.182   3.003  -3.105  0.00  0.00    -0.342 N 
ATOM     15  H   UNL     1       1.167   2.883  -4.198  0.00  0.00    +0.144 HD
ATOM     16  H   UNL     1       1.155   2.116  -2.454  0.00  0.00    +0.144 HD
ENDBRANCH   9  14
BRANCH   4  17
ATOM     17  C   UNL     1       1.175   2.076   0.002  0.00  0.00    +0.343 C 
ATOM     18  O   UNL     1       2.204   1.428  -0.011  0.00  0.00    -0.245 OA
BRANCH  17  19
ATOM     19  O   UNL     1      -0.018   1.448   0.010  0.00  0.00    -0.461 OA
BRANCH  19  21
ATOM     20  C   UNL     1      -1.433  -0.534   0.013  0.00  0.00    +0.048 C 
ATOM     21  C   UNL     1       0.002  -0.004   0.002  0.00  0.00    +0.229 C 
ENDBRANCH  19  21
ENDBRANCH  17  19
ENDBRANCH   4  17
ENDBRANCH   3  11
ENDBRANCH   1   3
BRANCH   1  22
ATOM     22  C   UNL     1       2.843   9.378  -4.716  0.00  0.00    +0.161 C 
BRANCH  22  23
ATOM     23  C   UNL     1       4.286   9.805  -4.801  0.00  0.00    +0.149 A 
ATOM     24  N   UNL     1       4.787  10.541  -3.827  0.00  0.00    -0.216 NA
ATOM     25  C   UNL     1       6.057  10.938  -3.855  0.00  0.00    +0.132 A 
ATOM     26  C   UNL     1       6.845  10.563  -4.948  0.00  0.00    +0.094 A 
ATOM     27  C   UNL     1       8.242  10.785  -5.359  0.00  0.00    +0.112 A 
ATOM     28  C   UNL     1       8.381  10.139  -6.550  0.00  0.00    +0.119 A 
ATOM     29  O   UNL     1       7.221   9.561  -6.889  0.00  0.00    -0.441 OA
ATOM     30  C   UNL     1       6.272   9.785  -5.963  0.00  0.00    +0.233 A 
ATOM     31  N   UNL     1       4.994   9.432  -5.846  0.00  0.00    -0.196 NA
ATOM     32  C   UNL     1       9.648  10.085  -7.364  0.00  0.00    +0.087 C 
ATOM     33  N   UNL     1       6.583  11.706  -2.831  0.00  0.00    -0.342 N 
ATOM     34  H   UNL     1       7.635  12.027  -2.868  0.00  0.00    +0.144 HD
ATOM     35  H   UNL     1       5.949  11.997  -1.980  0.00  0.00    +0.144 HD
BRANCH  27  36
ATOM     36  C   UNL     1       9.272  11.545  -4.635  0.00  0.00    +0.343 C 
ATOM     37  O   UNL     1       9.986  10.983  -3.827  0.00  0.00    -0.245 OA
BRANCH  36  38
ATOM     38  O   UNL     1       9.423  12.864  -4.867  0.00  0.00    -0.461 OA
BRANCH  38  39
ATOM     39  C   UNL     1      10.460  13.550  -4.116  0.00  0.00    +0.229 C 
ATOM     40  C   UNL     1      10.481  15.028  -4.510  0.00  0.00    +0.048 C 
ENDBRANCH  38  39
ENDBRANCH  36  38
ENDBRANCH  27  36
ENDBRANCH  22  23
ENDBRANCH   1  22
TORSDOF 11
