REMARK  Name = ZINC02124114
REMARK  12 active torsions:
REMARK  status: ('A' for Active; 'I' for Inactive)
REMARK    1  A    between atoms: C_1  and  C_2
REMARK    2  A    between atoms: C_2  and  C_3
REMARK    3  A    between atoms: C_3  and  O_4
REMARK    4  A    between atoms: O_4  and  C_5
REMARK    5  A    between atoms: C_5  and  C_7
REMARK    6  A    between atoms: C_9  and  N_14
REMARK    7  A    between atoms: C_15  and  C_17
REMARK    8  A    between atoms: C_18  and  N_30
REMARK    9  A    between atoms: C_20  and  C_27
REMARK   10  A    between atoms: C_22  and  C_26
REMARK   11  A    between atoms: C_27  and  O_28
REMARK   12  A    between atoms: O_28  and  C_29
REMARK                            x       y       z     vdW  Elec       q    Type
REMARK                         _______ _______ _______ _____ _____    ______ ____
ROOT
ATOM      1  N   UNL     1      -6.541   3.557   4.756  0.00  0.00    -0.281 N 
ATOM      2  C   UNL     1      -5.256   3.649   5.152  0.00  0.00    +0.257 C 
ATOM      3  O   UNL     1      -4.988   4.103   6.250  0.00  0.00    -0.269 OA
ATOM      4  H   UNL     1      -6.752   3.268   3.855  0.00  0.00    +0.155 HD
ENDROOT
BRANCH   2   5
ATOM      5  C   UNL     1      -4.217   3.219   4.290  0.00  0.00    +0.097 A 
ATOM      6  C   UNL     1      -2.858   3.235   4.516  0.00  0.00    +0.054 A 
ATOM      7  C   UNL     1      -1.978   2.735   3.471  0.00  0.00    +0.034 A 
ATOM      8  C   UNL     1      -0.564   2.650   3.471  0.00  0.00    -0.009 A 
ATOM      9  C   UNL     1       0.073   2.139   2.365  0.00  0.00    +0.029 A 
ATOM     10  C   UNL     1      -0.660   1.714   1.267  0.00  0.00    +0.040 A 
ATOM     11  N   UNL     1      -1.976   1.799   1.269  0.00  0.00    -0.245 NA
ATOM     12  C   UNL     1      -2.632   2.276   2.305  0.00  0.00    +0.111 A 
ATOM     13  S   UNL     1      -4.355   2.527   2.654  0.00  0.00    -0.062 S 
ATOM     14  C   UNL     1       0.052   1.155   0.062  0.00  0.00    +0.065 C 
BRANCH   6  15
ATOM     15  N   UNL     1      -2.342   3.715   5.712  0.00  0.00    -0.356 N 
ATOM     16  H   UNL     1      -1.383   3.720   5.859  0.00  0.00    +0.142 HD
ATOM     17  H   UNL     1      -2.940   4.045   6.401  0.00  0.00    +0.142 HD
ENDBRANCH   6  15
BRANCH   8  18
ATOM     18  C   UNL     1       0.231   3.114   4.665  0.00  0.00    +0.195 C 
BRANCH  18  19
ATOM     19  O   UNL     1       1.624   2.923   4.413  0.00  0.00    -0.378 OA
ATOM     20  C   UNL     1       2.471   3.333   5.489  0.00  0.00    +0.194 C 
ENDBRANCH  18  19
ENDBRANCH   8  18
ENDBRANCH   2   5
BRANCH   1  23
ATOM     21  C   UNL     1      -9.767   4.768   6.066  0.00  0.00    +0.079 A 
ATOM     22  C   UNL     1      -8.742   4.450   5.175  0.00  0.00    +0.039 A 
ATOM     23  C   UNL     1      -7.572   3.877   5.647  0.00  0.00    +0.035 A 
ATOM     24  C   UNL     1      -7.424   3.616   7.004  0.00  0.00    +0.025 A 
ATOM     25  C   UNL     1      -8.436   3.935   7.889  0.00  0.00    +0.022 A 
ATOM     26  C   UNL     1      -9.607   4.507   7.430  0.00  0.00    +0.055 A 
ATOM     27 CL   UNL     1     -10.877   4.900   8.545  0.00  0.00    -0.083 Cl
BRANCH  21  28
ATOM     28  C   UNL     1     -11.017   5.379   5.571  0.00  0.00    +0.341 C 
ATOM     29  O   UNL     1     -11.908   5.655   6.349  0.00  0.00    -0.245 OA
BRANCH  28  30
ATOM     30  O   UNL     1     -11.169   5.631   4.256  0.00  0.00    -0.461 OA
BRANCH  30  31
ATOM     31  C   UNL     1     -12.424   6.233   3.841  0.00  0.00    +0.232 C 
BRANCH  31  33
ATOM     32  C   UNL     1     -13.734   7.076   1.888  0.00  0.00    +0.007 C 
ATOM     33  C   UNL     1     -12.412   6.442   2.326  0.00  0.00    +0.038 C 
ENDBRANCH  31  33
ENDBRANCH  30  31
ENDBRANCH  28  30
ENDBRANCH  21  28
ENDBRANCH   1  23
TORSDOF 9
