REMARK  Name = ZINC66598283
REMARK  5 active torsions:
REMARK  status: ('A' for Active; 'I' for Inactive)
REMARK    1  A    between atoms: C_1  and  C_2
REMARK    2  A    between atoms: C_3  and  C_7
REMARK    3  A    between atoms: C_7  and  N_8
REMARK    4  A    between atoms: N_8  and  C_9
REMARK    5  A    between atoms: N_12  and  C_13
REMARK                            x       y       z     vdW  Elec       q    Type
REMARK                         _______ _______ _______ _____ _____    ______ ____
ROOT
ATOM      1  N   UNL     1       1.368  -0.036  -3.052  0.00  0.00    -0.284 N 
ATOM      2  C   UNL     1       2.071  -1.145  -3.701  0.00  0.00    +0.134 C 
ATOM      3  C   UNL     1       1.988   1.150  -2.885  0.00  0.00    +0.303 C 
ATOM      4  O   UNL     1       1.405   2.070  -2.346  0.00  0.00    -0.253 OA
ATOM      5  N   UNL     1       3.254   1.314  -3.316  0.00  0.00    -0.288 N 
ATOM      6  H   UNL     1       3.720   0.580  -3.746  0.00  0.00    +0.151 HD
ENDROOT
BRANCH   5   7
ATOM      7  C   UNL     1       3.928   2.603  -3.135  0.00  0.00    +0.160 C 
ATOM      8  C   UNL     1       5.444   2.392  -3.116  0.00  0.00    +0.032 C 
ATOM      9  C   UNL     1       6.133   3.513  -2.359  0.00  0.00    +0.004 C 
ATOM     10  C   UNL     1       6.032   4.865  -3.042  0.00  0.00    +0.019 C 
ATOM     11  C   UNL     1       4.587   5.365  -3.050  0.00  0.00    +0.104 C 
ATOM     12  N   UNL     1       3.905   4.816  -4.233  0.00  0.00    -0.314 N 
ATOM     13  C   UNL     1       3.582   3.524  -4.286  0.00  0.00    +0.233 C 
ATOM     14  O   UNL     1       3.013   3.083  -5.263  0.00  0.00    -0.274 OA
ATOM     15  H   UNL     1       3.686   5.398  -4.978  0.00  0.00    +0.149 HD
ENDBRANCH   5   7
BRANCH   1  16
ATOM     16  C   UNL     1      -0.008  -0.215  -2.583  0.00  0.00    +0.153 C 
BRANCH  16  19
ATOM     17  C   UNL     1      -0.018   1.503   0.010  0.00  0.00    +0.066 C 
ATOM     18  C   UNL     1       0.002  -0.004   0.002  0.00  0.00    +0.050 A 
ATOM     19  C   UNL     1       0.006  -0.708  -1.159  0.00  0.00    +0.029 A 
ATOM     20  S   UNL     1       0.032  -2.379  -0.531  0.00  0.00    -0.079 S 
ATOM     21  C   UNL     1       0.036  -2.009   1.111  0.00  0.00    +0.156 A 
ATOM     22  N   UNL     1       0.023  -0.699   1.122  0.00  0.00    -0.252 NA
ENDBRANCH  16  19
ENDBRANCH   1  16
TORSDOF 3
