REMARK  Name = ZINC09129241
REMARK  9 active torsions:
REMARK  status: ('A' for Active; 'I' for Inactive)
REMARK    1  A    between atoms: C_1  and  C_2
REMARK    2  A    between atoms: C_2  and  C_3
REMARK    3  A    between atoms: C_2  and  C_4
REMARK    4  A    between atoms: C_4  and  C_6
REMARK    5  A    between atoms: C_4  and  N_19
REMARK    6  A    between atoms: N_8  and  C_9
REMARK    7  A    between atoms: C_12  and  N_18
REMARK    8  A    between atoms: C_13  and  N_15
REMARK    9  A    between atoms: C_20  and  C_22
REMARK                            x       y       z     vdW  Elec       q    Type
REMARK                         _______ _______ _______ _____ _____    ______ ____
ROOT
ATOM      1  C   UNL     1      -0.238  -6.373  -0.856  0.00  0.00    +0.162 C 
ENDROOT
BRANCH   1   2
ATOM      2  C   UNL     1       0.005  -4.886  -0.886  0.00  0.00    +0.238 C 
ATOM      3  O   UNL     1       0.843  -4.394  -0.161  0.00  0.00    -0.273 OA
ATOM      4  N   UNL     1      -0.710  -4.104  -1.719  0.00  0.00    -0.284 N 
ATOM      5  H   UNL     1      -1.313  -4.505  -2.364  0.00  0.00    +0.155 HD
BRANCH   4   6
ATOM      6  C   UNL     1      -0.580  -2.710  -1.655  0.00  0.00    +0.036 A 
ATOM      7  C   UNL     1       0.610  -2.143  -1.216  0.00  0.00    +0.025 A 
ATOM      8  C   UNL     1       0.738  -0.770  -1.153  0.00  0.00    +0.027 A 
ATOM      9  C   UNL     1      -0.323   0.045  -1.528  0.00  0.00    +0.055 A 
ATOM     10  C   UNL     1      -1.514  -0.522  -1.961  0.00  0.00    +0.148 A 
ATOM     11  C   UNL     1      -1.640  -1.896  -2.030  0.00  0.00    +0.058 A 
BRANCH  10  12
ATOM     12  N   UNL     1      -2.647   0.345  -2.355  0.00  0.00    +0.058 N 
ATOM     13  O   UNL     1      -3.768   0.107  -1.943  0.00  0.00    -0.126 OA
ATOM     14  O   UNL     1      -2.457   1.297  -3.091  0.00  0.00    -0.126 OA
ENDBRANCH  10  12
BRANCH   9  15
ATOM     15  N   UNL     1      -0.193   1.436  -1.464  0.00  0.00    -0.356 N 
ATOM     16  H   UNL     1       0.631   1.832  -1.140  0.00  0.00    +0.142 HD
ATOM     17  H   UNL     1      -0.926   2.005  -1.747  0.00  0.00    +0.142 HD
ENDBRANCH   9  15
ENDBRANCH   4   6
ENDBRANCH   1   2
BRANCH   1  18
ATOM     18  N   UNL     1       1.007  -7.064  -0.512  0.00  0.00    -0.300 N 
ATOM     19  C   UNL     1       1.198  -8.342  -0.898  0.00  0.00    +0.246 C 
ATOM     20  O   UNL     1       0.336  -8.920  -1.532  0.00  0.00    -0.270 OA
ATOM     21  H   UNL     1       1.695  -6.603  -0.007  0.00  0.00    +0.150 HD
BRANCH  19  22
ATOM     22  C   UNL     1       2.453  -9.039  -0.552  0.00  0.00    +0.055 A 
ATOM     23  C   UNL     1       3.445  -8.377   0.176  0.00  0.00    +0.016 A 
ATOM     24  C   UNL     1       4.614  -9.032   0.496  0.00  0.00    +0.021 A 
ATOM     25  C   UNL     1       4.808 -10.345   0.099  0.00  0.00    +0.042 A 
ATOM     26  C   UNL     1       3.830 -11.008  -0.623  0.00  0.00    +0.040 A 
ATOM     27  C   UNL     1       2.651 -10.364  -0.945  0.00  0.00    +0.054 A 
ATOM     28 CL   UNL     1       1.422 -11.199  -1.843  0.00  0.00    -0.083 Cl
ATOM     29 CL   UNL     1       6.284 -11.163   0.507  0.00  0.00    -0.083 Cl
ENDBRANCH  19  22
ENDBRANCH   1  18
BRANCH   1  31
ATOM     30  C   UNL     1      -1.699  -8.169   0.083  0.00  0.00    +0.009 C 
ATOM     31  C   UNL     1      -1.306  -6.695   0.191  0.00  0.00    +0.012 C 
ATOM     32  C   UNL     1      -0.749  -6.417   1.589  0.00  0.00    +0.009 C 
ENDBRANCH   1  31
TORSDOF 7
