REMARK  Name = ZINC39677657
REMARK  8 active torsions:
REMARK  status: ('A' for Active; 'I' for Inactive)
REMARK    1  A    between atoms: C_1  and  C_2
REMARK    2  A    between atoms: C_2  and  C_4
REMARK    3  A    between atoms: C_2  and  O_32
REMARK    4  A    between atoms: C_8  and  C_17
REMARK    5  A    between atoms: N_19  and  C_20
REMARK    6  A    between atoms: C_20  and  C_21
REMARK    7  A    between atoms: C_24  and  C_26
REMARK    8  A    between atoms: O_32  and  C_33
REMARK                            x       y       z     vdW  Elec       q    Type
REMARK                         _______ _______ _______ _____ _____    ______ ____
ROOT
ATOM      1  C   UNL     1      -1.884  -0.349   0.102  0.00  0.00    +0.256 C 
ATOM      2  O   UNL     1      -2.428  -0.814   1.081  0.00  0.00    -0.272 OA
ATOM      3  N   UNL     1      -2.607  -0.061  -0.998  0.00  0.00    -0.297 N 
ATOM      4  C   UNL     1      -2.124   0.501  -2.281  0.00  0.00    +0.121 C 
ATOM      5  C   UNL     1      -2.926  -0.255  -3.365  0.00  0.00    +0.100 C 
ATOM      6  C   UNL     1      -4.200  -0.733  -2.648  0.00  0.00    -0.004 C 
ATOM      7  C   UNL     1      -4.065  -0.240  -1.200  0.00  0.00    +0.115 C 
ATOM      8  C   UNL     1      -4.281  -2.256  -2.675  0.00  0.00    -0.010 C 
ATOM      9  C   UNL     1      -5.584  -2.705  -2.007  0.00  0.00    -0.082 C 
ATOM     10  N   UNL     1      -6.727  -2.121  -2.718  0.00  0.00    +0.379 N 
ATOM     11  C   UNL     1      -6.692  -0.658  -2.608  0.00  0.00    -0.082 C 
ATOM     12  C   UNL     1      -5.436  -0.122  -3.302  0.00  0.00    -0.010 C 
ATOM     13  H   UNL     1      -6.687  -2.385  -3.691  0.00  0.00    -0.086 HD
ATOM     14  H   UNL     1      -7.585  -2.466  -2.314  0.00  0.00    -0.086 HD
ENDROOT
BRANCH   5  15
ATOM     15  C   UNL     1      -2.136  -1.431  -3.877  0.00  0.00    +0.218 C 
ATOM     16  O   UNL     1      -1.354  -2.001  -3.147  0.00  0.00    -0.275 OA
ATOM     17  N   UNL     1      -2.300  -1.851  -5.148  0.00  0.00    -0.310 N 
ATOM     18  H   UNL     1      -2.926  -1.395  -5.732  0.00  0.00    +0.149 HD
BRANCH  17  19
ATOM     19  C   UNL     1      -1.532  -2.994  -5.646  0.00  0.00    +0.146 C 
BRANCH  19  20
ATOM     20  C   UNL     1      -1.898  -3.257  -7.084  0.00  0.00    +0.007 A 
ATOM     21  C   UNL     1      -1.333  -2.757  -8.214  0.00  0.00    +0.013 A 
ATOM     22  C   UNL     1      -1.833  -3.136  -9.439  0.00  0.00    +0.018 A 
ATOM     23  C   UNL     1      -2.889  -4.009  -9.478  0.00  0.00    +0.038 A 
ATOM     24  S   UNL     1      -3.180  -4.310  -7.742  0.00  0.00    -0.090 S 
BRANCH  23  25
ATOM     25  C   UNL     1      -3.597  -4.562 -10.650  0.00  0.00    +0.078 A 
ATOM     26  C   UNL     1      -4.663  -5.444 -10.463  0.00  0.00    +0.029 A 
ATOM     27  C   UNL     1      -5.316  -5.952 -11.571  0.00  0.00    +0.004 A 
ATOM     28  C   UNL     1      -4.883  -5.565 -12.832  0.00  0.00    +0.020 A 
ATOM     29  C   UNL     1      -3.820  -4.688 -12.946  0.00  0.00    +0.111 A 
ATOM     30  N   UNL     1      -3.218  -4.213 -11.874  0.00  0.00    -0.254 NA
ENDBRANCH  23  25
ENDBRANCH  19  20
ENDBRANCH  17  19
ENDBRANCH   5  15
BRANCH   1  32
ATOM     31  C   UNL     1      -0.139   1.410   0.004  0.00  0.00    +0.062 C 
ATOM     32  C   UNL     1      -0.399  -0.094   0.116  0.00  0.00    +0.256 C 
BRANCH  32  33
ATOM     33  O   UNL     1       0.158  -0.584   1.337  0.00  0.00    -0.480 OA
BRANCH  33  34
ATOM     34  C   UNL     1       1.473  -0.925   1.323  0.00  0.00    +0.122 A 
ATOM     35  C   UNL     1       2.051  -1.514   2.438  0.00  0.00    +0.045 A 
ATOM     36  C   UNL     1       3.388  -1.859   2.421  0.00  0.00    +0.004 A 
ATOM     37  C   UNL     1       4.151  -1.619   1.293  0.00  0.00    +0.000 A 
ATOM     38  C   UNL     1       3.578  -1.031   0.180  0.00  0.00    +0.004 A 
ATOM     39  C   UNL     1       2.240  -0.689   0.190  0.00  0.00    +0.045 A 
ENDBRANCH  33  34
ENDBRANCH  32  33
ENDBRANCH   1  32
TORSDOF 7
