REMARK  Name = ZINC38571562
REMARK  4 active torsions:
REMARK  status: ('A' for Active; 'I' for Inactive)
REMARK    1  A    between atoms: C_4  and  C_7
REMARK    2  A    between atoms: C_7  and  O_9
REMARK    3  A    between atoms: O_9  and  C_10
REMARK    4  A    between atoms: C_14  and  C_16
REMARK                            x       y       z     vdW  Elec       q    Type
REMARK                         _______ _______ _______ _____ _____    ______ ____
ROOT
ATOM      1  C   UNL     1       6.607  -5.963  -0.117  0.00  0.00    +0.074 C 
ATOM      2  C   UNL     1       7.439  -6.332  -1.353  0.00  0.00    +0.152 C 
ATOM      3  C   UNL     1       8.889  -6.014  -1.080  0.00  0.00    +0.116 C 
ATOM      4  N   UNL     1       9.565  -5.193  -1.828  0.00  0.00    -0.205 NA
ATOM      5  C   UNL     1       9.020  -4.567  -2.878  0.00  0.00    +0.206 C 
ATOM      6  N   UNL     1       7.751  -4.740  -3.215  0.00  0.00    -0.147 NA
ATOM      7  C   UNL     1       6.955  -5.548  -2.539  0.00  0.00    +0.250 C 
ATOM      8  O   UNL     1       5.797  -5.661  -2.891  0.00  0.00    -0.273 OA
ATOM      9  N   UNL     1       9.796  -3.723  -3.624  0.00  0.00    -0.329 N 
ATOM     10  N   UNL     1       9.483  -6.616   0.003  0.00  0.00    -0.301 N 
ATOM     11  C   UNL     1       8.686  -6.720   1.132  0.00  0.00    +0.048 C 
ATOM     12  C   UNL     1       7.348  -6.429   1.115  0.00  0.00    +0.030 C 
ATOM     13  C   UNL     1       6.801  -6.632   2.406  0.00  0.00    +0.192 C 
ATOM     14  O   UNL     1       5.641  -6.467   2.730  0.00  0.00    -0.287 OA
ATOM     15  C   UNL     1       7.900  -7.081   3.289  0.00  0.00    +0.031 A 
ATOM     16  C   UNL     1       9.071  -7.133   2.486  0.00  0.00    +0.007 A 
ATOM     17  C   UNL     1      10.287  -7.522   3.024  0.00  0.00    +0.010 A 
ATOM     18  C   UNL     1      10.302  -7.857   4.381  0.00  0.00    +0.001 A 
ATOM     19  C   UNL     1       9.167  -7.806   5.156  0.00  0.00    +0.001 A 
ATOM     20  C   UNL     1       7.928  -7.414   4.629  0.00  0.00    +0.012 A 
ATOM     21  H   UNL     1      10.727  -3.586  -3.390  0.00  0.00    +0.145 HD
ATOM     22  H   UNL     1       9.415  -3.262  -4.388  0.00  0.00    +0.145 HD
ATOM     23  H   UNL     1      10.395  -6.944  -0.021  0.00  0.00    +0.153 HD
ENDROOT
BRANCH   1  28
ATOM     24  C   UNL     1       4.968  -2.559  -0.028  0.00  0.00    +0.132 A 
ATOM     25  C   UNL     1       6.074  -1.724   0.043  0.00  0.00    +0.046 A 
ATOM     26  C   UNL     1       7.346  -2.264   0.061  0.00  0.00    +0.004 A 
ATOM     27  C   UNL     1       7.517  -3.635   0.010  0.00  0.00    +0.004 A 
ATOM     28  C   UNL     1       6.417  -4.469  -0.061  0.00  0.00    -0.035 A 
ATOM     29  C   UNL     1       5.143  -3.935  -0.074  0.00  0.00    +0.050 A 
BRANCH  24  30
ATOM     30  O   UNL     1       3.716  -2.031  -0.046  0.00  0.00    -0.422 OA
BRANCH  30  31
ATOM     31  C   UNL     1       2.994  -2.076   1.091  0.00  0.00    +0.344 C 
ATOM     32  O   UNL     1       3.430  -2.657   2.065  0.00  0.00    -0.245 OA
BRANCH  31  36
ATOM     33  C   UNL     1      -0.804  -0.186   1.269  0.00  0.00    +0.000 A 
ATOM     34  C   UNL     1      -0.311  -0.848   2.380  0.00  0.00    +0.001 A 
ATOM     35  C   UNL     1       0.922  -1.464   2.329  0.00  0.00    +0.015 A 
ATOM     36  C   UNL     1       1.673  -1.419   1.153  0.00  0.00    +0.059 A 
ATOM     37  C   UNL     1       1.169  -0.750   0.035  0.00  0.00    +0.015 A 
ATOM     38  C   UNL     1      -0.066  -0.138   0.100  0.00  0.00    +0.001 A 
ENDBRANCH  31  36
ENDBRANCH  30  31
ENDBRANCH  24  30
ENDBRANCH   1  28
TORSDOF 4
