REMARK  Name = ZINC21883328
REMARK  6 active torsions:
REMARK  status: ('A' for Active; 'I' for Inactive)
REMARK    1  A    between atoms: C_1  and  C_2
REMARK    2  A    between atoms: C_2  and  C_3
REMARK    3  A    between atoms: C_6  and  N_9
REMARK    4  A    between atoms: C_10  and  C_12
REMARK    5  A    between atoms: N_28  and  C_31
REMARK    6  A    between atoms: C_31  and  C_32
REMARK                            x       y       z     vdW  Elec       q    Type
REMARK                         _______ _______ _______ _____ _____    ______ ____
ROOT
ATOM      1  C   UNL     1       2.918   0.680   1.111  0.00  0.00    +0.076 C 
ATOM      2  C   UNL     1       3.932  -0.285   0.435  0.00  0.00    -0.002 C 
ATOM      3  C   UNL     1       3.264  -0.506  -0.942  0.00  0.00    -0.055 C 
ATOM      4  C   UNL     1       4.292  -1.066  -1.939  0.00  0.00    +0.052 C 
ATOM      5  S   UNL     1       4.394   0.295  -3.179  0.00  0.00    -0.181 S 
ATOM      6  C   UNL     1       3.643   1.619  -2.134  0.00  0.00    -0.005 C 
ATOM      7  N   UNL     1       2.698   0.803  -1.312  0.00  0.00    +0.401 N 
ATOM      8  C   UNL     1       2.422   1.536  -0.064  0.00  0.00    +0.053 C 
ATOM      9  C   UNL     1       0.955   1.841   0.074  0.00  0.00    -0.027 A 
ATOM     10  C   UNL     1      -0.172   1.052   0.136  0.00  0.00    +0.004 A 
ATOM     11  C   UNL     1      -1.419   1.637   0.262  0.00  0.00    +0.000 A 
ATOM     12  C   UNL     1      -1.530   3.014   0.334  0.00  0.00    +0.002 A 
ATOM     13  C   UNL     1      -0.403   3.807   0.272  0.00  0.00    +0.024 A 
ATOM     14  C   UNL     1       0.857   3.227   0.141  0.00  0.00    +0.039 A 
ATOM     15  N   UNL     1       2.124   3.806   0.057  0.00  0.00    -0.272 N 
ATOM     16  C   UNL     1       3.097   2.884  -0.067  0.00  0.00    +0.214 C 
ATOM     17  O   UNL     1       4.287   3.096  -0.162  0.00  0.00    -0.276 OA
ATOM     18  H   UNL     1       1.785   0.627  -1.899  0.00  0.00    -0.078 HD
ENDROOT
BRANCH   1  20
ATOM     19  N   UNL     1       2.889   2.095   3.140  0.00  0.00    -0.285 N 
ATOM     20  C   UNL     1       3.604   1.537   2.143  0.00  0.00    +0.220 C 
ATOM     21  O   UNL     1       4.801   1.724   2.077  0.00  0.00    -0.275 OA
ATOM     22  H   UNL     1       1.818   1.867   3.243  0.00  0.00    +0.155 HD
BRANCH  19  26
ATOM     23  C   UNL     1       4.734   4.684   5.833  0.00  0.00    -0.048 A 
ATOM     24  C   UNL     1       3.424   4.905   5.450  0.00  0.00    +0.005 A 
ATOM     25  C   UNL     1       2.809   4.049   4.558  0.00  0.00    +0.023 A 
ATOM     26  C   UNL     1       3.509   2.965   4.044  0.00  0.00    +0.033 A 
ATOM     27  C   UNL     1       4.823   2.742   4.435  0.00  0.00    +0.023 A 
ATOM     28  C   UNL     1       5.433   3.605   5.324  0.00  0.00    +0.005 A 
BRANCH  23  30
ATOM     29  C   UNL     1       5.168   5.120   8.235  0.00  0.00    +0.009 C 
ATOM     30  C   UNL     1       5.401   5.619   6.808  0.00  0.00    +0.032 C 
ENDBRANCH  23  30
ENDBRANCH  19  26
ENDBRANCH   1  20
BRANCH  15  31
ATOM     31  C   UNL     1       2.368   5.250   0.100  0.00  0.00    +0.110 C 
ATOM     32  C   UNL     1       2.575   5.689   1.551  0.00  0.00    +0.025 C 
ENDBRANCH  15  31
TORSDOF 4
