REMARK  Name = ZINC59303654
REMARK  4 active torsions:
REMARK  status: ('A' for Active; 'I' for Inactive)
REMARK    1  A    between atoms: C_9  and  C_11
REMARK    2  A    between atoms: N_13  and  N_14
REMARK    3  A    between atoms: C_15  and  C_16
REMARK    4  A    between atoms: C_19  and  O_23
REMARK                            x       y       z     vdW  Elec       q    Type
REMARK                         _______ _______ _______ _____ _____    ______ ____
ROOT
ATOM      1  C   UNL     1       5.974   0.910  -0.050  0.00  0.00    +0.299 C 
ATOM      2  O   UNL     1       6.652  -0.100  -0.061  0.00  0.00    -0.265 OA
ATOM      3  N   UNL     1       6.567   2.121  -0.049  0.00  0.00    -0.200 N 
ATOM      4  H   UNL     1       6.026   2.926  -0.040  0.00  0.00    +0.178 HD
ENDROOT
BRANCH   1  13
ATOM      5  C   UNL     1      -0.017   1.385   0.010  0.00  0.00    +0.019 A 
ATOM      6  C   UNL     1       1.158   2.105   0.002  0.00  0.00    +0.048 A 
ATOM      7  C   UNL     1       2.378   1.439  -0.013  0.00  0.00    +0.136 A 
ATOM      8  C   UNL     1       2.392   0.032  -0.021  0.00  0.00    +0.022 A 
ATOM      9  C   UNL     1       1.190  -0.680  -0.013  0.00  0.00    +0.027 A 
ATOM     10  C   UNL     1       0.002  -0.004   0.002  0.00  0.00    +0.019 A 
ATOM     11 BR   UNL     1      -1.626  -0.966   0.013  0.00  0.00    -0.050 Br
ATOM     12  C   UNL     1       3.803  -0.351  -0.036  0.00  0.00    +0.063 A 
ATOM     13  C   UNL     1       4.508   0.811  -0.036  0.00  0.00    +0.192 A 
ATOM     14  O   UNL     1       3.659   1.859  -0.023  0.00  0.00    -0.450 OA
ENDBRANCH   1  13
BRANCH   3  15
ATOM     15  N   UNL     1       7.965   2.216  -0.061  0.00  0.00    -0.187 NA
ATOM     16  C   UNL     1       8.536   3.381  -0.060  0.00  0.00    +0.138 C 
BRANCH  16  17
ATOM     17  C   UNL     1      10.007   3.481  -0.073  0.00  0.00    -0.003 A 
ATOM     18  C   UNL     1      10.788   2.322  -0.092  0.00  0.00    +0.033 A 
ATOM     19  C   UNL     1      12.163   2.420  -0.105  0.00  0.00    +0.084 A 
ATOM     20  C   UNL     1      12.773   3.669  -0.099  0.00  0.00    +0.149 A 
ATOM     21  C   UNL     1      12.000   4.824  -0.080  0.00  0.00    +0.061 A 
ATOM     22  C   UNL     1      10.624   4.735  -0.073  0.00  0.00    +0.028 A 
ATOM     23 BR   UNL     1      12.836   6.520  -0.071  0.00  0.00    -0.046 Br
ATOM     24 CL   UNL     1      13.134   0.982  -0.128  0.00  0.00    -0.080 Cl
BRANCH  20  25
ATOM     25  O   UNL     1      14.128   3.762  -0.111  0.00  0.00    -0.504 OA
ATOM     26  H   UNL     1      14.512   3.797  -0.998  0.00  0.00    +0.292 HD
ENDBRANCH  20  25
ENDBRANCH  16  17
ENDBRANCH   3  15
TORSDOF 4
