REMARK  Name = ZINC10551244
REMARK  10 active torsions:
REMARK  status: ('A' for Active; 'I' for Inactive)
REMARK    1  A    between atoms: C_1  and  C_2
REMARK    2  A    between atoms: C_4  and  N_8
REMARK    3  A    between atoms: N_5  and  C_7
REMARK    4  A    between atoms: C_9  and  C_11
REMARK    5  A    between atoms: C_11  and  O_12
REMARK    6  A    between atoms: O_12  and  C_13
REMARK    7  A    between atoms: C_13  and  C_15
REMARK    8  A    between atoms: C_18  and  N_23
REMARK    9  A    between atoms: C_20  and  O_21
REMARK   10  A    between atoms: O_21  and  C_22
REMARK                            x       y       z     vdW  Elec       q    Type
REMARK                         _______ _______ _______ _____ _____    ______ ____
ROOT
ATOM      1  C   UNL     1       0.320   7.791   0.040  0.00  0.00    +0.343 C 
ATOM      2  O   UNL     1       1.463   8.206   0.031  0.00  0.00    -0.245 OA
ENDROOT
BRANCH   1   3
ATOM      3  C   UNL     1      -0.805   8.738   0.056  0.00  0.00    +0.102 A 
ATOM      4  C   UNL     1      -2.122   8.264   0.066  0.00  0.00    +0.040 A 
ATOM      5  C   UNL     1      -3.166   9.143   0.081  0.00  0.00    +0.063 A 
ATOM      6  C   UNL     1      -2.929  10.518   0.086  0.00  0.00    +0.047 A 
ATOM      7  C   UNL     1      -1.628  11.004   0.076  0.00  0.00    +0.070 A 
ATOM      8  C   UNL     1      -0.562  10.121   0.066  0.00  0.00    +0.136 A 
ATOM      9 CL   UNL     1      -4.797   8.548   0.094  0.00  0.00    -0.082 Cl
BRANCH   6  10
ATOM     10  N   UNL     1      -4.000  11.406   0.102  0.00  0.00    -0.357 N 
ATOM     11  H   UNL     1      -4.910  11.069   0.108  0.00  0.00    +0.142 HD
ATOM     12  H   UNL     1      -3.837  12.362   0.105  0.00  0.00    +0.142 HD
ENDBRANCH   6  10
BRANCH   8  13
ATOM     13  O   UNL     1       0.711  10.590   0.062  0.00  0.00    -0.494 OA
ATOM     14  C   UNL     1       0.880  12.009   0.073  0.00  0.00    +0.277 C 
ENDBRANCH   8  13
ENDBRANCH   1   3
BRANCH   1  15
ATOM     15  O   UNL     1       0.084   6.464   0.035  0.00  0.00    -0.452 OA
BRANCH  15  16
ATOM     16  C   UNL     1       1.242   5.589   0.019  0.00  0.00    +0.328 C 
BRANCH  16  18
ATOM     17  N   UNL     1       1.695   3.157   0.002  0.00  0.00    -0.268 N 
ATOM     18  C   UNL     1       0.786   4.152   0.017  0.00  0.00    +0.256 C 
ATOM     19  O   UNL     1      -0.398   3.892   0.027  0.00  0.00    -0.272 OA
ATOM     20  H   UNL     1       2.642   3.365  -0.006  0.00  0.00    +0.156 HD
BRANCH  17  24
ATOM     21  C   UNL     1      -1.208  -0.903   0.009  0.00  0.00    +0.067 C 
ATOM     22  C   UNL     1       0.002  -0.004   0.002  0.00  0.00    +0.062 A 
ATOM     23  C   UNL     1      -0.017   1.393   0.010  0.00  0.00    +0.068 A 
ATOM     24  C   UNL     1       1.273   1.828  -0.000  0.00  0.00    +0.123 A 
ATOM     25  N   UNL     1       2.071   0.736  -0.014  0.00  0.00    -0.253 N 
ATOM     26  N   UNL     1       1.250  -0.399  -0.012  0.00  0.00    -0.175 NA
ATOM     27  C   UNL     1       3.536   0.739  -0.028  0.00  0.00    +0.174 C 
ENDBRANCH  17  24
ENDBRANCH  16  18
ENDBRANCH  15  16
ENDBRANCH   1  15
TORSDOF 7
