REMARK  Name = ZINC12715992
REMARK  10 active torsions:
REMARK  status: ('A' for Active; 'I' for Inactive)
REMARK    1  A    between atoms: C_4  and  C_7
REMARK    2  A    between atoms: C_7  and  N_8
REMARK    3  A    between atoms: N_8  and  C_9
REMARK    4  A    between atoms: C_9  and  C_11
REMARK    5  A    between atoms: C_9  and  C_18
REMARK    6  A    between atoms: N_20  and  C_21
REMARK    7  A    between atoms: C_21  and  C_22
REMARK    8  A    between atoms: C_28  and  C_30
REMARK    9  A    between atoms: C_31  and  N_38
REMARK   10  A    between atoms: C_32  and  C_35
REMARK                            x       y       z     vdW  Elec       q    Type
REMARK                         _______ _______ _______ _____ _____    ______ ____
ROOT
ATOM      1  N   UNL     1       0.488   2.868   0.275  0.00  0.00    -0.277 N 
ATOM      2  C   UNL     1       1.468   1.983   0.543  0.00  0.00    +0.258 C 
ATOM      3  O   UNL     1       1.266   1.068   1.319  0.00  0.00    -0.269 OA
ENDROOT
BRANCH   2   4
ATOM      4  C   UNL     1       2.776   2.122  -0.100  0.00  0.00    +0.115 A 
ATOM      5  C   UNL     1       3.931   1.355   0.068  0.00  0.00    +0.076 A 
ATOM      6  C   UNL     1       4.986   1.797  -0.730  0.00  0.00    +0.155 A 
ATOM      7  N   UNL     1       4.806   2.833  -1.519  0.00  0.00    -0.203 NA
ATOM      8  S   UNL     1       3.319   3.311  -1.310  0.00  0.00    +0.019 S 
BRANCH   6   9
ATOM      9  C   UNL     1       6.290   1.109  -0.689  0.00  0.00    +0.262 C 
ATOM     10  O   UNL     1       6.449   0.151   0.042  0.00  0.00    -0.269 OA
ATOM     11  N   UNL     1       7.304   1.542  -1.463  0.00  0.00    -0.324 N 
ATOM     12  H   UNL     1       7.178   2.306  -2.047  0.00  0.00    +0.145 HD
ATOM     13  H   UNL     1       8.162   1.089  -1.437  0.00  0.00    +0.145 HD
ENDBRANCH   6   9
BRANCH   5  14
ATOM     14  N   UNL     1       4.018   0.273   0.933  0.00  0.00    -0.355 N 
ATOM     15  H   UNL     1       3.249   0.012   1.463  0.00  0.00    +0.142 HD
ATOM     16  H   UNL     1       4.849  -0.223   1.007  0.00  0.00    +0.142 HD
ENDBRANCH   5  14
ENDBRANCH   2   4
BRANCH   1  17
ATOM     17  C   UNL     1       0.735   3.977  -0.651  0.00  0.00    +0.144 C 
BRANCH  17  21
ATOM     18  C   UNL     1       0.267   2.609  -4.670  0.00  0.00    +0.000 A 
ATOM     19  C   UNL     1       0.139   3.954  -4.378  0.00  0.00    +0.000 A 
ATOM     20  C   UNL     1       0.290   4.397  -3.078  0.00  0.00    +0.005 A 
ATOM     21  C   UNL     1       0.570   3.494  -2.069  0.00  0.00    -0.030 A 
ATOM     22  C   UNL     1       0.704   2.150  -2.361  0.00  0.00    +0.005 A 
ATOM     23  C   UNL     1       0.547   1.707  -3.661  0.00  0.00    +0.000 A 
ENDBRANCH  17  21
ENDBRANCH   1  17
BRANCH   1  24
ATOM     24  C   UNL     1      -0.825   2.722   0.908  0.00  0.00    +0.193 C 
BRANCH  24  25
ATOM     25  C   UNL     1      -0.769   3.270   2.311  0.00  0.00    -0.018 A 
ATOM     26  C   UNL     1      -0.167   4.491   2.552  0.00  0.00    +0.009 A 
ATOM     27  C   UNL     1      -0.120   4.997   3.837  0.00  0.00    +0.038 A 
ATOM     28  C   UNL     1      -0.667   4.276   4.885  0.00  0.00    +0.123 A 
ATOM     29  C   UNL     1      -1.265   3.051   4.643  0.00  0.00    +0.038 A 
ATOM     30  C   UNL     1      -1.316   2.549   3.356  0.00  0.00    +0.009 A 
ATOM     31  F   UNL     1      -0.617   4.767   6.143  0.00  0.00    -0.205 F 
ENDBRANCH  24  25
BRANCH  24  32
ATOM     32  C   UNL     1      -1.854   3.482   0.112  0.00  0.00    +0.238 C 
ATOM     33  O   UNL     1      -1.569   3.930  -0.978  0.00  0.00    -0.273 OA
ATOM     34  N   UNL     1      -3.093   3.665   0.612  0.00  0.00    -0.311 N 
ATOM     35  H   UNL     1      -3.321   3.307   1.484  0.00  0.00    +0.149 HD
BRANCH  34  36
ATOM     36  C   UNL     1      -4.093   4.403  -0.162  0.00  0.00    +0.135 C 
BRANCH  36  37
ATOM     37  C   UNL     1      -5.403   4.466   0.626  0.00  0.00    +0.135 C 
ATOM     38  C   UNL     1      -6.499   5.166  -0.207  0.00  0.00    +0.035 C 
ATOM     39  C   UNL     1      -7.295   5.987   0.833  0.00  0.00    +0.031 C 
ATOM     40  C   UNL     1      -6.585   5.686   2.171  0.00  0.00    +0.160 C 
ATOM     41  O   UNL     1      -5.245   5.293   1.800  0.00  0.00    -0.375 OA
ENDBRANCH  36  37
ENDBRANCH  34  36
ENDBRANCH  24  32
ENDBRANCH   1  24
TORSDOF 10
