REMARK  Name = ZINC37454282
REMARK  4 active torsions:
REMARK  status: ('A' for Active; 'I' for Inactive)
REMARK    1  A    between atoms: C_3  and  S_18
REMARK    2  A    between atoms: C_6  and  C_7
REMARK    3  A    between atoms: C_13  and  C_15
REMARK    4  A    between atoms: S_18  and  C_19
REMARK                            x       y       z     vdW  Elec       q    Type
REMARK                         _______ _______ _______ _____ _____    ______ ____
ROOT
ATOM      1  C   UNL     1       0.077   1.254  -0.574  0.00  0.00    +0.014 A 
ATOM      2  C   UNL     1       1.256   1.953  -0.557  0.00  0.00    +0.016 A 
ATOM      3  C   UNL     1       2.381   1.408   0.059  0.00  0.00    +0.016 A 
ATOM      4  C   UNL     1       2.311   0.153   0.658  0.00  0.00    +0.016 A 
ATOM      5  C   UNL     1       1.134  -0.550   0.644  0.00  0.00    +0.014 A 
ATOM      6  C   UNL     1       0.003  -0.006   0.027  0.00  0.00    +0.037 A 
ENDROOT
BRANCH   6   7
ATOM      7  C   UNL     1      -1.264  -0.760   0.010  0.00  0.00    +0.248 C 
ATOM      8  O   UNL     1      -2.324  -0.170   0.095  0.00  0.00    -0.270 OA
ATOM      9  N   UNL     1      -1.248  -2.103  -0.099  0.00  0.00    -0.274 N 
ATOM     10  C   UNL     1       0.019  -2.867  -0.113  0.00  0.00    +0.178 C 
ATOM     11  S   UNL     1      -0.510  -4.424  -0.954  0.00  0.00    -0.139 S 
ATOM     12  C   UNL     1      -2.257  -4.404  -0.348  0.00  0.00    +0.104 C 
ATOM     13  C   UNL     1      -2.473  -2.877  -0.203  0.00  0.00    +0.200 C 
BRANCH  13  14
ATOM     14  C   UNL     1      -3.305  -2.623   1.028  0.00  0.00    +0.377 C 
ATOM     15  O   UNL     1      -4.456  -3.022   1.079  0.00  0.00    -0.244 OA
ATOM     16  O   UNL     1      -2.826  -2.019   1.973  0.00  0.00    -0.244 OA
ENDBRANCH  13  14
ENDBRANCH   6   7
BRANCH   3  17
ATOM     17  S   UNL     1       3.895   2.309   0.078  0.00  0.00    -0.016 S 
BRANCH  17  18
ATOM     18  C   UNL     1       5.041   1.221   0.969  0.00  0.00    +0.448 C 
ATOM     19  F   UNL     1       5.159   0.007   0.285  0.00  0.00    -0.160 F 
ATOM     20  F   UNL     1       6.296   1.834   1.052  0.00  0.00    -0.160 F 
ATOM     21  F   UNL     1       4.552   0.984   2.259  0.00  0.00    -0.160 F 
ENDBRANCH  17  18
ENDBRANCH   3  17
TORSDOF 4
