REMARK  Name = ZINC11538296
REMARK  13 active torsions:
REMARK  status: ('A' for Active; 'I' for Inactive)
REMARK    1  A    between atoms: C_1  and  C_2
REMARK    2  A    between atoms: C_2  and  O_3
REMARK    3  A    between atoms: O_3  and  C_4
REMARK    4  A    between atoms: C_4  and  C_6
REMARK    5  A    between atoms: C_7  and  C_21
REMARK    6  A    between atoms: C_12  and  C_14
REMARK    7  A    between atoms: C_21  and  O_22
REMARK    8  A    between atoms: O_22  and  C_23
REMARK    9  A    between atoms: C_23  and  C_25
REMARK   10  A    between atoms: C_25  and  C_26
REMARK   11  A    between atoms: C_26  and  N_27
REMARK   12  A    between atoms: C_30  and  C_34
REMARK   13  A    between atoms: C_30  and  C_35
REMARK                            x       y       z     vdW  Elec       q    Type
REMARK                         _______ _______ _______ _____ _____    ______ ____
ROOT
ATOM      1  C   UNL     1       1.169   2.223   0.001  0.00  0.00    +0.081 C 
ATOM      2  C   UNL     1       0.026   1.504   0.030  0.00  0.00    +0.061 C 
ATOM      3  N   UNL     1      -1.193   2.119   0.042  0.00  0.00    -0.269 N 
ATOM      4  C   UNL     1      -1.354   3.449   0.036  0.00  0.00    +0.304 C 
ATOM      5  O   UNL     1      -2.481   3.904   0.053  0.00  0.00    -0.252 OA
ATOM      6  N   UNL     1      -0.308   4.298   0.007  0.00  0.00    -0.288 N 
ATOM      7  C   UNL     1       1.052   3.733  -0.013  0.00  0.00    +0.144 C 
ATOM      8  H   UNL     1      -1.987   1.562   0.059  0.00  0.00    +0.156 HD
ATOM      9  H   UNL     1      -0.448   5.258  -0.001  0.00  0.00    +0.151 HD
ENDROOT
BRANCH   7  10
ATOM     10  C   UNL     1       1.748   4.242  -1.250  0.00  0.00    -0.022 A 
ATOM     11  C   UNL     1       1.107   4.191  -2.474  0.00  0.00    +0.007 A 
ATOM     12  C   UNL     1       1.742   4.662  -3.607  0.00  0.00    +0.020 A 
ATOM     13  C   UNL     1       3.024   5.175  -3.518  0.00  0.00    +0.041 A 
ATOM     14  C   UNL     1       3.667   5.220  -2.294  0.00  0.00    +0.020 A 
ATOM     15  C   UNL     1       3.029   4.754  -1.161  0.00  0.00    +0.007 A 
ATOM     16 CL   UNL     1       3.825   5.761  -4.943  0.00  0.00    -0.084 Cl
ENDBRANCH   7  10
BRANCH   1  17
ATOM     17  C   UNL     1       2.433   1.587  -0.017  0.00  0.00    +0.339 C 
ATOM     18  O   UNL     1       2.503   0.376  -0.114  0.00  0.00    -0.245 OA
BRANCH  17  19
ATOM     19  O   UNL     1       3.560   2.323   0.075  0.00  0.00    -0.462 OA
BRANCH  19  21
ATOM     20  C   UNL     1       5.958   2.610   0.165  0.00  0.00    +0.048 C 
ATOM     21  C   UNL     1       4.801   1.615   0.051  0.00  0.00    +0.229 C 
ENDBRANCH  19  21
ENDBRANCH  17  19
ENDBRANCH   1  17
BRANCH   2  22
ATOM     22  C   UNL     1       0.097  -0.001   0.044  0.00  0.00    +0.283 C 
BRANCH  22  23
ATOM     23  O   UNL     1      -1.240  -0.547   0.191  0.00  0.00    -0.459 OA
BRANCH  23  24
ATOM     24  C   UNL     1      -1.352  -1.885   0.222  0.00  0.00    +0.309 C 
ATOM     25  O   UNL     1      -0.366  -2.576   0.129  0.00  0.00    -0.251 OA
BRANCH  24  26
ATOM     26  C   UNL     1      -2.709  -2.524   0.371  0.00  0.00    +0.140 C 
BRANCH  26  27
ATOM     27  C   UNL     1      -2.557  -4.046   0.377  0.00  0.00    +0.129 C 
BRANCH  27  28
ATOM     28  N   UNL     1      -3.876  -4.668   0.523  0.00  0.00    -0.224 N 
ATOM     29  C   UNL     1      -4.672  -5.005  -0.511  0.00  0.00    +0.246 C 
ATOM     30  O   UNL     1      -4.442  -4.855  -1.692  0.00  0.00    -0.273 OA
ATOM     31  C   UNL     1      -5.916  -5.608   0.110  0.00  0.00    +0.107 C 
ATOM     32  N   UNL     1      -5.652  -5.535   1.557  0.00  0.00    -0.285 N 
ATOM     33  C   UNL     1      -4.436  -4.976   1.698  0.00  0.00    +0.309 C 
ATOM     34  O   UNL     1      -3.907  -4.771   2.773  0.00  0.00    -0.252 OA
ATOM     35  C   UNL     1      -7.153  -4.785  -0.254  0.00  0.00    +0.041 C 
ATOM     36  C   UNL     1      -6.087  -7.063  -0.332  0.00  0.00    +0.041 C 
ATOM     37  H   UNL     1      -6.238  -5.834   2.270  0.00  0.00    +0.151 HD
ENDBRANCH  27  28
ENDBRANCH  26  27
ENDBRANCH  24  26
ENDBRANCH  23  24
ENDBRANCH  22  23
ENDBRANCH   2  22
TORSDOF 10
