REMARK  Name = ZINC67270642
REMARK  9 active torsions:
REMARK  status: ('A' for Active; 'I' for Inactive)
REMARK    1  A    between atoms: C_1  and  C_2
REMARK    2  A    between atoms: C_2  and  C_3
REMARK    3  A    between atoms: C_2  and  N_4
REMARK    4  A    between atoms: C_8  and  C_13
REMARK    5  A    between atoms: C_14  and  C_15
REMARK    6  A    between atoms: N_17  and  C_18
REMARK    7  A    between atoms: C_23  and  N_24
REMARK    8  A    between atoms: N_24  and  C_25
REMARK    9  A    between atoms: N_24  and  C_26
REMARK                            x       y       z     vdW  Elec       q    Type
REMARK                         _______ _______ _______ _____ _____    ______ ____
ROOT
ATOM      1  C   UNL     1      -4.404  -3.746  -3.377  0.00  0.00    +0.018 C 
ATOM      2  C   UNL     1      -3.935  -4.170  -4.574  0.00  0.00    +0.068 C 
ENDROOT
BRANCH   1   7
ATOM      3  N   UNL     1      -1.356  -0.563   0.042  0.00  0.00    -0.245 N 
ATOM      4  C   UNL     1      -1.905  -1.344  -0.913  0.00  0.00    +0.139 A 
ATOM      5  C   UNL     1      -3.230  -1.585  -0.533  0.00  0.00    +0.037 A 
ATOM      6  C   UNL     1      -4.070  -2.376  -1.335  0.00  0.00    +0.026 A 
ATOM      7  C   UNL     1      -3.561  -2.916  -2.513  0.00  0.00    +0.040 A 
ATOM      8  C   UNL     1      -2.167  -2.638  -2.873  0.00  0.00    +0.257 A 
ATOM      9  O   UNL     1      -1.700  -3.100  -3.900  0.00  0.00    -0.267 OA
ATOM     10  N   UNL     1      -1.403  -1.873  -2.071  0.00  0.00    -0.307 N 
ATOM     11  H   UNL     1      -0.482  -1.695  -2.318  0.00  0.00    +0.170 HD
ATOM     12  C   UNL     1      -3.431  -0.881   0.733  0.00  0.00    +0.144 A 
ATOM     13  N   UNL     1      -2.304  -0.301   1.035  0.00  0.00    -0.177 NA
BRANCH   3  15
ATOM     14  C   UNL     1       0.019   1.460   0.048  0.00  0.00    +0.032 C 
ATOM     15  C   UNL     1       0.023  -0.070   0.041  0.00  0.00    +0.103 C 
ATOM     16  C   UNL     1       0.749  -0.584   1.286  0.00  0.00    +0.032 C 
ENDBRANCH   3  15
ENDBRANCH   1   7
BRANCH   2  17
ATOM     17  C   UNL     1      -4.785  -4.881  -5.455  0.00  0.00    +0.241 C 
ATOM     18  O   UNL     1      -5.937  -5.113  -5.136  0.00  0.00    -0.270 OA
ATOM     19  N   UNL     1      -4.319  -5.303  -6.648  0.00  0.00    -0.280 N 
ATOM     20  H   UNL     1      -3.384  -5.176  -6.875  0.00  0.00    +0.155 HD
BRANCH  19  21
ATOM     21  C   UNL     1      -5.183  -5.924  -7.558  0.00  0.00    +0.056 A 
ATOM     22  C   UNL     1      -6.210  -6.736  -7.099  0.00  0.00    +0.045 A 
ATOM     23  C   UNL     1      -7.062  -7.348  -8.000  0.00  0.00    +0.043 A 
ATOM     24  C   UNL     1      -6.895  -7.152  -9.360  0.00  0.00    +0.022 A 
ATOM     25  C   UNL     1      -5.874  -6.344  -9.825  0.00  0.00    +0.026 A 
ATOM     26  C   UNL     1      -5.018  -5.722  -8.928  0.00  0.00    +0.051 A 
ATOM     27 CL   UNL     1      -8.346  -8.364  -7.424  0.00  0.00    -0.083 Cl
BRANCH  26  28
ATOM     28  N   UNL     1      -3.988  -4.899  -9.397  0.00  0.00    -0.335 N 
ATOM     29  C   UNL     1      -4.225  -3.466  -9.589  0.00  0.00    +0.129 C 
ATOM     30  C   UNL     1      -2.672  -5.470  -9.696  0.00  0.00    +0.129 C 
ENDBRANCH  26  28
ENDBRANCH  19  21
ENDBRANCH   2  17
TORSDOF 5
