REMARK  Name = ZINC03946756
REMARK  3 active torsions:
REMARK  status: ('A' for Active; 'I' for Inactive)
REMARK    1  A    between atoms: C_2  and  C_10
REMARK    2  A    between atoms: C_5  and  O_8
REMARK    3  A    between atoms: N_11  and  N_12
REMARK                            x       y       z     vdW  Elec       q    Type
REMARK                         _______ _______ _______ _____ _____    ______ ____
ROOT
ATOM      1  C   UNL     1       1.152   7.027   0.028  0.00  0.00    +0.138 C 
ATOM      2  N   UNL     1       1.178   5.729   0.021  0.00  0.00    -0.189 NA
ENDROOT
BRANCH   2   3
ATOM      3  N   UNL     1      -0.021   5.005   0.028  0.00  0.00    -0.220 N 
ATOM      4  C   UNL     1       0.007   3.630   0.021  0.00  0.00    +0.163 A 
ATOM      5  C   UNL     1      -1.196   2.883   0.028  0.00  0.00    +0.178 A 
ATOM      6  N   UNL     1      -1.142   1.580   0.016  0.00  0.00    -0.175 NA
ATOM      7  N   UNL     1      -0.011   0.966   0.007  0.00  0.00    -0.227 N 
ATOM      8  H   UNL     1       0.003  -0.034   0.006  0.00  0.00    +0.194 HD
ATOM      9  C   UNL     1       1.153   1.639  -0.000  0.00  0.00    +0.364 A 
ATOM     10  O   UNL     1       2.208   1.026  -0.013  0.00  0.00    -0.243 OA
ATOM     11  N   UNL     1       1.163   2.975   0.006  0.00  0.00    -0.174 NA
ATOM     12  H   UNL     1      -0.871   5.473   0.038  0.00  0.00    +0.176 HD
ENDBRANCH   2   3
BRANCH   1  14
ATOM     13  C   UNL     1       2.388   9.187   0.029  0.00  0.00    +0.028 A 
ATOM     14  C   UNL     1       2.413   7.790   0.021  0.00  0.00    -0.003 A 
ATOM     15  C   UNL     1       3.639   7.118   0.012  0.00  0.00    +0.028 A 
ATOM     16  C   UNL     1       4.816   7.835  -0.001  0.00  0.00    +0.061 A 
ATOM     17  C   UNL     1       4.786   9.224   0.007  0.00  0.00    +0.145 A 
ATOM     18  C   UNL     1       3.570   9.896   0.021  0.00  0.00    +0.061 A 
ATOM     19 BR   UNL     1       3.537  11.787   0.032  0.00  0.00    -0.046 Br
ATOM     20 BR   UNL     1       6.475   6.927  -0.021  0.00  0.00    -0.046 Br
BRANCH  17  21
ATOM     21  O   UNL     1       5.949   9.927   0.001  0.00  0.00    -0.505 OA
ATOM     22  H   UNL     1       6.293  10.126   0.883  0.00  0.00    +0.292 HD
ENDBRANCH  17  21
ENDBRANCH   1  14
TORSDOF 3
