REMARK  Name = ZINC43357216
REMARK  5 active torsions:
REMARK  status: ('A' for Active; 'I' for Inactive)
REMARK    1  A    between atoms: C_1  and  C_2
REMARK    2  A    between atoms: C_7  and  N_8
REMARK    3  A    between atoms: N_11  and  C_12
REMARK    4  A    between atoms: C_12  and  C_13
REMARK    5  A    between atoms: C_13  and  C_14
REMARK                            x       y       z     vdW  Elec       q    Type
REMARK                         _______ _______ _______ _____ _____    ______ ____
ROOT
ATOM      1  N   UNL     1       0.025  -0.014   2.417  0.00  0.00    -0.269 N 
ATOM      2  C   UNL     1      -0.056  -0.693   3.578  0.00  0.00    +0.304 C 
ATOM      3  O   UNL     1      -0.040  -1.909   3.574  0.00  0.00    -0.253 OA
ATOM      4  N   UNL     1      -0.156  -0.025   4.745  0.00  0.00    -0.299 N 
ATOM      5  H   UNL     1       0.078   0.955   2.425  0.00  0.00    +0.156 HD
ATOM      6  H   UNL     1      -0.169   0.945   4.748  0.00  0.00    +0.150 HD
ENDROOT
BRANCH   1  13
ATOM      7  C   UNL     1      -1.265   1.183   0.181  0.00  0.00    +0.045 C 
ATOM      8  C   UNL     1      -0.584  -0.158   0.085  0.00  0.00    -0.029 A 
ATOM      9  C   UNL     1      -0.570  -0.840  -1.117  0.00  0.00    +0.006 A 
ATOM     10  C   UNL     1       0.054  -2.070  -1.207  0.00  0.00    +0.020 A 
ATOM     11  C   UNL     1       0.666  -2.623  -0.095  0.00  0.00    +0.043 A 
ATOM     12  C   UNL     1       0.655  -1.944   1.109  0.00  0.00    +0.043 A 
ATOM     13  C   UNL     1       0.034  -0.706   1.201  0.00  0.00    +0.039 A 
ATOM     14 CL   UNL     1       1.448  -4.168  -0.213  0.00  0.00    -0.083 Cl
ENDBRANCH   1  13
BRANCH   4  15
ATOM     15  C   UNL     1      -0.245  -0.763   6.007  0.00  0.00    +0.113 C 
BRANCH  15  16
ATOM     16  C   UNL     1      -0.348   0.225   7.170  0.00  0.00    +0.095 C 
BRANCH  16  17
ATOM     17  C   UNL     1      -0.439  -0.534   8.468  0.00  0.00    +0.135 A 
ATOM     18  N   UNL     1      -1.534  -0.944   9.052  0.00  0.00    -0.134 NA
ATOM     19  N   UNL     1      -1.239  -1.566  10.140  0.00  0.00    -0.134 NA
ATOM     20  C   UNL     1       0.054  -1.583  10.295  0.00  0.00    +0.133 A 
ATOM     21  N   UNL     1       0.596  -0.924   9.244  0.00  0.00    -0.315 N 
ATOM     22  C   UNL     1       2.019  -0.674   9.012  0.00  0.00    +0.125 C 
ATOM     23  C   UNL     1       2.844  -1.786   9.667  0.00  0.00    +0.022 C 
ATOM     24  C   UNL     1       3.168  -1.405  11.111  0.00  0.00    +0.002 C 
ATOM     25  C   UNL     1       1.886  -1.240  11.921  0.00  0.00    +0.008 C 
ATOM     26  C   UNL     1       0.829  -2.221  11.419  0.00  0.00    +0.076 C 
ENDBRANCH  16  17
ENDBRANCH  15  16
ENDBRANCH   4  15
TORSDOF 4
