REMARK  Name = ZINC67072459
REMARK  5 active torsions:
REMARK  status: ('A' for Active; 'I' for Inactive)
REMARK    1  A    between atoms: C_8  and  C_10
REMARK    2  A    between atoms: C_11  and  C_12
REMARK    3  A    between atoms: N_14  and  C_15
REMARK    4  A    between atoms: C_15  and  C_16
REMARK    5  A    between atoms: C_20  and  N_22
REMARK                            x       y       z     vdW  Elec       q    Type
REMARK                         _______ _______ _______ _____ _____    ______ ____
ROOT
ATOM      1  C   UNL     1       5.947  -4.384  -0.080  0.00  0.00    +0.237 C 
ATOM      2  O   UNL     1       5.420  -5.482  -0.081  0.00  0.00    -0.271 OA
ATOM      3  N   UNL     1       7.290  -4.282  -0.092  0.00  0.00    -0.308 N 
ATOM      4  H   UNL     1       7.710  -3.408  -0.091  0.00  0.00    +0.149 HD
ENDROOT
BRANCH   1   6
ATOM      5  C   UNL     1       3.796  -3.316  -0.053  0.00  0.00    +0.051 C 
ATOM      6  C   UNL     1       5.146  -3.214  -0.066  0.00  0.00    +0.071 C 
BRANCH   5  14
ATOM      7  C   UNL     1      -0.017   1.362   0.009  0.00  0.00    +0.001 A 
ATOM      8  C   UNL     1       1.171   2.082   0.002  0.00  0.00    +0.004 A 
ATOM      9  C   UNL     1       2.388   1.434  -0.013  0.00  0.00    +0.047 A 
ATOM     10  C   UNL     1       2.432   0.045  -0.021  0.00  0.00    +0.136 A 
ATOM     11  C   UNL     1       1.225  -0.680  -0.013  0.00  0.00    +0.021 A 
ATOM     12  C   UNL     1       0.002  -0.004   0.002  0.00  0.00    +0.011 A 
ATOM     13  C   UNL     1       1.609  -2.090  -0.025  0.00  0.00    +0.057 A 
ATOM     14  C   UNL     1       2.972  -2.110  -0.038  0.00  0.00    +0.129 A 
ATOM     15  O   UNL     1       3.444  -0.846  -0.036  0.00  0.00    -0.455 OA
ENDBRANCH   5  14
ENDBRANCH   1   6
BRANCH   3  16
ATOM     16  C   UNL     1       8.117  -5.492  -0.107  0.00  0.00    +0.140 C 
BRANCH  16  17
ATOM     17  C   UNL     1       9.573  -5.105  -0.119  0.00  0.00    -0.028 A 
ATOM     18  C   UNL     1      10.228  -4.915  -1.322  0.00  0.00    +0.005 A 
ATOM     19  C   UNL     1      11.564  -4.560  -1.333  0.00  0.00    +0.003 A 
ATOM     20  C   UNL     1      12.245  -4.394  -0.141  0.00  0.00    +0.033 A 
ATOM     21  C   UNL     1      11.590  -4.583   1.061  0.00  0.00    +0.127 A 
ATOM     22  C   UNL     1      10.253  -4.934   1.072  0.00  0.00    +0.038 A 
BRANCH  21  23
ATOM     23  N   UNL     1      12.319  -4.406   2.337  0.00  0.00    +0.056 N 
ATOM     24  O   UNL     1      13.488  -4.096   2.328  0.00  0.00    -0.126 OA
ATOM     25  O   UNL     1      11.746  -4.571   3.389  0.00  0.00    -0.126 OA
ENDBRANCH  21  23
ENDBRANCH  16  17
ENDBRANCH   3  16
TORSDOF 5
