REMARK  Name = ZINC37791224
REMARK  6 active torsions:
REMARK  status: ('A' for Active; 'I' for Inactive)
REMARK    1  A    between atoms: C_1  and  C_2
REMARK    2  A    between atoms: C_5  and  C_8
REMARK    3  A    between atoms: C_8  and  C_10
REMARK    4  A    between atoms: C_8  and  N_11
REMARK    5  A    between atoms: N_11  and  S_12
REMARK    6  A    between atoms: S_12  and  C_15
REMARK                            x       y       z     vdW  Elec       q    Type
REMARK                         _______ _______ _______ _____ _____    ______ ____
ROOT
ATOM      1  N   UNL     1       0.959  -4.758   1.029  0.00  0.00    -0.183 NA
ATOM      2  H   UNL     1       1.030  -4.274   1.867  0.00  0.00    +0.149 HD
ENDROOT
BRANCH   1   3
ATOM      3  S   UNL     1       1.856  -6.129   0.786  0.00  0.00    +0.062 S 
ATOM      4  O   UNL     1       2.636  -6.317   1.959  0.00  0.00    -0.153 OA
ATOM      5  O   UNL     1       0.960  -7.119   0.299  0.00  0.00    -0.153 OA
BRANCH   3   6
ATOM      6  C   UNL     1       2.987  -5.787  -0.521  0.00  0.00    +0.142 A 
ATOM      7  C   UNL     1       2.760  -5.979  -1.841  0.00  0.00    +0.133 A 
ATOM      8  N   UNL     1       3.868  -5.596  -2.510  0.00  0.00    -0.283 N 
ATOM      9  H   UNL     1       3.991  -5.622  -3.471  0.00  0.00    +0.188 HD
ATOM     10  N   UNL     1       4.807  -5.153  -1.569  0.00  0.00    -0.180 NA
ATOM     11  C   UNL     1       4.276  -5.262  -0.379  0.00  0.00    +0.162 A 
ENDBRANCH   3   6
ENDBRANCH   1   3
BRANCH   1  12
ATOM     12  C   UNL     1       0.059  -4.275  -0.021  0.00  0.00    +0.103 C 
ATOM     13  C   UNL     1      -1.353  -4.805   0.234  0.00  0.00    +0.031 C 
BRANCH  12  18
ATOM     14  C   UNL     1      -0.018   1.503   0.010  0.00  0.00    +0.044 C 
ATOM     15  C   UNL     1       0.002  -0.004   0.002  0.00  0.00    -0.050 A 
ATOM     16  C   UNL     1       0.006  -0.689  -1.199  0.00  0.00    +0.003 A 
ATOM     17  C   UNL     1       0.025  -2.071  -1.206  0.00  0.00    +0.005 A 
ATOM     18  C   UNL     1       0.040  -2.768  -0.013  0.00  0.00    -0.029 A 
ATOM     19  C   UNL     1       0.037  -2.084   1.188  0.00  0.00    +0.005 A 
ATOM     20  C   UNL     1       0.023  -0.702   1.195  0.00  0.00    +0.003 A 
ENDBRANCH  12  18
ENDBRANCH   1  12
TORSDOF 4
