REMARK  Name = ZINC12876754
REMARK  7 active torsions:
REMARK  status: ('A' for Active; 'I' for Inactive)
REMARK    1  A    between atoms: C_1  and  O_2
REMARK    2  A    between atoms: O_2  and  C_3
REMARK    3  A    between atoms: C_6  and  C_9
REMARK    4  A    between atoms: C_9  and  N_10
REMARK    5  A    between atoms: C_15  and  C_32
REMARK    6  A    between atoms: C_32  and  C_33
REMARK    7  A    between atoms: C_33  and  C_34
REMARK                            x       y       z     vdW  Elec       q    Type
REMARK                         _______ _______ _______ _____ _____    ______ ____
ROOT
ATOM      1  N   UNL     1      -1.198  -0.803   2.251  0.00  0.00    -0.237 N 
ATOM      2  C   UNL     1      -1.701  -1.814   1.534  0.00  0.00    +0.224 C 
ATOM      3  O   UNL     1      -1.281  -2.951   1.535  0.00  0.00    -0.275 OA
ATOM      4  C   UNL     1      -2.876  -1.317   0.721  0.00  0.00    +0.073 C 
ATOM      5  C   UNL     1      -2.492  -1.314  -0.774  0.00  0.00    -0.057 C 
ATOM      6  C   UNL     1      -2.664   0.941  -0.189  0.00  0.00    +0.050 C 
ATOM      7  C   UNL     1      -2.970   0.185   1.109  0.00  0.00    +0.088 C 
ATOM      8  C   UNL     1      -1.832   0.364   2.088  0.00  0.00    +0.225 C 
ATOM      9  O   UNL     1      -1.539   1.403   2.639  0.00  0.00    -0.275 OA
ATOM     10  C   UNL     1      -1.238   1.411  -0.237  0.00  0.00    -0.026 A 
ATOM     11  C   UNL     1      -0.024   0.764  -0.174  0.00  0.00    +0.004 A 
ATOM     12  C   UNL     1       1.153   1.489  -0.242  0.00  0.00    +0.002 A 
ATOM     13  C   UNL     1       1.106   2.865  -0.369  0.00  0.00    +0.022 A 
ATOM     14  C   UNL     1      -0.108   3.519  -0.427  0.00  0.00    +0.062 A 
ATOM     15  C   UNL     1      -1.297   2.796  -0.359  0.00  0.00    +0.054 A 
ATOM     16  N   UNL     1      -2.628   3.221  -0.397  0.00  0.00    -0.285 N 
ATOM     17  C   UNL     1      -3.492   2.192  -0.302  0.00  0.00    +0.211 C 
ATOM     18  O   UNL     1      -4.703   2.261  -0.307  0.00  0.00    -0.277 OA
ATOM     19 CL   UNL     1      -0.154   5.248  -0.585  0.00  0.00    -0.082 Cl
ATOM     20  H   UNL     1      -2.897   4.149  -0.481  0.00  0.00    +0.155 HD
ATOM     21  N   UNL     1      -2.944  -0.006  -1.254  0.00  0.00    +0.394 N 
ATOM     22  H   UNL     1      -3.951  -0.030  -1.452  0.00  0.00    -0.083 HD
ATOM     23  H   UNL     1      -2.433   0.256  -2.105  0.00  0.00    -0.083 HD
ENDROOT
BRANCH   1  24
ATOM     24  C   UNL     1      -0.047  -0.961   3.144  0.00  0.00    +0.151 C 
BRANCH  24  28
ATOM     25  C   UNL     1      -1.409  -2.049   7.045  0.00  0.00    +0.120 A 
ATOM     26  C   UNL     1      -1.107  -3.033   6.115  0.00  0.00    +0.046 A 
ATOM     27  C   UNL     1      -0.666  -2.679   4.855  0.00  0.00    +0.009 A 
ATOM     28  C   UNL     1      -0.527  -1.345   4.520  0.00  0.00    -0.029 A 
ATOM     29  C   UNL     1      -0.822  -0.362   5.446  0.00  0.00    +0.009 A 
ATOM     30  C   UNL     1      -1.268  -0.711   6.707  0.00  0.00    +0.046 A 
BRANCH  25  32
ATOM     31  C   UNL     1      -2.135  -1.329   9.192  0.00  0.00    +0.277 C 
ATOM     32  O   UNL     1      -1.842  -2.395   8.286  0.00  0.00    -0.495 OA
ENDBRANCH  25  32
ENDBRANCH  24  28
ENDBRANCH   1  24
BRANCH   5  33
ATOM     33  C   UNL     1      -3.200  -2.454  -1.510  0.00  0.00    -0.006 C 
BRANCH  33  34
ATOM     34  C   UNL     1      -2.766  -2.460  -2.978  0.00  0.00    +0.094 C 
BRANCH  34  35
ATOM     35  C   UNL     1      -3.464  -3.582  -3.702  0.00  0.00    +0.210 C 
ATOM     36  O   UNL     1      -4.232  -4.306  -3.104  0.00  0.00    -0.276 OA
ATOM     37  N   UNL     1      -3.234  -3.782  -5.015  0.00  0.00    -0.329 N 
ATOM     38  H   UNL     1      -2.619  -3.204  -5.494  0.00  0.00    +0.145 HD
ATOM     39  H   UNL     1      -3.683  -4.504  -5.482  0.00  0.00    +0.145 HD
ENDBRANCH  34  35
ENDBRANCH  33  34
ENDBRANCH   5  33
TORSDOF 6
