REMARK  Name = ZINC15084417
REMARK  8 active torsions:
REMARK  status: ('A' for Active; 'I' for Inactive)
REMARK    1  A    between atoms: C_1  and  O_2
REMARK    2  A    between atoms: O_2  and  C_3
REMARK    3  A    between atoms: C_3  and  C_5
REMARK    4  A    between atoms: C_8  and  C_11
REMARK    5  A    between atoms: N_24  and  C_25
REMARK    6  A    between atoms: C_25  and  C_26
REMARK    7  A    between atoms: C_29  and  N_33
REMARK    8  A    between atoms: C_30  and  C_31
REMARK                            x       y       z     vdW  Elec       q    Type
REMARK                         _______ _______ _______ _____ _____    ______ ____
ROOT
ATOM      1  C   UNL     1     -10.213  -1.818   2.357  0.00  0.00    +0.103 C 
ATOM      2  C   UNL     1      -8.853  -1.376   1.893  0.00  0.00    +0.073 A 
ATOM      3  C   UNL     1      -8.152  -0.400   2.583  0.00  0.00    +0.157 A 
ATOM      4  C   UNL     1      -6.897  -0.028   2.112  0.00  0.00    +0.100 A 
ATOM      5  C   UNL     1      -6.320  -0.600   0.973  0.00  0.00    +0.154 A 
ATOM      6  N   UNL     1      -7.067  -1.573   0.316  0.00  0.00    -0.306 N 
ATOM      7  H   UNL     1      -6.702  -1.993  -0.479  0.00  0.00    +0.170 HD
ATOM      8  C   UNL     1      -8.277  -1.945   0.755  0.00  0.00    +0.258 A 
ATOM      9  O   UNL     1      -8.893  -2.805   0.144  0.00  0.00    -0.267 OA
ATOM     10  N   UNL     1      -5.116  -0.129   0.653  0.00  0.00    -0.207 NA
ATOM     11  C   UNL     1      -4.507   0.798   1.365  0.00  0.00    +0.161 A 
ATOM     12  S   UNL     1      -5.653   1.129   2.628  0.00  0.00    -0.047 S 
ATOM     13  N   UNL     1      -3.270   1.369   1.157  0.00  0.00    -0.320 N 
ATOM     14  O   UNL     1      -8.676   0.176   3.688  0.00  0.00    -0.440 OA
ATOM     15  C   UNL     1      -9.676  -0.428   4.352  0.00  0.00    +0.199 C 
ATOM     16  C   UNL     1     -10.444  -1.383   3.777  0.00  0.00    +0.098 C 
ATOM     17  H   UNL     1      -2.942   2.051   1.763  0.00  0.00    +0.148 HD
ENDROOT
BRANCH   1  21
ATOM     18  C   UNL     1     -13.203  -0.073  -0.154  0.00  0.00    +0.059 A 
ATOM     19  C   UNL     1     -13.091  -1.462  -0.058  0.00  0.00    +0.015 A 
ATOM     20  C   UNL     1     -12.124  -2.018   0.754  0.00  0.00    +0.005 A 
ATOM     21  C   UNL     1     -11.266  -1.203   1.472  0.00  0.00    -0.034 A 
ATOM     22  C   UNL     1     -11.375   0.173   1.385  0.00  0.00    +0.005 A 
ATOM     23  C   UNL     1     -12.334   0.743   0.572  0.00  0.00    +0.015 A 
BRANCH  18  24
ATOM     24  C   UNL     1     -14.236   0.529  -1.022  0.00  0.00    +0.339 C 
ATOM     25  O   UNL     1     -14.990  -0.183  -1.653  0.00  0.00    -0.245 OA
BRANCH  24  27
ATOM     26  C   UNL     1     -15.379   2.391  -1.983  0.00  0.00    +0.280 C 
ATOM     27  O   UNL     1     -14.341   1.869  -1.113  0.00  0.00    -0.464 OA
ENDBRANCH  24  27
ENDBRANCH  18  24
ENDBRANCH   1  21
BRANCH  15  28
ATOM     28  N   UNL     1      -9.927  -0.065   5.652  0.00  0.00    -0.328 N 
ATOM     29  H   UNL     1     -10.645  -0.491   6.144  0.00  0.00    +0.145 HD
ATOM     30  H   UNL     1      -9.385   0.618   6.077  0.00  0.00    +0.145 HD
ENDBRANCH  15  28
BRANCH  16  31
ATOM     31  C   UNL     1     -11.496  -1.991   4.536  0.00  0.00    +0.101 C 
ATOM     32  N   UNL     1     -12.330  -2.472   5.138  0.00  0.00    -0.191 NA
ENDBRANCH  16  31
BRANCH  13  33
ATOM     33  C   UNL     1      -2.451   0.944   0.019  0.00  0.00    +0.130 C 
BRANCH  33  34
ATOM     34  C   UNL     1      -1.156   1.715   0.017  0.00  0.00    -0.016 C 
ATOM     35  C   UNL     1      -0.013   1.076   0.008  0.00  0.00    +0.005 C 
ENDBRANCH  33  34
ENDBRANCH  13  33
TORSDOF 7
