REMARK  Name = ZINC03148132
REMARK  6 active torsions:
REMARK  status: ('A' for Active; 'I' for Inactive)
REMARK    1  A    between atoms: C_3  and  O_23
REMARK    2  A    between atoms: C_4  and  C_8
REMARK    3  A    between atoms: N_9  and  N_10
REMARK    4  A    between atoms: C_11  and  C_13
REMARK    5  A    between atoms: C_13  and  O_14
REMARK    6  A    between atoms: O_14  and  C_15
REMARK                            x       y       z     vdW  Elec       q    Type
REMARK                         _______ _______ _______ _____ _____    ______ ____
ROOT
ATOM      1  N   UNL     1       2.279   5.621   0.009  0.00  0.00    -0.204 N 
ATOM      2  C   UNL     1       3.441   6.305   0.002  0.00  0.00    +0.270 C 
ATOM      3  O   UNL     1       4.496   5.707  -0.011  0.00  0.00    -0.270 OA
ATOM      4  H   UNL     1       1.435   6.099   0.020  0.00  0.00    +0.177 HD
ENDROOT
BRANCH   1   6
ATOM      5  C   UNL     1       1.172   3.562   0.009  0.00  0.00    +0.142 C 
ATOM      6  N   UNL     1       2.291   4.220   0.002  0.00  0.00    -0.188 NA
BRANCH   5  10
ATOM      7  C   UNL     1       1.208  -0.685  -0.013  0.00  0.00    +0.023 A 
ATOM      8  C   UNL     1       2.403   0.009  -0.020  0.00  0.00    +0.047 A 
ATOM      9  C   UNL     1       2.402   1.394  -0.013  0.00  0.00    +0.126 A 
ATOM     10  C   UNL     1       1.185   2.088   0.002  0.00  0.00    +0.037 A 
ATOM     11  C   UNL     1      -0.017   1.376   0.010  0.00  0.00    +0.033 A 
ATOM     12  C   UNL     1       0.002  -0.004   0.002  0.00  0.00    +0.042 A 
ATOM     13 CL   UNL     1      -1.491  -0.889   0.012  0.00  0.00    -0.084 Cl
BRANCH   9  14
ATOM     14  O   UNL     1       3.576   2.076  -0.019  0.00  0.00    -0.506 OA
ATOM     15  H   UNL     1       3.909   2.279  -0.904  0.00  0.00    +0.292 HD
ENDBRANCH   9  14
ENDBRANCH   5  10
ENDBRANCH   1   6
BRANCH   2  16
ATOM     16  C   UNL     1       3.428   7.812   0.010  0.00  0.00    +0.326 C 
BRANCH  16  17
ATOM     17  O   UNL     1       4.771   8.300  -0.000  0.00  0.00    -0.482 OA
BRANCH  17  18
ATOM     18  C   UNL     1       4.938   9.649   0.005  0.00  0.00    +0.135 A 
ATOM     19  C   UNL     1       3.832  10.485   0.019  0.00  0.00    +0.048 A 
ATOM     20  C   UNL     1       4.003  11.856   0.025  0.00  0.00    +0.023 A 
ATOM     21  C   UNL     1       5.277  12.395   0.016  0.00  0.00    +0.042 A 
ATOM     22  C   UNL     1       6.383  11.563   0.002  0.00  0.00    +0.039 A 
ATOM     23  C   UNL     1       6.215  10.191   0.002  0.00  0.00    +0.061 A 
ATOM     24 BR   UNL     1       7.726   9.053  -0.011  0.00  0.00    -0.046 Br
ATOM     25 CL   UNL     1       5.490  14.118   0.023  0.00  0.00    -0.084 Cl
ENDBRANCH  17  18
ENDBRANCH  16  17
ENDBRANCH   2  16
TORSDOF 6
