REMARK  Name = ZINC59830321
REMARK  5 active torsions:
REMARK  status: ('A' for Active; 'I' for Inactive)
REMARK    1  A    between atoms: C_1  and  C_2
REMARK    2  A    between atoms: C_7  and  C_8
REMARK    3  A    between atoms: N_10  and  N_11
REMARK    4  A    between atoms: C_12  and  C_14
REMARK    5  A    between atoms: N_18  and  C_19
REMARK                            x       y       z     vdW  Elec       q    Type
REMARK                         _______ _______ _______ _____ _____    ______ ____
ROOT
ATOM      1  C   UNL     1       1.151   0.089   2.457  0.00  0.00    +0.260 C 
ATOM      2  O   UNL     1       0.943   1.287   2.471  0.00  0.00    -0.269 OA
ATOM      3  N   UNL     1       1.252  -0.591   3.616  0.00  0.00    -0.230 N 
ATOM      4  H   UNL     1       1.418  -1.546   3.604  0.00  0.00    +0.173 HD
ENDROOT
BRANCH   1  11
ATOM      5  C   UNL     1       0.662   1.506  -0.018  0.00  0.00    +0.044 C 
ATOM      6  C   UNL     1       1.060   0.053  -0.032  0.00  0.00    -0.037 A 
ATOM      7  C   UNL     1       1.200  -0.614  -1.232  0.00  0.00    +0.019 A 
ATOM      8  C   UNL     1       1.565  -1.949  -1.246  0.00  0.00    +0.018 A 
ATOM      9  C   UNL     1       1.792  -2.624  -0.058  0.00  0.00    +0.016 A 
ATOM     10  C   UNL     1       1.655  -1.969   1.147  0.00  0.00    +0.014 A 
ATOM     11  C   UNL     1       1.293  -0.620   1.168  0.00  0.00    +0.041 A 
ATOM     12 BR   UNL     1       1.755  -2.856  -2.895  0.00  0.00    -0.050 Br
ENDBRANCH   1  11
BRANCH   3  13
ATOM     13  N   UNL     1       1.117   0.082   4.837  0.00  0.00    -0.229 N 
ATOM     14  C   UNL     1       1.217  -0.598   5.996  0.00  0.00    +0.277 C 
ATOM     15  O   UNL     1       1.499  -1.782   5.984  0.00  0.00    -0.267 OA
ATOM     16  H   UNL     1       0.950   1.038   4.848  0.00  0.00    +0.173 HD
BRANCH  14  17
ATOM     17  C   UNL     1       0.988   0.088   7.272  0.00  0.00    +0.106 A 
ATOM     18  C   UNL     1       0.803   1.443   7.447  0.00  0.00    +0.032 A 
ATOM     19  C   UNL     1       0.619   1.659   8.816  0.00  0.00    +0.020 A 
ATOM     20  C   UNL     1       0.692   0.460   9.440  0.00  0.00    +0.086 A 
ATOM     21  N   UNL     1       0.910  -0.504   8.512  0.00  0.00    -0.346 N 
ATOM     22  C   UNL     1       1.046  -1.937   8.784  0.00  0.00    +0.149 C 
ENDBRANCH  14  17
ENDBRANCH   3  13
TORSDOF 3
