REMARK  Name = ZINC63709973
REMARK  8 active torsions:
REMARK  status: ('A' for Active; 'I' for Inactive)
REMARK    1  A    between atoms: C_4  and  C_7
REMARK    2  A    between atoms: N_9  and  C_10
REMARK    3  A    between atoms: C_10  and  C_11
REMARK    4  A    between atoms: C_11  and  S_12
REMARK    5  A    between atoms: S_12  and  N_15
REMARK    6  A    between atoms: N_15  and  C_16
REMARK    7  A    between atoms: C_16  and  C_17
REMARK    8  A    between atoms: C_17  and  C_18
REMARK                            x       y       z     vdW  Elec       q    Type
REMARK                         _______ _______ _______ _____ _____    ______ ____
ROOT
ATOM      1  S   UNL     1       6.327  -5.134  -0.087  0.00  0.00    +0.031 S 
ATOM      2  O   UNL     1       6.989  -4.924  -1.327  0.00  0.00    -0.158 OA
ATOM      3  O   UNL     1       7.013  -4.937   1.142  0.00  0.00    -0.158 OA
ENDROOT
BRANCH   1   4
ATOM      4  N   UNL     1       5.922  -6.740  -0.092  0.00  0.00    -0.194 NA
ATOM      5  H   UNL     1       6.155  -7.301   0.664  0.00  0.00    +0.148 HD
BRANCH   4   6
ATOM      6  C   UNL     1       5.211  -7.312  -1.238  0.00  0.00    +0.110 C 
BRANCH   6   7
ATOM      7  C   UNL     1       5.286  -8.839  -1.173  0.00  0.00    +0.050 C 
BRANCH   7   8
ATOM      8  C   UNL     1       4.555  -9.428  -2.352  0.00  0.00    -0.040 C 
ATOM      9  C   UNL     1       5.093  -9.817  -3.530  0.00  0.00    -0.001 A 
ATOM     10  C   UNL     1       6.466  -9.808  -4.048  0.00  0.00    +0.010 A 
ATOM     11  C   UNL     1       6.700 -10.272  -5.297  0.00  0.00    +0.001 A 
ATOM     12  C   UNL     1       5.665 -10.761  -6.107  0.00  0.00    +0.002 A 
ATOM     13  C   UNL     1       4.379 -10.802  -5.701  0.00  0.00    +0.026 A 
ATOM     14  C   UNL     1       4.018 -10.339  -4.405  0.00  0.00    +0.043 A 
ATOM     15  N   UNL     1       2.862 -10.275  -3.792  0.00  0.00    -0.380 N 
ATOM     16  C   UNL     1       3.073  -9.710  -2.454  0.00  0.00    +0.144 C 
ATOM     17  H   UNL     1       2.010 -10.557  -4.159  0.00  0.00    +0.160 HD
ENDBRANCH   7   8
ENDBRANCH   6   7
ENDBRANCH   4   6
ENDBRANCH   1   4
BRANCH   1  18
ATOM     18  C   UNL     1       4.742  -4.253  -0.067  0.00  0.00    +0.203 C 
BRANCH  18  19
ATOM     19  C   UNL     1       4.997  -2.744  -0.061  0.00  0.00    +0.128 C 
BRANCH  19  22
ATOM     20  C   UNL     1       3.696  -0.685  -0.037  0.00  0.00    +0.244 C 
ATOM     21  O   UNL     1       4.738  -0.060  -0.044  0.00  0.00    -0.270 OA
ATOM     22  N   UNL     1       3.717  -2.032  -0.045  0.00  0.00    -0.310 N 
ATOM     23  H   UNL     1       2.885  -2.531  -0.039  0.00  0.00    +0.149 HD
BRANCH  20  27
ATOM     24  C   UNL     1      -0.017   1.379   0.010  0.00  0.00    +0.000 A 
ATOM     25  C   UNL     1       1.168   2.094   0.002  0.00  0.00    +0.001 A 
ATOM     26  C   UNL     1       2.377   1.429  -0.013  0.00  0.00    +0.013 A 
ATOM     27  C   UNL     1       2.403   0.034  -0.021  0.00  0.00    +0.037 A 
ATOM     28  C   UNL     1       1.204  -0.681  -0.013  0.00  0.00    +0.013 A 
ATOM     29  C   UNL     1       0.002  -0.004   0.002  0.00  0.00    +0.001 A 
ENDBRANCH  20  27
ENDBRANCH  19  22
ENDBRANCH  18  19
ENDBRANCH   1  18
TORSDOF 8
