REMARK  Name = ZINC61537374
REMARK  1 active torsions:
REMARK  status: ('A' for Active; 'I' for Inactive)
REMARK    1  A    between atoms: C_4  and  N_8
REMARK                            x       y       z     vdW  Elec       q    Type
REMARK                         _______ _______ _______ _____ _____    ______ ____
ROOT
ATOM      1  N   UNL     1       3.623  -0.654  -0.037  0.00  0.00    -0.281 N 
ATOM      2  C   UNL     1       3.646  -2.031   0.060  0.00  0.00    +0.225 A 
ATOM      3  N   UNL     1       4.806  -2.672   0.151  0.00  0.00    -0.181 NA
ATOM      4  C   UNL     1       4.824  -3.997   0.243  0.00  0.00    +0.223 A 
ATOM      5  N   UNL     1       3.681  -4.679   0.245  0.00  0.00    -0.184 NA
ATOM      6  C   UNL     1       2.527  -4.038   0.155  0.00  0.00    +0.229 A 
ATOM      7  N   UNL     1       2.506  -2.718   0.068  0.00  0.00    -0.184 NA
ATOM      8 CL   UNL     1       1.038  -4.930   0.157  0.00  0.00    -0.041 Cl
ATOM      9  N   UNL     1       6.027  -4.667   0.337  0.00  0.00    -0.299 N 
ATOM     10  C   UNL     1       7.357  -4.041   0.353  0.00  0.00    +0.108 C 
ATOM     11  C   UNL     1       8.398  -5.177   0.443  0.00  0.00    +0.020 C 
ATOM     12  C   UNL     1       7.619  -6.405  -0.096  0.00  0.00    +0.020 C 
ATOM     13  C   UNL     1       6.191  -6.128   0.445  0.00  0.00    +0.108 C 
ATOM     14  H   UNL     1       4.452  -0.160  -0.128  0.00  0.00    +0.155 HD
ENDROOT
BRANCH   1  18
ATOM     15  C   UNL     1      -0.014   1.383   0.065  0.00  0.00    +0.023 A 
ATOM     16  C   UNL     1       1.081   1.957  -0.556  0.00  0.00    +0.041 A 
ATOM     17  C   UNL     1       2.288   1.285  -0.592  0.00  0.00    +0.145 A 
ATOM     18  C   UNL     1       2.402   0.030  -0.002  0.00  0.00    +0.071 A 
ATOM     19  C   UNL     1       1.301  -0.543   0.620  0.00  0.00    +0.046 A 
ATOM     20  C   UNL     1       0.096   0.135   0.652  0.00  0.00    +0.043 A 
ATOM     21 CL   UNL     1      -1.280  -0.581   1.431  0.00  0.00    -0.083 Cl
ATOM     22  F   UNL     1       3.357   1.846  -1.199  0.00  0.00    -0.204 F 
ENDBRANCH   1  18
TORSDOF 1
