REMARK  Name = ZINC67082229
REMARK  6 active torsions:
REMARK  status: ('A' for Active; 'I' for Inactive)
REMARK    1  A    between atoms: C_1  and  O_2
REMARK    2  A    between atoms: O_2  and  C_3
REMARK    3  A    between atoms: C_9  and  N_12
REMARK    4  A    between atoms: N_15  and  N_16
REMARK    5  A    between atoms: C_17  and  C_19
REMARK    6  A    between atoms: C_19  and  C_20
REMARK                            x       y       z     vdW  Elec       q    Type
REMARK                         _______ _______ _______ _____ _____    ______ ____
ROOT
ATOM      1  N   UNL     1       2.925  -4.360  -2.818  0.00  0.00    -0.294 N 
ATOM      2  C   UNL     1       3.956  -3.856  -3.525  0.00  0.00    +0.316 C 
ATOM      3  O   UNL     1       4.412  -2.765  -3.241  0.00  0.00    -0.251 OA
ATOM      4  N   UNL     1       4.482  -4.561  -4.546  0.00  0.00    -0.218 N 
ATOM      5  H   UNL     1       2.561  -5.230  -3.045  0.00  0.00    +0.151 HD
ATOM      6  H   UNL     1       5.224  -4.199  -5.054  0.00  0.00    +0.174 HD
ENDROOT
BRANCH   1  13
ATOM      7  C   UNL     1       0.600  -0.602  -1.046  0.00  0.00    +0.403 C 
ATOM      8  O   UNL     1       1.092   0.072  -1.930  0.00  0.00    -0.226 OA
ATOM      9  N   UNL     1       0.653  -1.946  -1.115  0.00  0.00    -0.266 N 
ATOM     10  C   UNL     1       0.057  -2.774  -0.057  0.00  0.00    +0.111 C 
ATOM     11  C   UNL     1       1.117  -3.753   0.459  0.00  0.00    +0.021 C 
ATOM     12  C   UNL     1       1.685  -4.550  -0.718  0.00  0.00    +0.025 C 
ATOM     13  C   UNL     1       2.353  -3.594  -1.709  0.00  0.00    +0.092 C 
ATOM     14  C   UNL     1       1.302  -2.613  -2.252  0.00  0.00    +0.133 C 
BRANCH   7  16
ATOM     15  C   UNL     1      -0.017   1.425   0.010  0.00  0.00    +0.282 C 
ATOM     16  O   UNL     1       0.002  -0.004   0.002  0.00  0.00    -0.454 OA
ENDBRANCH   7  16
ENDBRANCH   1  13
BRANCH   4  17
ATOM     17  N   UNL     1       3.957  -5.818  -4.873  0.00  0.00    -0.233 N 
ATOM     18  C   UNL     1       4.483  -6.524  -5.894  0.00  0.00    +0.229 C 
ATOM     19  O   UNL     1       5.411  -6.070  -6.529  0.00  0.00    -0.274 OA
ATOM     20  H   UNL     1       3.215  -6.181  -4.364  0.00  0.00    +0.173 HD
BRANCH  18  21
ATOM     21  C   UNL     1       3.918  -7.876  -6.245  0.00  0.00    +0.101 C 
BRANCH  21  22
ATOM     22  C   UNL     1       4.689  -8.458  -7.432  0.00  0.00    -0.002 C 
ATOM     23  C   UNL     1       6.139  -8.720  -7.019  0.00  0.00    +0.004 C 
ATOM     24  C   UNL     1       6.910  -9.302  -8.205  0.00  0.00    +0.000 C 
ATOM     25  C   UNL     1       6.259 -10.615  -8.642  0.00  0.00    +0.000 C 
ATOM     26  C   UNL     1       4.809 -10.353  -9.055  0.00  0.00    +0.000 C 
ATOM     27  C   UNL     1       4.038  -9.771  -7.868  0.00  0.00    +0.004 C 
ENDBRANCH  21  22
ENDBRANCH  18  21
ENDBRANCH   4  17
TORSDOF 5
