REMARK  Name = ZINC63646955
REMARK  4 active torsions:
REMARK  status: ('A' for Active; 'I' for Inactive)
REMARK    1  A    between atoms: C_1  and  C_2
REMARK    2  A    between atoms: C_9  and  C_13
REMARK    3  A    between atoms: C_13  and  S_14
REMARK    4  A    between atoms: S_14  and  C_15
REMARK                            x       y       z     vdW  Elec       q    Type
REMARK                         _______ _______ _______ _____ _____    ______ ____
ROOT
ATOM      1  C   UNL     1      -0.018   1.503   0.010  0.00  0.00    +0.052 C 
ATOM      2  C   UNL     1       0.002  -0.004   0.002  0.00  0.00    -0.000 C 
ATOM      3  C   UNL     1      -1.031  -0.841   0.002  0.00  0.00    +0.091 C 
ATOM      4  N   UNL     1      -0.856  -2.210   0.053  0.00  0.00    -0.245 N 
ATOM      5  C   UNL     1       0.510  -2.648  -0.374  0.00  0.00    +0.230 C 
ATOM      6  S   UNL     1       1.422  -1.092  -0.018  0.00  0.00    -0.086 S 
ATOM      7  N   UNL     1       0.916  -3.703   0.564  0.00  0.00    -0.319 N 
ATOM      8  C   UNL     1       0.005  -4.697   0.834  0.00  0.00    +0.021 C 
ATOM      9  C   UNL     1      -1.317  -4.432   0.775  0.00  0.00    +0.087 C 
ATOM     10  C   UNL     1      -1.768  -3.132   0.457  0.00  0.00    +0.247 C 
ATOM     11  O   UNL     1      -2.954  -2.856   0.514  0.00  0.00    -0.270 OA
ATOM     12  H   UNL     1       1.793  -3.699   0.978  0.00  0.00    +0.148 HD
ENDROOT
BRANCH   8  13
ATOM     13  C   UNL     1       0.482  -6.080   1.195  0.00  0.00    +0.128 C 
BRANCH  13  14
ATOM     14  S   UNL     1       1.080  -6.922  -0.296  0.00  0.00    -0.078 S 
BRANCH  14  15
ATOM     15  C   UNL     1       1.595  -8.504   0.284  0.00  0.00    +0.210 A 
ATOM     16  H   UNL     1       2.128 -10.801   2.326  0.00  0.00    +0.192 HD
ATOM     17  N   UNL     1       2.113  -9.479  -0.471  0.00  0.00    -0.188 NA
ATOM     18  C   UNL     1       2.387 -10.523   0.281  0.00  0.00    +0.209 A 
ATOM     19  N   UNL     1       2.042 -10.225   1.550  0.00  0.00    -0.246 N 
ATOM     20  N   UNL     1       1.538  -8.915   1.529  0.00  0.00    -0.144 NA
ATOM     21  N   UNL     1       2.933 -11.717  -0.154  0.00  0.00    -0.328 N 
ATOM     22  H   UNL     1       3.148 -11.839  -1.092  0.00  0.00    +0.145 HD
ATOM     23  H   UNL     1       3.099 -12.434   0.479  0.00  0.00    +0.145 HD
ENDBRANCH  14  15
ENDBRANCH  13  14
ENDBRANCH   8  13
TORSDOF 3
