REMARK  Name = ZINC05956090
REMARK  9 active torsions:
REMARK  status: ('A' for Active; 'I' for Inactive)
REMARK    1  A    between atoms: C_1  and  C_2
REMARK    2  A    between atoms: C_4  and  C_27
REMARK    3  A    between atoms: C_5  and  C_25
REMARK    4  A    between atoms: N_8  and  C_9
REMARK    5  A    between atoms: C_11  and  O_24
REMARK    6  A    between atoms: C_13  and  O_23
REMARK    7  A    between atoms: C_15  and  O_22
REMARK    8  A    between atoms: C_17  and  C_20
REMARK    9  A    between atoms: C_20  and  O_21
REMARK                            x       y       z     vdW  Elec       q    Type
REMARK                         _______ _______ _______ _____ _____    ______ ____
ROOT
ATOM      1  C   UNL     1      -3.480   1.382   0.242  0.00  0.00    +0.063 C 
ATOM      2  C   UNL     1      -3.115   0.825  -1.110  0.00  0.00    +0.020 A 
ATOM      3  C   UNL     1      -3.881   1.132  -2.181  0.00  0.00    +0.031 A 
ATOM      4  C   UNL     1      -3.555   0.614  -3.451  0.00  0.00    +0.004 A 
ATOM      5  C   UNL     1      -2.425  -0.215  -3.573  0.00  0.00    +0.090 A 
ATOM      6  C   UNL     1      -1.660  -0.495  -2.414  0.00  0.00    +0.107 A 
ATOM      7  S   UNL     1      -0.277  -1.498  -2.522  0.00  0.00    -0.031 S 
ATOM      8  N   UNL     1      -2.021   0.029  -1.228  0.00  0.00    -0.309 N 
ENDROOT
BRANCH   4   9
ATOM      9  C   UNL     1      -4.384   0.933  -4.630  0.00  0.00    -0.009 A 
ATOM     10  C   UNL     1      -4.465   2.237  -5.097  0.00  0.00    +0.009 A 
ATOM     11  C   UNL     1      -5.243   2.544  -6.206  0.00  0.00    +0.001 A 
ATOM     12  C   UNL     1      -5.945   1.579  -6.865  0.00  0.00    +0.008 A 
ATOM     13  C   UNL     1      -5.893   0.245  -6.426  0.00  0.00    -0.017 A 
ATOM     14  C   UNL     1      -5.101  -0.089  -5.301  0.00  0.00    -0.010 A 
ATOM     15  C   UNL     1      -5.053  -1.419  -4.861  0.00  0.00    +0.009 A 
ATOM     16  C   UNL     1      -5.761  -2.375  -5.527  0.00  0.00    +0.001 A 
ATOM     17  C   UNL     1      -6.536  -2.050  -6.637  0.00  0.00    +0.001 A 
ATOM     18  C   UNL     1      -6.609  -0.767  -7.088  0.00  0.00    +0.008 A 
ENDBRANCH   4   9
BRANCH   8  19
ATOM     19  C   UNL     1      -1.220  -0.270  -0.039  0.00  0.00    +0.252 C 
ATOM     20  C   UNL     1      -1.942  -1.318   0.812  0.00  0.00    +0.195 C 
ATOM     21  C   UNL     1      -1.127  -1.581   2.083  0.00  0.00    +0.178 C 
ATOM     22  C   UNL     1      -0.929  -0.260   2.832  0.00  0.00    +0.177 C 
ATOM     23  C   UNL     1      -0.247   0.748   1.903  0.00  0.00    +0.177 C 
ATOM     24  O   UNL     1      -1.040   0.923   0.727  0.00  0.00    -0.346 OA
BRANCH  22  25
ATOM     25  O   UNL     1      -2.199   0.253   3.242  0.00  0.00    -0.386 OA
ATOM     26  H   UNL     1      -2.688  -0.335   3.834  0.00  0.00    +0.210 HD
ENDBRANCH  22  25
BRANCH  21  27
ATOM     27  O   UNL     1      -1.830  -2.503   2.918  0.00  0.00    -0.386 OA
ATOM     28  H   UNL     1      -1.371  -2.716   3.743  0.00  0.00    +0.210 HD
ENDBRANCH  21  27
BRANCH  20  29
ATOM     29  O   UNL     1      -2.071  -2.531   0.068  0.00  0.00    -0.385 OA
ATOM     30  H   UNL     1      -2.520  -3.240   0.548  0.00  0.00    +0.210 HD
ENDBRANCH  20  29
BRANCH  23  31
ATOM     31  C   UNL     1      -0.100   2.089   2.624  0.00  0.00    +0.190 C 
BRANCH  31  32
ATOM     32  O   UNL     1       0.639   2.994   1.801  0.00  0.00    -0.392 OA
ATOM     33  H   UNL     1       0.771   3.866   2.196  0.00  0.00    +0.210 HD
ENDBRANCH  31  32
ENDBRANCH  23  31
ENDBRANCH   8  19
BRANCH   5  34
ATOM     34  C   UNL     1      -2.055  -0.764  -4.842  0.00  0.00    +0.102 C 
ATOM     35  N   UNL     1      -1.761  -1.200  -5.849  0.00  0.00    -0.191 NA
ENDBRANCH   5  34
TORSDOF 8
