REMARK  Name = ZINC23703329
REMARK  5 active torsions:
REMARK  status: ('A' for Active; 'I' for Inactive)
REMARK    1  A    between atoms: C_1  and  C_2
REMARK    2  A    between atoms: N_11  and  C_15
REMARK    3  A    between atoms: C_15  and  N_16
REMARK    4  A    between atoms: N_19  and  S_22
REMARK    5  A    between atoms: S_22  and  C_25
REMARK                            x       y       z     vdW  Elec       q    Type
REMARK                         _______ _______ _______ _____ _____    ______ ____
ROOT
ATOM      1  C   UNL     1       2.488   1.309  -5.723  0.00  0.00    +0.205 C 
ENDROOT
BRANCH   1  11
ATOM      2  C   UNL     1       2.854   0.082  -9.967  0.00  0.00    +0.010 C 
ATOM      3  C   UNL     1       4.118  -0.709  -9.626  0.00  0.00    +0.018 C 
ATOM      4  C   UNL     1       5.351   0.093 -10.052  0.00  0.00    +0.006 C 
ATOM      5  C   UNL     1       6.616  -0.689  -9.692  0.00  0.00    +0.000 C 
ATOM      6  C   UNL     1       6.664  -0.915  -8.179  0.00  0.00    +0.003 C 
ATOM      7  C   UNL     1       5.436  -1.721  -7.746  0.00  0.00    +0.035 C 
ATOM      8  C   UNL     1       4.168  -0.964  -8.124  0.00  0.00    +0.115 C 
ATOM      9  C   UNL     1       4.084   0.342  -7.368  0.00  0.00    +0.248 C 
ATOM     10  O   UNL     1       4.861   1.271  -7.419  0.00  0.00    -0.273 OA
ATOM     11  N   UNL     1       2.963   0.255  -6.622  0.00  0.00    -0.211 N 
ATOM     12  C   UNL     1       2.335  -0.912  -6.811  0.00  0.00    +0.310 C 
ATOM     13  O   UNL     1       1.301  -1.222  -6.252  0.00  0.00    -0.252 OA
ATOM     14  N   UNL     1       2.978  -1.706  -7.689  0.00  0.00    -0.285 N 
ATOM     15  H   UNL     1       2.779  -2.710  -8.090  0.00  0.00    +0.151 HD
ENDBRANCH   1  11
BRANCH   1  16
ATOM     16  N   UNL     1       3.057   1.103  -4.384  0.00  0.00    -0.284 NA
ATOM     17  C   UNL     1       3.119   2.367  -3.638  0.00  0.00    +0.103 C 
ATOM     18  C   UNL     1       3.880   2.146  -2.326  0.00  0.00    +0.125 C 
ATOM     19  N   UNL     1       3.251   1.029  -1.605  0.00  0.00    -0.174 NA
ATOM     20  C   UNL     1       3.034  -0.233  -2.329  0.00  0.00    +0.125 C 
ATOM     21  C   UNL     1       2.302   0.084  -3.642  0.00  0.00    +0.103 C 
BRANCH  19  22
ATOM     22  S   UNL     1       2.805   1.186  -0.018  0.00  0.00    +0.067 S 
ATOM     23  O   UNL     1       3.612   2.219   0.531  0.00  0.00    -0.152 OA
ATOM     24  O   UNL     1       2.773  -0.126   0.527  0.00  0.00    -0.152 OA
BRANCH  22  25
ATOM     25  C   UNL     1       1.146   1.780   0.001  0.00  0.00    +0.143 A 
ATOM     26  C   UNL     1      -0.013   1.076   0.008  0.00  0.00    +0.036 A 
ATOM     27  C   UNL     1      -1.213   1.761   0.017  0.00  0.00    +0.010 A 
ATOM     28  C   UNL     1      -1.196   3.116   0.030  0.00  0.00    +0.047 A 
ATOM     29  S   UNL     1       0.555   3.464   0.015  0.00  0.00    -0.077 S 
ENDBRANCH  22  25
ENDBRANCH  19  22
ENDBRANCH   1  16
TORSDOF 4
