REMARK  Name = ZINC12164186
REMARK  9 active torsions:
REMARK  status: ('A' for Active; 'I' for Inactive)
REMARK    1  A    between atoms: C_1  and  C_2
REMARK    2  A    between atoms: C_2  and  C_4
REMARK    3  A    between atoms: C_2  and  C_14
REMARK    4  A    between atoms: C_4  and  C_5
REMARK    5  A    between atoms: C_14  and  N_67
REMARK    6  A    between atoms: C_17  and  C_20
REMARK    7  A    between atoms: C_20  and  C_27
REMARK    8  A    between atoms: C_27  and  C_28
REMARK    9  A    between atoms: C_28  and  C_29
REMARK                            x       y       z     vdW  Elec       q    Type
REMARK                         _______ _______ _______ _____ _____    ______ ____
ROOT
ATOM      1  C   UNL     1      -0.117   0.957   5.016  0.00  0.00    -0.078 C 
ATOM      2  C   UNL     1      -0.775   1.547   3.766  0.00  0.00    -0.013 C 
ATOM      3  C   UNL     1      -0.039   1.042   2.522  0.00  0.00    +0.018 C 
ATOM      4  C   UNL     1      -0.067  -0.489   2.506  0.00  0.00    -0.013 C 
ATOM      5  C   UNL     1       0.569  -1.019   3.794  0.00  0.00    -0.078 C 
ATOM      6  N   UNL     1      -0.200  -0.517   4.952  0.00  0.00    +0.380 N 
ATOM      7  H   UNL     1      -1.184  -0.791   4.843  0.00  0.00    -0.082 HD
ENDROOT
BRANCH   3   8
ATOM      8  C   UNL     1      -0.729   1.579   1.267  0.00  0.00    +0.115 C 
ATOM      9  C   UNL     1      -0.779   3.094   1.293  0.00  0.00    +0.244 C 
ATOM     10  O   UNL     1       0.162   3.858   1.316  0.00  0.00    -0.273 OA
ATOM     11  N   UNL     1      -2.088   3.415   1.283  0.00  0.00    -0.238 N 
ATOM     12  C   UNL     1      -2.864   2.325   1.255  0.00  0.00    +0.307 C 
ATOM     13  O   UNL     1      -4.078   2.361   1.242  0.00  0.00    -0.252 OA
ATOM     14  N   UNL     1      -2.148   1.186   1.243  0.00  0.00    -0.285 N 
ATOM     15  H   UNL     1      -2.426   4.324   1.294  0.00  0.00    +0.159 HD
ATOM     16  H   UNL     1      -2.499   0.282   1.223  0.00  0.00    +0.151 HD
BRANCH   8  17
ATOM     17  C   UNL     1      -0.013   1.086   0.008  0.00  0.00    +0.040 C 
BRANCH  17  18
ATOM     18  C   UNL     1      -0.753   1.593  -1.232  0.00  0.00    +0.038 C 
BRANCH  18  19
ATOM     19  C   UNL     1      -0.047   1.107  -2.471  0.00  0.00    -0.047 A 
ATOM     20  C   UNL     1       0.950   1.873  -3.045  0.00  0.00    +0.003 A 
ATOM     21  C   UNL     1       1.601   1.425  -4.179  0.00  0.00    +0.000 A 
ATOM     22  C   UNL     1       1.246   0.215  -4.747  0.00  0.00    +0.000 A 
ATOM     23  C   UNL     1       0.245  -0.549  -4.176  0.00  0.00    +0.000 A 
ATOM     24  C   UNL     1      -0.402  -0.103  -3.039  0.00  0.00    +0.003 A 
ENDBRANCH  18  19
ENDBRANCH  17  18
ENDBRANCH   8  17
ENDBRANCH   3   8
BRANCH   6  25
ATOM     25  C   UNL     1       0.326  -1.107   6.200  0.00  0.00    -0.075 C 
BRANCH  25  27
ATOM     26  C   UNL     1      -1.489  -2.825   6.224  0.00  0.00    +0.006 C 
ATOM     27  C   UNL     1       0.025  -2.607   6.201  0.00  0.00    -0.026 C 
BRANCH  27  28
ATOM     28  C   UNL     1       0.652  -3.252   7.439  0.00  0.00    +0.036 C 
BRANCH  28  29
ATOM     29  C   UNL     1       0.462  -4.746   7.378  0.00  0.00    -0.043 A 
ATOM     30  C   UNL     1      -0.663  -5.322   7.938  0.00  0.00    +0.007 A 
ATOM     31  C   UNL     1      -0.844  -6.691   7.879  0.00  0.00    +0.050 A 
ATOM     32  C   UNL     1       0.109  -7.491   7.269  0.00  0.00    +0.166 A 
ATOM     33  C   UNL     1       1.245  -6.911   6.709  0.00  0.00    +0.166 A 
ATOM     34  C   UNL     1       1.417  -5.538   6.766  0.00  0.00    +0.053 A 
ATOM     35  O   UNL     1       2.021  -7.899   6.175  0.00  0.00    -0.453 OA
ATOM     36  C   UNL     1       1.550  -9.123   6.771  0.00  0.00    +0.466 C 
ATOM     37  O   UNL     1       0.173  -8.842   7.085  0.00  0.00    -0.453 OA
ENDBRANCH  28  29
ENDBRANCH  27  28
ENDBRANCH  25  27
ENDBRANCH   6  25
TORSDOF 8
