REMARK  Name = ZINC37447405
REMARK  6 active torsions:
REMARK  status: ('A' for Active; 'I' for Inactive)
REMARK    1  A    between atoms: C_1  and  C_2
REMARK    2  A    between atoms: C_7  and  S_8
REMARK    3  A    between atoms: S_8  and  N_11
REMARK    4  A    between atoms: C_15  and  C_18
REMARK    5  A    between atoms: C_23  and  N_26
REMARK    6  A    between atoms: C_33  and  C_38
REMARK                            x       y       z     vdW  Elec       q    Type
REMARK                         _______ _______ _______ _____ _____    ______ ____
ROOT
ATOM      1  N   UNL     1       1.660   1.141   2.640  0.00  0.00    -0.176 NA
ATOM      2  C   UNL     1       2.990   0.577   2.911  0.00  0.00    +0.109 C 
ATOM      3  C   UNL     1       3.887   0.823   1.693  0.00  0.00    +0.018 C 
ATOM      4  C   UNL     1       3.893   2.317   1.363  0.00  0.00    +0.015 C 
ATOM      5  C   UNL     1       2.473   2.771   1.016  0.00  0.00    +0.091 C 
ATOM      6  C   UNL     1       1.560   2.545   2.219  0.00  0.00    +0.122 C 
ENDROOT
BRANCH   5   7
ATOM      7  C   UNL     1       2.486   4.234   0.658  0.00  0.00    +0.220 C 
ATOM      8  O   UNL     1       2.191   5.065   1.492  0.00  0.00    -0.275 OA
ATOM      9  N   UNL     1       2.824   4.621  -0.588  0.00  0.00    -0.301 N 
ATOM     10  C   UNL     1       3.074   3.625  -1.638  0.00  0.00    +0.106 C 
ATOM     11  C   UNL     1       2.194   3.953  -2.849  0.00  0.00    +0.004 C 
ATOM     12  C   UNL     1       2.446   5.399  -3.280  0.00  0.00    -0.066 C 
ATOM     13  C   UNL     1       2.071   6.348  -2.139  0.00  0.00    +0.004 C 
ATOM     14  C   UNL     1       2.944   6.047  -0.922  0.00  0.00    +0.106 C 
BRANCH  12  15
ATOM     15  N   UNL     1       1.628   5.707  -4.461  0.00  0.00    +0.382 N 
ATOM     16  C   UNL     1       1.984   4.793  -5.553  0.00  0.00    -0.078 C 
ATOM     17  C   UNL     1       1.079   5.056  -6.759  0.00  0.00    -0.019 C 
ATOM     18  C   UNL     1       1.264   6.503  -7.223  0.00  0.00    -0.004 C 
ATOM     19  C   UNL     1       0.962   7.446  -6.054  0.00  0.00    -0.019 C 
ATOM     20  C   UNL     1       1.871   7.095  -4.875  0.00  0.00    -0.078 C 
ATOM     21  H   UNL     1       0.652   5.592  -4.232  0.00  0.00    -0.081 HD
ENDBRANCH  12  15
ENDBRANCH   5   7
BRANCH   1  22
ATOM     22  S   UNL     1       0.300   0.209   2.799  0.00  0.00    +0.061 S 
ATOM     23  O   UNL     1      -0.796   1.106   2.910  0.00  0.00    -0.153 OA
ATOM     24  O   UNL     1       0.590  -0.767   3.790  0.00  0.00    -0.153 OA
BRANCH  22  31
ATOM     25  C   UNL     1      -0.491   1.516   0.194  0.00  0.00    +0.046 C 
ATOM     26  C   UNL     1      -0.279   0.025   0.139  0.00  0.00    -0.022 A 
ATOM     27  C   UNL     1      -0.443  -0.651  -1.057  0.00  0.00    +0.032 A 
ATOM     28  C   UNL     1      -0.248  -2.021  -1.105  0.00  0.00    +0.076 A 
ATOM     29  C   UNL     1       0.113  -2.715   0.049  0.00  0.00    +0.145 A 
ATOM     30  C   UNL     1       0.277  -2.032   1.241  0.00  0.00    +0.076 A 
ATOM     31  C   UNL     1       0.086  -0.662   1.282  0.00  0.00    +0.112 A 
ATOM     32  O   UNL     1       0.299  -4.061  -0.011  0.00  0.00    -0.478 OA
ATOM     33  C   UNL     1      -0.516  -4.782  -0.937  0.00  0.00    +0.256 C 
ATOM     34  C   UNL     1      -0.524  -4.071  -2.266  0.00  0.00    +0.258 C 
ATOM     35  O   UNL     1      -0.633  -4.704  -3.295  0.00  0.00    -0.271 OA
ATOM     36  N   UNL     1      -0.409  -2.725  -2.307  0.00  0.00    -0.280 N 
ATOM     37  C   UNL     1       0.046  -6.194  -1.119  0.00  0.00    +0.062 C 
ATOM     38  H   UNL     1      -0.437  -2.254  -3.154  0.00  0.00    +0.155 HD
ENDBRANCH  22  31
ENDBRANCH   1  22
TORSDOF 4
