REMARK  Name = ZINC53115039
REMARK  6 active torsions:
REMARK  status: ('A' for Active; 'I' for Inactive)
REMARK    1  A    between atoms: C_1  and  C_2
REMARK    2  A    between atoms: C_7  and  C_9
REMARK    3  A    between atoms: C_7  and  N_11
REMARK    4  A    between atoms: C_9  and  O_10
REMARK    5  A    between atoms: N_11  and  C_12
REMARK    6  A    between atoms: C_15  and  N_21
REMARK                            x       y       z     vdW  Elec       q    Type
REMARK                         _______ _______ _______ _____ _____    ______ ____
ROOT
ATOM      1  N   UNL     1       0.130   1.471   2.406  0.00  0.00    -0.334 N 
ATOM      2  H   UNL     1      -0.756   1.866   2.411  0.00  0.00    +0.147 HD
ENDROOT
BRANCH   1   3
ATOM      3  C   UNL     1       1.245   2.258   2.107  0.00  0.00    +0.059 A 
ATOM      4  C   UNL     1       2.472   1.686   1.978  0.00  0.00    +0.027 A 
ATOM      5  C   UNL     1       3.616   2.428   1.681  0.00  0.00    +0.027 A 
ATOM      6  C   UNL     1       3.585   3.776   1.500  0.00  0.00    +0.056 A 
ATOM      7  C   UNL     1       2.311   4.491   1.617  0.00  0.00    +0.156 A 
ATOM      8  C   UNL     1       1.099   3.705   1.925  0.00  0.00    +0.157 A 
ATOM      9  N   UNL     1       0.081   4.529   1.978  0.00  0.00    -0.047 NA
ATOM     10  O   UNL     1       0.563   5.835   1.710  0.00  0.00    -0.241 OA
ATOM     11  N   UNL     1       1.962   5.749   1.501  0.00  0.00    -0.047 NA
BRANCH   6  12
ATOM     12  N   UNL     1       4.759   4.473   1.204  0.00  0.00    -0.356 N 
ATOM     13  H   UNL     1       5.600   3.996   1.128  0.00  0.00    +0.142 HD
ATOM     14  H   UNL     1       4.733   5.434   1.076  0.00  0.00    +0.142 HD
ENDBRANCH   6  12
ENDBRANCH   1   3
BRANCH   1  20
ATOM     15  C   UNL     1      -0.371   0.962   0.011  0.00  0.00    +0.007 C 
ATOM     16  C   UNL     1      -0.195  -0.523   0.331  0.00  0.00    -0.012 C 
ATOM     17  C   UNL     1      -1.541  -1.117   0.753  0.00  0.00    +0.003 C 
ATOM     18  C   UNL     1      -2.055  -0.385   1.994  0.00  0.00    +0.002 C 
ATOM     19  C   UNL     1      -1.048  -0.545   3.134  0.00  0.00    +0.028 C 
ATOM     20  C   UNL     1       0.298   0.048   2.713  0.00  0.00    +0.055 C 
ATOM     21  C   UNL     1       0.812  -0.684   1.471  0.00  0.00    +0.031 C 
BRANCH  20  22
ATOM     22  C   UNL     1       1.306  -0.112   3.853  0.00  0.00    +0.181 C 
BRANCH  22  23
ATOM     23  O   UNL     1       0.786   0.497   5.037  0.00  0.00    -0.393 OA
ATOM     24  H   UNL     1       1.374   0.434   5.802  0.00  0.00    +0.209 HD
ENDBRANCH  22  23
ENDBRANCH  20  22
ENDBRANCH   1  20
TORSDOF 5
