REMARK  Name = ZINC38003986
REMARK  6 active torsions:
REMARK  status: ('A' for Active; 'I' for Inactive)
REMARK    1  A    between atoms: C_1  and  C_2
REMARK    2  A    between atoms: C_2  and  C_3
REMARK    3  A    between atoms: C_4  and  C_22
REMARK    4  A    between atoms: C_6  and  C_11
REMARK    5  A    between atoms: C_14  and  C_16
REMARK    6  A    between atoms: C_19  and  C_21
REMARK                            x       y       z     vdW  Elec       q    Type
REMARK                         _______ _______ _______ _____ _____    ______ ____
ROOT
ATOM      1  C   UNL     1       0.707  -0.490  -1.238  0.00  0.00    +0.038 A 
ATOM      2  C   UNL     1       2.035  -0.805  -1.201  0.00  0.00    +0.049 A 
ATOM      3  N   UNL     1       2.652  -1.233  -2.299  0.00  0.00    -0.231 NA
ATOM      4  C   UNL     1       2.005  -1.365  -3.444  0.00  0.00    +0.177 A 
ATOM      5  N   UNL     1       0.675  -1.064  -3.540  0.00  0.00    -0.304 N 
ATOM      6  H   UNL     1       0.213  -1.165  -4.387  0.00  0.00    +0.170 HD
ATOM      7  C   UNL     1       0.006  -0.631  -2.450  0.00  0.00    +0.255 A 
ATOM      8  O   UNL     1      -1.182  -0.363  -2.515  0.00  0.00    -0.268 OA
ATOM      9  C   UNL     1       2.805  -0.667   0.087  0.00  0.00    +0.066 C 
ENDROOT
BRANCH   4  10
ATOM     10  C   UNL     1       2.725  -1.840  -4.629  0.00  0.00    +0.170 A 
ATOM     11  C   UNL     1       2.192  -2.018  -5.874  0.00  0.00    +0.053 A 
ATOM     12  C   UNL     1       3.232  -2.482  -6.695  0.00  0.00    +0.046 A 
ATOM     13  C   UNL     1       4.340  -2.566  -5.926  0.00  0.00    +0.109 A 
ATOM     14  O   UNL     1       4.031  -2.172  -4.682  0.00  0.00    -0.456 OA
BRANCH  13  15
ATOM     15  C   UNL     1       5.699  -3.020  -6.391  0.00  0.00    +0.058 C 
ATOM     16  C   UNL     1       6.774  -3.240  -5.324  0.00  0.00    +0.015 C 
ATOM     17  C   UNL     1       6.859  -2.031  -6.258  0.00  0.00    -0.003 C 
ATOM     18  C   UNL     1       7.934  -2.053  -7.346  0.00  0.00    +0.008 C 
ENDBRANCH  13  15
ENDBRANCH   4  10
BRANCH   1  20
ATOM     19  C   UNL     1      -0.019   1.526   0.010  0.00  0.00    +0.009 C 
ATOM     20  C   UNL     1       0.002  -0.004   0.002  0.00  0.00    +0.039 C 
ENDBRANCH   1  20
TORSDOF 3
