REMARK  Name = ZINC11666973
REMARK  11 active torsions:
REMARK  status: ('A' for Active; 'I' for Inactive)
REMARK    1  A    between atoms: C_1  and  O_2
REMARK    2  A    between atoms: O_2  and  C_3
REMARK    3  A    between atoms: C_6  and  O_9
REMARK    4  A    between atoms: O_9  and  C_10
REMARK    5  A    between atoms: C_15  and  O_21
REMARK    6  A    between atoms: O_21  and  C_22
REMARK    7  A    between atoms: C_24  and  O_37
REMARK    8  A    between atoms: C_26  and  O_36
REMARK    9  A    between atoms: C_28  and  O_35
REMARK   10  A    between atoms: C_30  and  C_33
REMARK   11  A    between atoms: C_33  and  O_34
REMARK                            x       y       z     vdW  Elec       q    Type
REMARK                         _______ _______ _______ _____ _____    ______ ____
ROOT
ATOM      1  C   UNL     1       5.987   0.297  -4.122  0.00  0.00    +0.210 A 
ATOM      2  C   UNL     1       6.355   1.167  -3.160  0.00  0.00    +0.245 A 
ATOM      3  O   UNL     1       5.523   1.568  -2.189  0.00  0.00    -0.459 OA
ATOM      4  C   UNL     1       4.251   1.129  -2.101  0.00  0.00    +0.142 A 
ATOM      5  C   UNL     1       3.415   1.564  -1.082  0.00  0.00    +0.092 A 
ATOM      6  C   UNL     1       2.114   1.098  -1.015  0.00  0.00    +0.128 A 
ATOM      7  C   UNL     1       1.636   0.190  -1.959  0.00  0.00    +0.047 A 
ATOM      8  C   UNL     1       2.445  -0.244  -2.970  0.00  0.00    +0.019 A 
ATOM      9  C   UNL     1       3.759   0.217  -3.052  0.00  0.00    +0.068 A 
ATOM     10  C   UNL     1       4.665  -0.230  -4.124  0.00  0.00    +0.234 A 
ATOM     11  O   UNL     1       4.297  -1.019  -4.978  0.00  0.00    -0.283 OA
ENDROOT
BRANCH   1  12
ATOM     12  O   UNL     1       6.875  -0.075  -5.085  0.00  0.00    -0.449 OA
BRANCH  12  16
ATOM     13  C   UNL     1       6.644   1.790  -8.759  0.00  0.00    +0.120 A 
ATOM     14  C   UNL     1       7.528   0.738  -8.570  0.00  0.00    +0.049 A 
ATOM     15  C   UNL     1       7.605   0.114  -7.341  0.00  0.00    +0.050 A 
ATOM     16  C   UNL     1       6.799   0.539  -6.295  0.00  0.00    +0.129 A 
ATOM     17  C   UNL     1       5.911   1.588  -6.486  0.00  0.00    +0.050 A 
ATOM     18  C   UNL     1       5.839   2.216  -7.714  0.00  0.00    +0.049 A 
BRANCH  13  20
ATOM     19  C   UNL     1       5.637   3.482 -10.094  0.00  0.00    +0.277 C 
ATOM     20  O   UNL     1       6.569   2.405  -9.970  0.00  0.00    -0.495 OA
ENDBRANCH  13  20
ENDBRANCH  12  16
ENDBRANCH   1  12
BRANCH   6  21
ATOM     21  O   UNL     1       1.297   1.524  -0.018  0.00  0.00    -0.461 OA
BRANCH  21  22
ATOM     22  C   UNL     1      -0.035   1.005  -0.004  0.00  0.00    +0.339 C 
ATOM     23  C   UNL     1      -0.761   1.497   1.250  0.00  0.00    +0.214 C 
ATOM     24  C   UNL     1      -2.206   0.986   1.228  0.00  0.00    +0.180 C 
ATOM     25  C   UNL     1      -2.884   1.462  -0.061  0.00  0.00    +0.177 C 
ATOM     26  C   UNL     1      -2.075   0.972  -1.265  0.00  0.00    +0.179 C 
ATOM     27  O   UNL     1      -0.734   1.457  -1.166  0.00  0.00    -0.331 OA
BRANCH  25  28
ATOM     28  O   UNL     1      -4.209   0.932  -0.128  0.00  0.00    -0.386 OA
ATOM     29  H   UNL     1      -4.778   1.202   0.606  0.00  0.00    +0.210 HD
ENDBRANCH  25  28
BRANCH  24  30
ATOM     30  O   UNL     1      -2.208  -0.442   1.270  0.00  0.00    -0.386 OA
ATOM     31  H   UNL     1      -1.794  -0.813   2.060  0.00  0.00    +0.210 HD
ENDBRANCH  24  30
BRANCH  23  32
ATOM     32  O   UNL     1      -0.760   2.925   1.274  0.00  0.00    -0.383 OA
ATOM     33  H   UNL     1       0.124   3.318   1.284  0.00  0.00    +0.210 HD
ENDBRANCH  23  32
BRANCH  26  34
ATOM     34  C   UNL     1      -2.712   1.494  -2.554  0.00  0.00    +0.190 C 
BRANCH  34  35
ATOM     35  O   UNL     1      -2.027   0.943  -3.681  0.00  0.00    -0.392 OA
ATOM     36  H   UNL     1      -2.378   1.232  -4.535  0.00  0.00    +0.210 HD
ENDBRANCH  34  35
ENDBRANCH  26  34
ENDBRANCH  21  22
ENDBRANCH   6  21
TORSDOF 10
