REMARK  Name = ZINC03262289
REMARK  9 active torsions:
REMARK  status: ('A' for Active; 'I' for Inactive)
REMARK    1  A    between atoms: C_3  and  C_9
REMARK    2  A    between atoms: C_4  and  O_8
REMARK    3  A    between atoms: C_5  and  O_7
REMARK    4  A    between atoms: N_10  and  N_11
REMARK    5  A    between atoms: N_11  and  C_12
REMARK    6  A    between atoms: C_12  and  N_14
REMARK    7  A    between atoms: N_14  and  C_15
REMARK    8  A    between atoms: C_18  and  S_21
REMARK    9  A    between atoms: S_21  and  N_24
REMARK                            x       y       z     vdW  Elec       q    Type
REMARK                         _______ _______ _______ _____ _____    ______ ____
ROOT
ATOM      1  N   UNL     1       7.187   0.261  -0.066  0.00  0.00    -0.296 N 
ATOM      2  H   UNL     1       6.469  -0.007   0.529  0.00  0.00    +0.154 HD
ENDROOT
BRANCH   1   3
ATOM      3  C   UNL     1       8.361  -0.498  -0.132  0.00  0.00    +0.033 A 
ATOM      4  C   UNL     1       9.598   0.132  -0.109  0.00  0.00    +0.025 A 
ATOM      5  C   UNL     1      10.755  -0.620  -0.174  0.00  0.00    +0.030 A 
ATOM      6  C   UNL     1      10.682  -1.998  -0.262  0.00  0.00    +0.106 A 
ATOM      7  C   UNL     1       9.451  -2.628  -0.284  0.00  0.00    +0.030 A 
ATOM      8  C   UNL     1       8.290  -1.883  -0.214  0.00  0.00    +0.025 A 
BRANCH   6   9
ATOM      9  S   UNL     1      12.160  -2.954  -0.345  0.00  0.00    +0.061 S 
ATOM     10  O   UNL     1      11.815  -4.182  -0.971  0.00  0.00    -0.153 OA
ATOM     11  O   UNL     1      13.170  -2.095  -0.857  0.00  0.00    -0.153 OA
BRANCH   9  12
ATOM     12  N   UNL     1      12.594  -3.321   1.210  0.00  0.00    -0.172 NA
ATOM     13  C   UNL     1      13.474  -2.429   1.982  0.00  0.00    +0.137 C 
ATOM     14  C   UNL     1      12.816  -2.155   3.339  0.00  0.00    +0.177 C 
ATOM     15  O   UNL     1      12.475  -3.399   3.955  0.00  0.00    -0.377 OA
ATOM     16  C   UNL     1      11.519  -4.172   3.225  0.00  0.00    +0.177 C 
ATOM     17  C   UNL     1      12.107  -4.546   1.864  0.00  0.00    +0.137 C 
ENDBRANCH   9  12
ENDBRANCH   6   9
ENDBRANCH   1   3
BRANCH   1  18
ATOM     18  C   UNL     1       7.054   1.364  -0.828  0.00  0.00    +0.154 C 
ATOM     19  S   UNL     1       8.361   1.898  -1.796  0.00  0.00    -0.017 S 
BRANCH  18  20
ATOM     20  N   UNL     1       5.892   2.046  -0.829  0.00  0.00    -0.218 N 
ATOM     21  H   UNL     1       5.796   2.840  -1.378  0.00  0.00    +0.176 HD
BRANCH  20  23
ATOM     22  C   UNL     1       3.703   2.266  -0.038  0.00  0.00    +0.142 C 
ATOM     23  N   UNL     1       4.822   1.609  -0.037  0.00  0.00    -0.188 NA
BRANCH  22  26
ATOM     24  C   UNL     1       0.320   2.077   1.577  0.00  0.00    +0.004 A 
ATOM     25  C   UNL     1       1.371   2.511   0.797  0.00  0.00    +0.013 A 
ATOM     26  C   UNL     1       2.578   1.806   0.795  0.00  0.00    +0.040 A 
ATOM     27  C   UNL     1       2.712   0.660   1.589  0.00  0.00    +0.167 A 
ATOM     28  C   UNL     1       1.645   0.235   2.370  0.00  0.00    +0.159 A 
ATOM     29  C   UNL     1       0.454   0.944   2.361  0.00  0.00    +0.049 A 
BRANCH  28  30
ATOM     30  O   UNL     1       1.768  -0.877   3.143  0.00  0.00    -0.503 OA
ATOM     31  H   UNL     1       2.096  -0.702   4.035  0.00  0.00    +0.292 HD
ENDBRANCH  28  30
BRANCH  27  32
ATOM     32  O   UNL     1       3.881  -0.033   1.594  0.00  0.00    -0.503 OA
ATOM     33  H   UNL     1       4.511   0.264   2.265  0.00  0.00    +0.292 HD
ENDBRANCH  27  32
ENDBRANCH  22  26
ENDBRANCH  20  23
ENDBRANCH  18  20
ENDBRANCH   1  18
TORSDOF 9
