REMARK  Name = ZINC08147950
REMARK  12 active torsions:
REMARK  status: ('A' for Active; 'I' for Inactive)
REMARK    1  A    between atoms: C_1  and  C_2
REMARK    2  A    between atoms: C_2  and  C_3
REMARK    3  A    between atoms: C_3  and  C_20
REMARK    4  A    between atoms: N_6  and  C_10
REMARK    5  A    between atoms: C_10  and  N_54
REMARK    6  A    between atoms: C_11  and  N_54
REMARK    7  A    between atoms: C_12  and  C_13
REMARK    8  A    between atoms: C_12  and  N_54
REMARK    9  A    between atoms: N_15  and  C_16
REMARK   10  A    between atoms: C_16  and  C_17
REMARK   11  A    between atoms: C_16  and  C_18
REMARK   12  A    between atoms: C_16  and  C_19
REMARK                            x       y       z     vdW  Elec       q    Type
REMARK                         _______ _______ _______ _____ _____    ______ ____
ROOT
ATOM      1  C   UNL     1      -1.423   2.820  -2.958  0.00  0.00    +0.138 C 
ATOM      2  C   UNL     1      -0.456   2.741  -1.793  0.00  0.00    +0.249 C 
ATOM      3  O   UNL     1       0.381   3.560  -1.479  0.00  0.00    -0.272 OA
ATOM      4  N   UNL     1      -0.721   1.571  -1.179  0.00  0.00    -0.241 N 
ATOM      5  C   UNL     1      -1.708   0.905  -1.790  0.00  0.00    +0.308 C 
ATOM      6  O   UNL     1      -2.121  -0.177  -1.422  0.00  0.00    -0.252 OA
ATOM      7  N   UNL     1      -2.193   1.569  -2.855  0.00  0.00    -0.281 N 
ATOM      8  H   UNL     1      -2.908   1.278  -3.442  0.00  0.00    +0.152 HD
ENDROOT
BRANCH   1   9
ATOM      9  C   UNL     1      -0.675   2.881  -4.265  0.00  0.00    -0.015 A 
ATOM     10  C   UNL     1      -0.331   4.104  -4.809  0.00  0.00    +0.006 A 
ATOM     11  C   UNL     1       0.360   4.159  -6.005  0.00  0.00    +0.000 A 
ATOM     12  C   UNL     1       0.697   2.991  -6.663  0.00  0.00    +0.000 A 
ATOM     13  C   UNL     1       0.347   1.768  -6.122  0.00  0.00    +0.000 A 
ATOM     14  C   UNL     1      -0.338   1.712  -4.923  0.00  0.00    +0.006 A 
ENDBRANCH   1   9
BRANCH   1  16
ATOM     15  C   UNL     1      -3.130   3.921  -1.503  0.00  0.00    +0.007 C 
ATOM     16  C   UNL     1      -2.345   4.033  -2.811  0.00  0.00    +0.037 C 
ENDBRANCH   1  16
BRANCH   4  17
ATOM     17  C   UNL     1      -0.013   1.086   0.008  0.00  0.00    +0.043 C 
BRANCH  17  19
ATOM     18  C   UNL     1      -1.859   0.712   1.530  0.00  0.00    -0.093 C 
ATOM     19  N   UNL     1      -0.710   1.586   1.212  0.00  0.00    +0.394 N 
ATOM     20  H   UNL     1      -1.054   2.536   1.027  0.00  0.00    -0.079 HD
BRANCH  19  21
ATOM     21  C   UNL     1       0.225   1.629   2.356  0.00  0.00    +0.020 C 
BRANCH  21  22
ATOM     22  C   UNL     1      -0.443   2.343   3.502  0.00  0.00    +0.197 C 
ATOM     23  O   UNL     1      -1.577   2.754   3.382  0.00  0.00    -0.278 OA
ATOM     24  N   UNL     1       0.221   2.525   4.661  0.00  0.00    -0.312 N 
ATOM     25  H   UNL     1       1.129   2.196   4.757  0.00  0.00    +0.149 HD
BRANCH  24  26
ATOM     26  C   UNL     1      -0.428   3.220   5.776  0.00  0.00    +0.026 C 
ATOM     27  C   UNL     1      -1.688   2.457   6.188  0.00  0.00    +0.031 C 
ATOM     28  C   UNL     1       0.536   3.292   6.962  0.00  0.00    +0.031 C 
ATOM     29  C   UNL     1      -0.809   4.637   5.341  0.00  0.00    +0.031 C 
ENDBRANCH  24  26
ENDBRANCH  21  22
ENDBRANCH  19  21
ENDBRANCH  17  19
ENDBRANCH   4  17
TORSDOF 7
