REMARK  Name = ZINC04574734
REMARK  5 active torsions:
REMARK  status: ('A' for Active; 'I' for Inactive)
REMARK    1  A    between atoms: C_1  and  C_2
REMARK    2  A    between atoms: C_3  and  C_18
REMARK    3  A    between atoms: C_4  and  C_10
REMARK    4  A    between atoms: C_15  and  O_16
REMARK    5  A    between atoms: O_16  and  C_17
REMARK                            x       y       z     vdW  Elec       q    Type
REMARK                         _______ _______ _______ _____ _____    ______ ____
ROOT
ATOM      1  C   UNL     1       1.319  -1.987  -0.111  0.00  0.00    +0.061 C 
ATOM      2  C   UNL     1       1.276  -0.481  -0.065  0.00  0.00    +0.017 C 
ATOM      3  C   UNL     1       0.089   0.152  -0.172  0.00  0.00    +0.055 C 
ATOM      4  C   UNL     1       0.090   1.667  -0.120  0.00  0.00    +0.143 C 
ATOM      5  N   UNL     1       1.396   2.327   0.043  0.00  0.00    -0.315 N 
ATOM      6  C   UNL     1       2.498   1.556   0.135  0.00  0.00    +0.135 C 
ATOM      7  S   UNL     1       4.023   2.311   0.325  0.00  0.00    -0.019 S 
ATOM      8  N   UNL     1       2.438   0.220   0.084  0.00  0.00    -0.300 N 
ATOM      9  H   UNL     1       1.455   3.425   0.087  0.00  0.00    +0.149 HD
ATOM     10  H   UNL     1       3.396  -0.315   0.170  0.00  0.00    +0.154 HD
ENDROOT
BRANCH   4  11
ATOM     11  C   UNL     1      -0.531   2.175  -1.396  0.00  0.00    +0.019 A 
ATOM     12  C   UNL     1       0.268   2.479  -2.481  0.00  0.00    +0.009 A 
ATOM     13  C   UNL     1      -0.302   2.945  -3.651  0.00  0.00    +0.001 A 
ATOM     14  C   UNL     1      -1.672   3.108  -3.739  0.00  0.00    +0.004 A 
ATOM     15  C   UNL     1      -2.476   2.806  -2.657  0.00  0.00    +0.046 A 
ATOM     16  C   UNL     1      -1.907   2.333  -1.483  0.00  0.00    +0.125 A 
BRANCH  16  17
ATOM     17  O   UNL     1      -2.695   2.029  -0.418  0.00  0.00    -0.495 OA
ATOM     18  C   UNL     1      -4.103   2.216  -0.580  0.00  0.00    +0.277 C 
ENDBRANCH  16  17
ENDBRANCH   4  11
BRANCH   3  19
ATOM     19  C   UNL     1      -1.118  -0.574  -0.327  0.00  0.00    +0.241 C 
ATOM     20  O   UNL     1      -1.888  -0.683   0.610  0.00  0.00    -0.271 OA
ATOM     21  N   UNL     1      -1.413  -1.145  -1.512  0.00  0.00    -0.326 N 
ATOM     22  H   UNL     1      -2.349  -1.709  -1.633  0.00  0.00    +0.145 HD
ATOM     23  H   UNL     1      -0.717  -1.047  -2.358  0.00  0.00    +0.145 HD
ENDBRANCH   3  19
TORSDOF 3
