REMARK  Name = ZINC28942891
REMARK  3 active torsions:
REMARK  status: ('A' for Active; 'I' for Inactive)
REMARK    1  A    between atoms: C_4  and  N_7
REMARK    2  A    between atoms: C_15  and  S_16
REMARK    3  A    between atoms: S_16  and  C_17
REMARK                            x       y       z     vdW  Elec       q    Type
REMARK                         _______ _______ _______ _____ _____    ______ ____
ROOT
ATOM      1  N   UNL     1       3.623  -0.652  -0.037  0.00  0.00    -0.287 N 
ATOM      2  C   UNL     1       4.104  -1.455  -1.061  0.00  0.00    +0.074 A 
ATOM      3  C   UNL     1       3.609  -1.833  -2.299  0.00  0.00    +0.028 A 
ATOM      4  C   UNL     1       4.350  -2.669  -3.109  0.00  0.00    +0.002 A 
ATOM      5  C   UNL     1       5.589  -3.132  -2.694  0.00  0.00    +0.002 A 
ATOM      6  C   UNL     1       6.097  -2.767  -1.467  0.00  0.00    +0.030 A 
ATOM      7  C   UNL     1       5.359  -1.922  -0.634  0.00  0.00    +0.091 A 
ATOM      8  N   UNL     1       5.584  -1.397   0.599  0.00  0.00    -0.221 NA
ATOM      9  C   UNL     1       4.570  -0.646   0.951  0.00  0.00    +0.175 A 
ENDROOT
BRANCH   1  13
ATOM     10  C   UNL     1      -0.017   1.379   0.010  0.00  0.00    +0.000 A 
ATOM     11  C   UNL     1       1.170   2.089   0.002  0.00  0.00    +0.002 A 
ATOM     12  C   UNL     1       2.377   1.419  -0.013  0.00  0.00    +0.026 A 
ATOM     13  C   UNL     1       2.400   0.031  -0.021  0.00  0.00    +0.049 A 
ATOM     14  C   UNL     1       1.207  -0.680  -0.013  0.00  0.00    +0.026 A 
ATOM     15  C   UNL     1       0.002  -0.004   0.002  0.00  0.00    +0.002 A 
ENDBRANCH   1  13
BRANCH   9  16
ATOM     16  S   UNL     1       4.442   0.236   2.471  0.00  0.00    -0.075 S 
BRANCH  16  17
ATOM     17  C   UNL     1       5.988  -0.154   3.336  0.00  0.00    +0.140 C 
ATOM     18  C   UNL     1       6.064   0.646   4.639  0.00  0.00    +0.024 C 
ATOM     19  C   UNL     1       7.507   0.831   5.072  0.00  0.00    +0.003 C 
ATOM     20  C   UNL     1       8.196  -0.459   5.478  0.00  0.00    +0.019 C 
ATOM     21  C   UNL     1       8.371  -1.385   4.273  0.00  0.00    +0.104 C 
ATOM     22  N   UNL     1       7.149  -2.191   4.117  0.00  0.00    -0.314 N 
ATOM     23  C   UNL     1       6.025  -1.630   3.671  0.00  0.00    +0.226 C 
ATOM     24  O   UNL     1       5.026  -2.305   3.538  0.00  0.00    -0.275 OA
ATOM     25  H   UNL     1       7.163  -3.135   4.336  0.00  0.00    +0.149 HD
ENDBRANCH  16  17
ENDBRANCH   9  16
TORSDOF 3
