REMARK  Name = ZINC00048460
REMARK  6 active torsions:
REMARK  status: ('A' for Active; 'I' for Inactive)
REMARK    1  A    between atoms: C_1  and  C_2
REMARK    2  A    between atoms: C_5  and  C_20
REMARK    3  A    between atoms: N_9  and  N_10
REMARK    4  A    between atoms: C_11  and  C_13
REMARK    5  A    between atoms: C_16  and  O_19
REMARK    6  A    between atoms: C_20  and  C_22
REMARK                            x       y       z     vdW  Elec       q    Type
REMARK                         _______ _______ _______ _____ _____    ______ ____
ROOT
ATOM      1  N   UNL     1      -4.053   5.064  -0.067  0.00  0.00    -0.203 N 
ATOM      2  C   UNL     1      -5.223   5.698  -0.281  0.00  0.00    +0.263 C 
ATOM      3  O   UNL     1      -5.332   6.880  -0.014  0.00  0.00    -0.268 OA
ATOM      4  H   UNL     1      -3.966   4.122  -0.280  0.00  0.00    +0.178 HD
ENDROOT
BRANCH   1  12
ATOM      5  C   UNL     1      -0.695   7.370   1.320  0.00  0.00    +0.045 C 
ATOM      6  C   UNL     1      -0.672   5.867   1.222  0.00  0.00    -0.032 C 
ATOM      7  C   UNL     1       0.394   5.198   1.636  0.00  0.00    -0.021 C 
ATOM      8  C   UNL     1       0.505   3.704   1.566  0.00  0.00    +0.035 C 
ATOM      9  C   UNL     1      -0.874   3.050   1.496  0.00  0.00    +0.024 C 
ATOM     10  C   UNL     1      -1.670   3.683   0.345  0.00  0.00    +0.065 C 
ATOM     11  C   UNL     1      -1.834   5.154   0.668  0.00  0.00    +0.062 C 
ATOM     12  N   UNL     1      -2.962   5.766   0.462  0.00  0.00    -0.184 NA
BRANCH   9  13
ATOM     13  C   UNL     1      -0.718   1.572   1.248  0.00  0.00    -0.076 C 
ATOM     14  C   UNL     1      -1.196   0.709   2.110  0.00  0.00    +0.007 C 
ATOM     15  C   UNL     1      -0.013   1.086   0.008  0.00  0.00    +0.039 C 
ENDBRANCH   9  13
ENDBRANCH   1  12
BRANCH   2  16
ATOM     16  C   UNL     1      -6.372   4.959  -0.838  0.00  0.00    +0.039 A 
ATOM     17  C   UNL     1      -6.247   3.603  -1.150  0.00  0.00    +0.016 A 
ATOM     18  C   UNL     1      -7.324   2.915  -1.664  0.00  0.00    +0.046 A 
ATOM     19  C   UNL     1      -8.530   3.571  -1.884  0.00  0.00    +0.117 A 
ATOM     20  C   UNL     1      -8.656   4.921  -1.580  0.00  0.00    +0.046 A 
ATOM     21  C   UNL     1      -7.586   5.615  -1.060  0.00  0.00    +0.016 A 
BRANCH  19  22
ATOM     22  O   UNL     1      -9.587   2.891  -2.396  0.00  0.00    -0.507 OA
ATOM     23  H   UNL     1      -9.631   2.902  -3.362  0.00  0.00    +0.292 HD
ENDBRANCH  19  22
ENDBRANCH   2  16
TORSDOF 4
