REMARK  Name = ZINC05981412
REMARK  6 active torsions:
REMARK  status: ('A' for Active; 'I' for Inactive)
REMARK    1  A    between atoms: C_1  and  C_2
REMARK    2  A    between atoms: C_2  and  C_4
REMARK    3  A    between atoms: C_2  and  O_10
REMARK    4  A    between atoms: O_10  and  C_11
REMARK    5  A    between atoms: C_11  and  C_13
REMARK    6  A    between atoms: C_17  and  C_23
REMARK                            x       y       z     vdW  Elec       q    Type
REMARK                         _______ _______ _______ _____ _____    ______ ____
ROOT
ATOM      1  C   UNL     1      -3.334  -1.224  -1.248  0.00  0.00    +0.196 C 
ATOM      2  C   UNL     1      -4.308  -0.209  -0.567  0.00  0.00    +0.105 C 
ATOM      3  S   UNL     1      -5.897  -0.795  -1.304  0.00  0.00    -0.128 S 
ATOM      4  C   UNL     1      -5.196  -1.724  -2.727  0.00  0.00    +0.110 C 
ATOM      5  N   UNL     1      -3.754  -1.357  -2.659  0.00  0.00    -0.268 N 
ATOM      6  C   UNL     1      -3.274  -1.218  -3.913  0.00  0.00    +0.218 C 
ATOM      7  O   UNL     1      -2.100  -1.109  -4.195  0.00  0.00    -0.276 OA
ATOM      8  C   UNL     1      -4.406  -1.218  -4.916  0.00  0.00    +0.099 C 
ATOM      9  C   UNL     1      -5.690  -1.111  -4.049  0.00  0.00    +0.051 C 
ENDROOT
BRANCH   4  10
ATOM     10  C   UNL     1      -5.446  -3.208  -2.640  0.00  0.00    -0.014 A 
ATOM     11  C   UNL     1      -4.484  -4.097  -3.081  0.00  0.00    +0.009 A 
ATOM     12  C   UNL     1      -4.711  -5.458  -3.002  0.00  0.00    +0.039 A 
ATOM     13  C   UNL     1      -5.904  -5.930  -2.480  0.00  0.00    +0.123 A 
ATOM     14  C   UNL     1      -6.866  -5.039  -2.038  0.00  0.00    +0.039 A 
ATOM     15  C   UNL     1      -6.634  -3.679  -2.114  0.00  0.00    +0.009 A 
ATOM     16  F   UNL     1      -6.127  -7.260  -2.402  0.00  0.00    -0.205 F 
ENDBRANCH   4  10
BRANCH   1  17
ATOM     17  C   UNL     1      -1.922  -0.703  -1.179  0.00  0.00    +0.329 C 
ATOM     18  O   UNL     1      -1.314  -0.470  -2.197  0.00  0.00    -0.249 OA
BRANCH  17  19
ATOM     19  O   UNL     1      -1.339  -0.499   0.012  0.00  0.00    -0.451 OA
BRANCH  19  21
ATOM     20  C   UNL     1      -0.019   1.526   0.010  0.00  0.00    +0.062 C 
ATOM     21  C   UNL     1       0.002  -0.004   0.002  0.00  0.00    +0.259 C 
BRANCH  21  22
ATOM     22  C   UNL     1       0.731  -0.503   1.223  0.00  0.00    +0.261 C 
ATOM     23  O   UNL     1       0.135  -1.137   2.068  0.00  0.00    -0.271 OA
ATOM     24  N   UNL     1       2.045  -0.246   1.375  0.00  0.00    -0.237 N 
ATOM     25  C   UNL     1       2.697  -0.692   2.467  0.00  0.00    +0.303 C 
ATOM     26  O   UNL     1       2.100  -1.327   3.314  0.00  0.00    -0.253 OA
ATOM     27  N   UNL     1       4.011  -0.435   2.620  0.00  0.00    -0.313 N 
ATOM     28  H   UNL     1       2.522   0.261   0.699  0.00  0.00    +0.159 HD
ATOM     29  H   UNL     1       4.488   0.072   1.944  0.00  0.00    +0.146 HD
ATOM     30  H   UNL     1       4.480  -0.756   3.406  0.00  0.00    +0.146 HD
ENDBRANCH  21  22
ENDBRANCH  19  21
ENDBRANCH  17  19
ENDBRANCH   1  17
TORSDOF 5
