REMARK  Name = ZINC39699311
REMARK  9 active torsions:
REMARK  status: ('A' for Active; 'I' for Inactive)
REMARK    1  A    between atoms: C_1  and  C_2
REMARK    2  A    between atoms: C_5  and  C_36
REMARK    3  A    between atoms: C_10  and  C_14
REMARK    4  A    between atoms: C_14  and  C_16
REMARK    5  A    between atoms: C_14  and  N_26
REMARK    6  A    between atoms: N_21  and  C_22
REMARK    7  A    between atoms: C_22  and  C_23
REMARK    8  A    between atoms: C_22  and  C_24
REMARK    9  A    between atoms: C_22  and  C_25
REMARK                            x       y       z     vdW  Elec       q    Type
REMARK                         _______ _______ _______ _____ _____    ______ ____
ROOT
ATOM      1  C   UNL     1      -1.083  -0.844   5.126  0.00  0.00    +0.114 C 
ENDROOT
BRANCH   1  11
ATOM      2  C   UNL     1       3.568  -1.501   7.206  0.00  0.00    +0.044 C 
ATOM      3  C   UNL     1       3.526  -0.448   6.128  0.00  0.00    -0.042 A 
ATOM      4  C   UNL     1       4.544   0.440   5.989  0.00  0.00    +0.004 A 
ATOM      5  C   UNL     1       4.522   1.421   4.997  0.00  0.00    +0.005 A 
ATOM      6  C   UNL     1       3.494   1.552   4.119  0.00  0.00    -0.029 A 
ATOM      7  C   UNL     1       2.389   0.683   4.177  0.00  0.00    +0.043 A 
ATOM      8  N   UNL     1       1.386   0.821   3.310  0.00  0.00    -0.284 N 
ATOM      9  C   UNL     1       0.320   0.039   3.309  0.00  0.00    +0.226 C 
ATOM     10  O   UNL     1      -0.565   0.213   2.492  0.00  0.00    -0.275 OA
ATOM     11  C   UNL     1       0.203  -1.072   4.329  0.00  0.00    +0.119 C 
ATOM     12  C   UNL     1       1.341  -1.233   5.318  0.00  0.00    -0.003 C 
ATOM     13  C   UNL     1       2.389  -0.367   5.211  0.00  0.00    -0.004 A 
ATOM     14  C   UNL     1       3.537   2.637   3.074  0.00  0.00    +0.045 C 
ATOM     15  H   UNL     1       1.442   1.528   2.648  0.00  0.00    +0.155 HD
ENDBRANCH   1  11
BRANCH   1  16
ATOM     16  N   UNL     1      -1.015   0.459   5.801  0.00  0.00    -0.290 NA
ATOM     17  C   UNL     1      -1.553   1.526   4.943  0.00  0.00    +0.090 C 
ATOM     18  C   UNL     1      -1.799   2.765   5.804  0.00  0.00    +0.051 C 
ATOM     19  C   UNL     1      -0.568   3.082   6.614  0.00  0.00    -0.042 A 
ATOM     20  C   UNL     1      -0.454   4.343   7.178  0.00  0.00    +0.004 A 
ATOM     21  C   UNL     1       0.656   4.673   7.930  0.00  0.00    +0.000 A 
ATOM     22  C   UNL     1       1.658   3.740   8.123  0.00  0.00    +0.000 A 
ATOM     23  C   UNL     1       1.545   2.485   7.562  0.00  0.00    +0.005 A 
ATOM     24  C   UNL     1       0.432   2.152   6.803  0.00  0.00    -0.030 A 
ATOM     25  C   UNL     1       0.360   0.773   6.202  0.00  0.00    +0.120 C 
ENDBRANCH   1  16
BRANCH   1  26
ATOM     26  C   UNL     1      -1.238  -1.952   6.170  0.00  0.00    +0.214 C 
ATOM     27  N   UNL     1      -0.056  -2.009   7.051  0.00  0.00    -0.226 N 
ATOM     28  N   UNL     1       0.501  -3.279   6.862  0.00  0.00    -0.064 NA
ATOM     29  N   UNL     1      -0.126  -3.955   6.051  0.00  0.00    -0.061 NA
ATOM     30  N   UNL     1      -1.239  -3.279   5.527  0.00  0.00    -0.208 N 
ATOM     31  H   UNL     1       0.268  -1.310   7.640  0.00  0.00    +0.172 HD
BRANCH  30  32
ATOM     32  C   UNL     1      -2.203  -3.784   4.545  0.00  0.00    +0.047 C 
ATOM     33  C   UNL     1      -2.068  -2.990   3.244  0.00  0.00    +0.033 C 
ATOM     34  C   UNL     1      -1.925  -5.263   4.272  0.00  0.00    +0.033 C 
ATOM     35  C   UNL     1      -3.622  -3.624   5.095  0.00  0.00    +0.033 C 
ENDBRANCH  30  32
ENDBRANCH   1  26
TORSDOF 4
