REMARK  Name = ZINC65623759
REMARK  7 active torsions:
REMARK  status: ('A' for Active; 'I' for Inactive)
REMARK    1  A    between atoms: C_3  and  C_8
REMARK    2  A    between atoms: N_10  and  C_11
REMARK    3  A    between atoms: C_11  and  C_12
REMARK    4  A    between atoms: N_14  and  N_15
REMARK    5  A    between atoms: N_18  and  C_19
REMARK    6  A    between atoms: C_19  and  C_20
REMARK    7  A    between atoms: C_20  and  C_21
REMARK                            x       y       z     vdW  Elec       q    Type
REMARK                         _______ _______ _______ _____ _____    ______ ____
ROOT
ATOM      1  C   UNL     1       7.249   1.284  -0.061  0.00  0.00    +0.246 C 
ATOM      2  O   UNL     1       7.041   0.089  -0.065  0.00  0.00    -0.273 OA
ATOM      3  N   UNL     1       8.514   1.749  -0.071  0.00  0.00    -0.232 N 
ATOM      4  H   UNL     1       8.680   2.704  -0.068  0.00  0.00    +0.173 HD
ENDROOT
BRANCH   3   5
ATOM      5  N   UNL     1       9.589   0.851  -0.086  0.00  0.00    -0.218 N 
ATOM      6  C   UNL     1      10.854   1.315  -0.096  0.00  0.00    +0.316 C 
ATOM      7  O   UNL     1      11.788   0.536  -0.109  0.00  0.00    -0.251 OA
ATOM      8  N   UNL     1      11.085   2.643  -0.092  0.00  0.00    -0.298 N 
ATOM      9  H   UNL     1       9.423  -0.105  -0.089  0.00  0.00    +0.174 HD
ATOM     10  H   UNL     1      10.340   3.265  -0.081  0.00  0.00    +0.150 HD
BRANCH   8  11
ATOM     11  C   UNL     1      12.460   3.148  -0.103  0.00  0.00    +0.111 C 
BRANCH  11  12
ATOM     12  C   UNL     1      12.442   4.678  -0.095  0.00  0.00    +0.061 C 
BRANCH  12  13
ATOM     13  C   UNL     1      13.857   5.197  -0.106  0.00  0.00    -0.009 A 
ATOM     14  C   UNL     1      14.646   5.502  -1.165  0.00  0.00    +0.011 A 
ATOM     15  C   UNL     1      15.926   5.969  -0.934  0.00  0.00    +0.008 A 
ATOM     16  C   UNL     1      16.355   6.109   0.344  0.00  0.00    +0.045 A 
ATOM     17  S   UNL     1      14.926   5.578   1.273  0.00  0.00    -0.102 S 
ENDBRANCH  12  13
ENDBRANCH  11  12
ENDBRANCH   8  11
ENDBRANCH   3   5
BRANCH   1  18
ATOM     18  C   UNL     1       6.092   2.250  -0.045  0.00  0.00    +0.202 C 
BRANCH  18  21
ATOM     19  C   UNL     1       3.657   2.162  -0.022  0.00  0.00    +0.245 C 
ATOM     20  O   UNL     1       3.642   3.378  -0.015  0.00  0.00    -0.270 OA
ATOM     21  N   UNL     1       4.832   1.502  -0.036  0.00  0.00    -0.303 N 
ATOM     22  H   UNL     1       4.843   0.532  -0.042  0.00  0.00    +0.150 HD
BRANCH  19  25
ATOM     23  C   UNL     1      -0.017   1.379   0.010  0.00  0.00    +0.002 A 
ATOM     24  C   UNL     1       1.167   2.088   0.002  0.00  0.00    +0.013 A 
ATOM     25  C   UNL     1       2.385   1.408  -0.013  0.00  0.00    +0.038 A 
ATOM     26  C   UNL     1       2.398   0.012  -0.021  0.00  0.00    +0.033 A 
ATOM     27  C   UNL     1       1.207  -0.686  -0.013  0.00  0.00    +0.042 A 
ATOM     28  C   UNL     1       0.002  -0.004   0.002  0.00  0.00    +0.020 A 
ATOM     29 CL   UNL     1       1.221  -2.422  -0.023  0.00  0.00    -0.084 Cl
ENDBRANCH  19  25
ENDBRANCH  18  21
ENDBRANCH   1  18
TORSDOF 7
