REMARK  Name = ZINC20710238
REMARK  8 active torsions:
REMARK  status: ('A' for Active; 'I' for Inactive)
REMARK    1  A    between atoms: C_1  and  C_2
REMARK    2  A    between atoms: C_2  and  C_3
REMARK    3  A    between atoms: C_3  and  C_5
REMARK    4  A    between atoms: C_3  and  N_6
REMARK    5  A    between atoms: C_7  and  C_9
REMARK    6  A    between atoms: C_22  and  C_25
REMARK    7  A    between atoms: C_27  and  N_32
REMARK    8  A    between atoms: C_30  and  O_31
REMARK                            x       y       z     vdW  Elec       q    Type
REMARK                         _______ _______ _______ _____ _____    ______ ____
ROOT
ATOM      1  C   UNL     1       2.188  -4.437   1.539  0.00  0.00    +0.037 A 
ATOM      2  C   UNL     1       1.810  -3.269   2.209  0.00  0.00    +0.015 A 
ATOM      3  C   UNL     1       2.195  -3.082   3.516  0.00  0.00    +0.024 A 
ATOM      4  C   UNL     1       2.964  -4.045   4.166  0.00  0.00    +0.031 A 
ATOM      5  C   UNL     1       3.347  -5.208   3.509  0.00  0.00    -0.019 A 
ATOM      6  C   UNL     1       2.957  -5.398   2.195  0.00  0.00    +0.019 A 
ATOM      7  C   UNL     1       4.165  -6.270   4.173  0.00  0.00    +0.049 C 
ATOM      8  C   UNL     1       5.595  -6.250   3.688  0.00  0.00    -0.023 C 
ATOM      9  C   UNL     1       6.412  -6.538   4.672  0.00  0.00    -0.030 C 
ATOM     10  C   UNL     1       5.635  -6.796   5.949  0.00  0.00    +0.033 C 
ATOM     11  C   UNL     1       4.279  -6.074   5.697  0.00  0.00    +0.029 C 
ATOM     12  C   UNL     1       4.485  -4.590   6.016  0.00  0.00    +0.108 C 
ATOM     13  N   UNL     1       3.350  -3.828   5.487  0.00  0.00    -0.336 N 
ATOM     14  H   UNL     1       2.825  -3.106   6.129  0.00  0.00    +0.147 HD
ENDROOT
BRANCH  12  15
ATOM     15  C   UNL     1       5.761  -4.109   5.374  0.00  0.00    +0.017 A 
ATOM     16  C   UNL     1       5.758  -3.698   4.054  0.00  0.00    +0.041 A 
ATOM     17  C   UNL     1       6.926  -3.252   3.466  0.00  0.00    +0.127 A 
ATOM     18  C   UNL     1       8.103  -3.225   4.192  0.00  0.00    +0.036 A 
ATOM     19  C   UNL     1       8.112  -3.640   5.509  0.00  0.00    +0.048 A 
ATOM     20  C   UNL     1       6.939  -4.083   6.104  0.00  0.00    +0.122 A 
BRANCH  17  21
ATOM     21  N   UNL     1       6.919  -2.807   2.054  0.00  0.00    +0.056 N 
ATOM     22  O   UNL     1       7.949  -2.418   1.533  0.00  0.00    -0.126 OA
ATOM     23  O   UNL     1       5.883  -2.829   1.414  0.00  0.00    -0.126 OA
ENDBRANCH  17  21
BRANCH  20  24
ATOM     24  O   UNL     1       6.946  -4.492   7.400  0.00  0.00    -0.506 OA
ATOM     25  H   UNL     1       7.881  -4.472   7.979  0.00  0.00    +0.292 HD
ENDBRANCH  20  24
ENDBRANCH  12  15
BRANCH   1  27
ATOM     26  N   UNL     1       1.034  -3.720  -0.494  0.00  0.00    -0.309 N 
ATOM     27  C   UNL     1       1.778  -4.649   0.138  0.00  0.00    +0.244 C 
ATOM     28  O   UNL     1       2.110  -5.662  -0.446  0.00  0.00    -0.270 OA
ATOM     29  H   UNL     1       0.733  -2.803   0.034  0.00  0.00    +0.149 HD
BRANCH  26  30
ATOM     30  C   UNL     1       0.627  -3.931  -1.886  0.00  0.00    +0.070 C 
ATOM     31  C   UNL     1      -0.654  -4.768  -1.921  0.00  0.00    +0.028 C 
BRANCH  30  33
ATOM     32  C   UNL     1       1.681  -1.791  -2.630  0.00  0.00    +0.005 C 
ATOM     33  C   UNL     1       0.371  -2.578  -2.553  0.00  0.00    +0.018 C 
ENDBRANCH  30  33
ENDBRANCH  26  30
ENDBRANCH   1  27
TORSDOF 6
