REMARK  Name = ZINC67041329
REMARK  5 active torsions:
REMARK  status: ('A' for Active; 'I' for Inactive)
REMARK    1  A    between atoms: C_1  and  C_2
REMARK    2  A    between atoms: C_15  and  C_17
REMARK    3  A    between atoms: C_20  and  C_22
REMARK    4  A    between atoms: C_22  and  N_23
REMARK    5  A    between atoms: C_24  and  C_26
REMARK                            x       y       z     vdW  Elec       q    Type
REMARK                         _______ _______ _______ _____ _____    ______ ____
ROOT
ATOM      1  C   UNL     1       0.010   0.841  -1.229  0.00  0.00    +0.008 C 
ATOM      2  C   UNL     1       0.112  -0.619  -0.781  0.00  0.00    -0.008 C 
ATOM      3  C   UNL     1      -1.279  -1.259  -0.804  0.00  0.00    +0.022 C 
ATOM      4  C   UNL     1      -1.172  -2.729  -0.389  0.00  0.00    +0.108 C 
ATOM      5  N   UNL     1      -0.487  -2.809   0.909  0.00  0.00    -0.294 N 
ATOM      6  C   UNL     1       0.814  -2.146   1.056  0.00  0.00    +0.080 C 
ATOM      7  C   UNL     1       0.672  -0.678   0.646  0.00  0.00    +0.012 C 
ATOM      8  C   UNL     1      -0.308   0.024   1.589  0.00  0.00    +0.005 C 
ATOM      9  C   UNL     1       0.200  -0.072   3.028  0.00  0.00    +0.000 C 
ATOM     10  C   UNL     1       0.308  -1.544   3.429  0.00  0.00    +0.002 C 
ATOM     11  C   UNL     1       1.289  -2.237   2.503  0.00  0.00    +0.023 C 
ATOM     12  C   UNL     1      -1.042  -3.475   1.942  0.00  0.00    +0.253 C 
ATOM     13  O   UNL     1      -0.379  -3.722   2.933  0.00  0.00    -0.269 OA
ENDROOT
BRANCH  12  14
ATOM     14  C   UNL     1      -2.442  -3.901   1.871  0.00  0.00    +0.074 A 
ATOM     15  C   UNL     1      -3.144  -4.740   2.723  0.00  0.00    +0.021 A 
ATOM     16  C   UNL     1      -4.461  -4.958   2.395  0.00  0.00    +0.013 A 
ATOM     17  C   UNL     1      -4.974  -4.356   1.294  0.00  0.00    +0.008 A 
ATOM     18  S   UNL     1      -3.689  -3.471   0.672  0.00  0.00    -0.087 S 
BRANCH  17  19
ATOM     19  C   UNL     1      -6.378  -4.454   0.754  0.00  0.00    +0.146 C 
BRANCH  19  20
ATOM     20  N   UNL     1      -7.203  -3.398   1.346  0.00  0.00    -0.311 N 
ATOM     21  C   UNL     1      -8.503  -3.290   1.008  0.00  0.00    +0.210 C 
ATOM     22  O   UNL     1      -8.990  -4.067   0.215  0.00  0.00    -0.276 OA
ATOM     23  C   UNL     1      -9.352  -2.204   1.617  0.00  0.00    +0.109 C 
ATOM     24  H   UNL     1      -6.813  -2.776   1.980  0.00  0.00    +0.149 HD
ENDBRANCH  19  20
ENDBRANCH  17  19
ENDBRANCH  12  14
TORSDOF 3
