REMARK  Name = ZINC40220805
REMARK  7 active torsions:
REMARK  status: ('A' for Active; 'I' for Inactive)
REMARK    1  A    between atoms: C_1  and  C_2
REMARK    2  A    between atoms: C_2  and  C_3
REMARK    3  A    between atoms: C_3  and  C_4
REMARK    4  A    between atoms: C_4  and  C_6
REMARK    5  A    between atoms: C_4  and  N_8
REMARK    6  A    between atoms: N_11  and  C_12
REMARK    7  A    between atoms: C_15  and  C_19
REMARK                            x       y       z     vdW  Elec       q    Type
REMARK                         _______ _______ _______ _____ _____    ______ ____
ROOT
ATOM      1  N   UNL     1      -0.839  -2.539  -1.257  0.00  0.00    -0.284 N 
ATOM      2  C   UNL     1      -0.250  -3.750  -1.315  0.00  0.00    +0.305 C 
ATOM      3  O   UNL     1      -0.197  -4.448  -0.321  0.00  0.00    -0.252 OA
ATOM      4  N   UNL     1       0.280  -4.187  -2.474  0.00  0.00    -0.269 N 
ATOM      5  H   UNL     1      -0.882  -1.982  -2.050  0.00  0.00    +0.152 HD
ATOM      6  H   UNL     1       0.179  -3.660  -3.283  0.00  0.00    +0.156 HD
ENDROOT
BRANCH   4   7
ATOM      7  C   UNL     1       0.977  -5.400  -2.512  0.00  0.00    +0.036 A 
ATOM      8  C   UNL     1       2.079  -5.544  -3.345  0.00  0.00    +0.024 A 
ATOM      9  C   UNL     1       2.765  -6.742  -3.380  0.00  0.00    +0.006 A 
ATOM     10  C   UNL     1       2.355  -7.799  -2.588  0.00  0.00    -0.032 A 
ATOM     11  C   UNL     1       1.257  -7.659  -1.758  0.00  0.00    +0.046 A 
ATOM     12  C   UNL     1       0.571  -6.460  -1.714  0.00  0.00    +0.043 A 
ATOM     13 CL   UNL     1       0.746  -8.989  -0.765  0.00  0.00    -0.083 Cl
ATOM     14  C   UNL     1       3.106  -9.105  -2.630  0.00  0.00    +0.045 C 
ENDBRANCH   4   7
BRANCH   1  15
ATOM     15  C   UNL     1      -1.416  -2.065   0.003  0.00  0.00    +0.177 C 
BRANCH  15  16
ATOM     16  C   UNL     1      -2.787  -2.582   0.141  0.00  0.00    +0.085 C 
ATOM     17  N   UNL     1      -3.845  -2.982   0.248  0.00  0.00    -0.195 NA
ENDBRANCH  15  16
BRANCH  15  18
ATOM     18  C   UNL     1      -1.446  -0.535   0.006  0.00  0.00    +0.037 C 
BRANCH  18  20
ATOM     19  C   UNL     1      -0.043   1.532  -0.008  0.00  0.00    +0.004 C 
ATOM     20  C   UNL     1      -0.013   0.003  -0.011  0.00  0.00    -0.001 C 
ENDBRANCH  18  20
ENDBRANCH  15  18
ENDBRANCH   1  15
TORSDOF 5
