REMARK  Name = ZINC40156063
REMARK  10 active torsions:
REMARK  status: ('A' for Active; 'I' for Inactive)
REMARK    1  A    between atoms: C_1  and  C_2
REMARK    2  A    between atoms: C_6  and  C_19
REMARK    3  A    between atoms: N_8  and  C_9
REMARK    4  A    between atoms: C_14  and  C_15
REMARK    5  A    between atoms: N_21  and  C_22
REMARK    6  A    between atoms: C_22  and  C_23
REMARK    7  A    between atoms: C_23  and  C_25
REMARK    8  A    between atoms: C_23  and  C_26
REMARK    9  A    between atoms: C_26  and  N_27
REMARK   10  A    between atoms: C_31  and  C_32
REMARK                            x       y       z     vdW  Elec       q    Type
REMARK                         _______ _______ _______ _____ _____    ______ ____
ROOT
ATOM      1  C   UNL     1      -1.073   1.018   0.420  0.00  0.00    +0.066 C 
ATOM      2  C   UNL     1      -0.789  -0.461   0.405  0.00  0.00    +0.044 A 
ATOM      3  C   UNL     1      -0.870  -1.146  -0.761  0.00  0.00    +0.076 A 
ATOM      4  C   UNL     1      -0.594  -2.538  -0.733  0.00  0.00    +0.213 A 
ATOM      5  O   UNL     1      -0.647  -3.218  -1.746  0.00  0.00    -0.285 OA
ATOM      6  C   UNL     1      -0.240  -3.127   0.568  0.00  0.00    +0.192 A 
ATOM      7  N   UNL     1      -0.198  -2.345   1.627  0.00  0.00    -0.158 NA
ATOM      8  N   UNL     1      -0.449  -1.090   1.557  0.00  0.00    -0.236 N 
ENDROOT
BRANCH   8   9
ATOM      9  C   UNL     1      -0.375  -0.331   2.730  0.00  0.00    +0.077 A 
ATOM     10  C   UNL     1       0.792   0.355   3.043  0.00  0.00    +0.028 A 
ATOM     11  C   UNL     1       0.862   1.103   4.202  0.00  0.00    +0.002 A 
ATOM     12  C   UNL     1      -0.228   1.168   5.051  0.00  0.00    +0.001 A 
ATOM     13  C   UNL     1      -1.391   0.486   4.743  0.00  0.00    +0.014 A 
ATOM     14  C   UNL     1      -1.470  -0.258   3.582  0.00  0.00    +0.080 A 
BRANCH  14  15
ATOM     15  C   UNL     1      -2.739  -0.996   3.244  0.00  0.00    +0.419 C 
ATOM     16  F   UNL     1      -3.690  -0.771   4.245  0.00  0.00    -0.166 F 
ATOM     17  F   UNL     1      -3.234  -0.536   2.018  0.00  0.00    -0.166 F 
ATOM     18  F   UNL     1      -2.472  -2.367   3.154  0.00  0.00    -0.166 F 
ENDBRANCH  14  15
ENDBRANCH   8   9
BRANCH   6  19
ATOM     19  C   UNL     1       0.061  -4.567   0.685  0.00  0.00    +0.268 C 
ATOM     20  O   UNL     1       0.018  -5.279  -0.300  0.00  0.00    -0.268 OA
ATOM     21  N   UNL     1       0.383  -5.094   1.883  0.00  0.00    -0.310 N 
ATOM     22  H   UNL     1       0.418  -4.526   2.669  0.00  0.00    +0.149 HD
BRANCH  21  23
ATOM     23  C   UNL     1       0.682  -6.523   1.998  0.00  0.00    +0.109 C 
BRANCH  23  24
ATOM     24  C   UNL     1       1.015  -6.859   3.454  0.00  0.00    +0.023 C 
ATOM     25  C   UNL     1      -0.222  -6.632   4.325  0.00  0.00    +0.011 C 
BRANCH  24  26
ATOM     26  C   UNL     1       1.448  -8.323   3.554  0.00  0.00    +0.127 C 
BRANCH  26  27
ATOM     27  N   UNL     1       1.887  -8.610   4.921  0.00  0.00    -0.336 N 
ATOM     28  C   UNL     1       1.151  -9.225   5.898  0.00  0.00    +0.104 A 
ATOM     29  C   UNL     1       1.933  -9.288   6.993  0.00  0.00    +0.101 A 
ATOM     30  N   UNL     1       3.114  -8.727   6.693  0.00  0.00    -0.350 N 
ATOM     31  C   UNL     1       3.095  -8.323   5.452  0.00  0.00    +0.084 A 
ATOM     32  C   UNL     1       4.232  -7.645   4.732  0.00  0.00    +0.084 C 
ATOM     33  H   UNL     1       3.864  -8.638   7.301  0.00  0.00    +0.166 HD
ENDBRANCH  26  27
ENDBRANCH  24  26
ENDBRANCH  23  24
ENDBRANCH  21  23
ENDBRANCH   6  19
TORSDOF 7
