REMARK  Name = ZINC63552516
REMARK  9 active torsions:
REMARK  status: ('A' for Active; 'I' for Inactive)
REMARK    1  A    between atoms: C_1  and  C_2
REMARK    2  A    between atoms: C_2  and  O_3
REMARK    3  A    between atoms: O_3  and  C_4
REMARK    4  A    between atoms: C_11  and  N_14
REMARK    5  A    between atoms: C_15  and  C_17
REMARK    6  A    between atoms: C_17  and  C_18
REMARK    7  A    between atoms: C_18  and  N_19
REMARK    8  A    between atoms: N_19  and  S_20
REMARK    9  A    between atoms: S_20  and  C_23
REMARK                            x       y       z     vdW  Elec       q    Type
REMARK                         _______ _______ _______ _____ _____    ______ ____
ROOT
ATOM      1  C   UNL     1       0.659  -8.582   5.935  0.00  0.00    +0.112 C 
ENDROOT
BRANCH   1   3
ATOM      2  N   UNL     1       1.031  -7.176   3.934  0.00  0.00    -0.288 N 
ATOM      3  C   UNL     1       1.550  -7.780   5.022  0.00  0.00    +0.216 C 
ATOM      4  O   UNL     1       2.734  -7.678   5.265  0.00  0.00    -0.276 OA
ATOM      5  H   UNL     1       0.084  -7.257   3.740  0.00  0.00    +0.151 HD
BRANCH   2  13
ATOM      6  C   UNL     1       0.802  -1.825   1.306  0.00  0.00    +0.122 A 
ATOM      7  C   UNL     1       0.264  -2.683   0.358  0.00  0.00    +0.047 A 
ATOM      8  C   UNL     1       0.368  -4.048   0.496  0.00  0.00    +0.027 A 
ATOM      9  C   UNL     1       1.022  -4.621   1.601  0.00  0.00    +0.043 A 
ATOM     10  C   UNL     1       1.555  -3.732   2.539  0.00  0.00    +0.035 A 
ATOM     11  C   UNL     1       1.459  -2.366   2.404  0.00  0.00    +0.062 A 
ATOM     12  S   UNL     1       2.300  -4.762   3.784  0.00  0.00    -0.082 S 
ATOM     13  C   UNL     1       1.897  -6.396   3.047  0.00  0.00    +0.224 C 
ATOM     14  N   UNL     1       1.180  -5.990   1.830  0.00  0.00    -0.316 N 
ATOM     15  H   UNL     1       0.829  -6.648   1.210  0.00  0.00    +0.149 HD
BRANCH   6  16
ATOM     16  O   UNL     1       0.693  -0.477   1.160  0.00  0.00    -0.492 OA
BRANCH  16  18
ATOM     17  C   UNL     1      -0.019   1.526   0.010  0.00  0.00    +0.048 C 
ATOM     18  C   UNL     1       0.002  -0.004   0.002  0.00  0.00    +0.225 C 
ENDBRANCH  16  18
ENDBRANCH   6  16
ENDBRANCH   2  13
ENDBRANCH   1   3
BRANCH   1  19
ATOM     19  C   UNL     1       1.492  -9.157   7.083  0.00  0.00    +0.115 C 
BRANCH  19  20
ATOM     20  N   UNL     1       0.626  -9.937   7.971  0.00  0.00    -0.189 NA
ATOM     21  H   UNL     1      -0.338  -9.846   7.911  0.00  0.00    +0.148 HD
BRANCH  20  22
ATOM     22  S   UNL     1       1.292 -10.974   9.077  0.00  0.00    +0.058 S 
ATOM     23  O   UNL     1       0.211 -11.553   9.794  0.00  0.00    -0.153 OA
ATOM     24  O   UNL     1       2.247 -11.757   8.374  0.00  0.00    -0.153 OA
BRANCH  22  25
ATOM     25  C   UNL     1       2.195  -9.995  10.230  0.00  0.00    +0.106 A 
ATOM     26  C   UNL     1       3.532  -9.706   9.991  0.00  0.00    +0.030 A 
ATOM     27  C   UNL     1       4.257  -8.943  10.879  0.00  0.00    +0.028 A 
ATOM     28  C   UNL     1       3.645  -8.454  12.029  0.00  0.00    +0.049 A 
ATOM     29  C   UNL     1       2.289  -8.747  12.268  0.00  0.00    +0.000 A 
ATOM     30  C   UNL     1       1.572  -9.521  11.350  0.00  0.00    +0.038 A 
ATOM     31  C   UNL     1       1.654  -8.228  13.481  0.00  0.00    +0.015 A 
ATOM     32  C   UNL     1       2.398  -7.480  14.333  0.00  0.00    +0.071 A 
ATOM     33  C   UNL     1       3.754  -7.214  14.046  0.00  0.00    +0.249 A 
ATOM     34  O   UNL     1       4.405  -6.540  14.825  0.00  0.00    -0.268 OA
ATOM     35  N   UNL     1       4.346  -7.687  12.935  0.00  0.00    -0.322 N 
ATOM     36  H   UNL     1       5.281  -7.485  12.768  0.00  0.00    +0.169 HD
ENDBRANCH  22  25
ENDBRANCH  20  22
ENDBRANCH  19  20
ENDBRANCH   1  19
TORSDOF 8
