REMARK  Name = ZINC39024772
REMARK  7 active torsions:
REMARK  status: ('A' for Active; 'I' for Inactive)
REMARK    1  A    between atoms: C_1  and  C_2
REMARK    2  A    between atoms: C_4  and  C_13
REMARK    3  A    between atoms: C_5  and  C_12
REMARK    4  A    between atoms: N_7  and  C_8
REMARK    5  A    between atoms: C_8  and  C_9
REMARK    6  A    between atoms: C_9  and  C_11
REMARK    7  A    between atoms: C_16  and  C_18
REMARK                            x       y       z     vdW  Elec       q    Type
REMARK                         _______ _______ _______ _____ _____    ______ ____
ROOT
ATOM      1  C   UNL     1      -0.019   1.526   0.010  0.00  0.00    +0.031 C 
ATOM      2  C   UNL     1       0.002  -0.004   0.002  0.00  0.00    +0.106 C 
ATOM      3  C   UNL     1      -1.408  -0.555   0.061  0.00  0.00    +0.012 C 
ATOM      4  C   UNL     1      -1.480  -1.281   1.210  0.00  0.00    +0.022 C 
ATOM      5  N   UNL     1      -0.306  -1.260   1.880  0.00  0.00    -0.281 N 
ATOM      6  N   UNL     1       0.641  -0.520   1.229  0.00  0.00    -0.218 NA
ATOM      7  C   UNL     1      -2.711  -2.014   1.677  0.00  0.00    +0.062 C 
ATOM      8  H   UNL     1      -0.153  -1.716   2.722  0.00  0.00    +0.166 HD
ENDROOT
BRANCH   3   9
ATOM      9  C   UNL     1      -2.426  -0.358  -0.873  0.00  0.00    +0.076 C 
ATOM     10  N   UNL     1      -2.367   0.342  -1.997  0.00  0.00    -0.153 NA
ATOM     11  N   UNL     1      -3.457   0.349  -2.660  0.00  0.00    -0.146 NA
ATOM     12  C   UNL     1      -4.433  -0.335  -2.108  0.00  0.00    +0.157 C 
ATOM     13  C   UNL     1      -3.844  -0.903  -0.827  0.00  0.00    +0.122 C 
BRANCH  12  14
ATOM     14  C   UNL     1      -5.742  -0.510  -2.599  0.00  0.00    +0.403 C 
ATOM     15  O   UNL     1      -6.102   0.055  -3.751  0.00  0.00    -0.239 OA
ATOM     16  O   UNL     1      -6.620  -1.240  -1.913  0.00  0.00    -0.239 OA
ENDBRANCH  12  14
ENDBRANCH   3   9
BRANCH   6  17
ATOM     17  C   UNL     1       1.820  -1.335   0.906  0.00  0.00    +0.136 C 
BRANCH  17  18
ATOM     18  C   UNL     1       2.514  -1.741   2.180  0.00  0.00    -0.064 C 
ATOM     19  C   UNL     1       2.251  -2.901   2.729  0.00  0.00    +0.008 C 
ATOM     20  C   UNL     1       3.512  -0.812   2.823  0.00  0.00    +0.040 C 
ENDBRANCH  17  18
ENDBRANCH   6  17
TORSDOF 4
