REMARK  Name = ZINC47152500
REMARK  6 active torsions:
REMARK  status: ('A' for Active; 'I' for Inactive)
REMARK    1  A    between atoms: C_1  and  C_2
REMARK    2  A    between atoms: C_5  and  N_8
REMARK    3  A    between atoms: C_9  and  C_11
REMARK    4  A    between atoms: C_11  and  N_12
REMARK    5  A    between atoms: C_16  and  C_17
REMARK    6  A    between atoms: C_22  and  C_23
REMARK                            x       y       z     vdW  Elec       q    Type
REMARK                         _______ _______ _______ _____ _____    ______ ____
ROOT
ATOM      1  N   UNL     1       0.384  -6.558   2.625  0.00  0.00    -0.212 N 
ATOM      2  C   UNL     1       1.538  -6.706   3.307  0.00  0.00    +0.269 C 
ATOM      3  O   UNL     1       2.638  -6.305   2.977  0.00  0.00    -0.268 OA
ATOM      4  C   UNL     1       1.197  -7.449   4.532  0.00  0.00    +0.098 C 
ATOM      5  C   UNL     1       2.037  -7.830   5.524  0.00  0.00    +0.036 C 
ATOM      6  N   UNL     1      -0.183  -7.677   4.450  0.00  0.00    -0.265 N 
ATOM      7  C   UNL     1      -0.623  -7.127   3.305  0.00  0.00    +0.314 C 
ATOM      8  O   UNL     1      -1.781  -7.145   2.934  0.00  0.00    -0.252 OA
ATOM      9  H   UNL     1      -0.724  -8.146   5.104  0.00  0.00    +0.157 HD
ENDROOT
BRANCH   5  10
ATOM     10  C   UNL     1       1.499  -8.439   6.750  0.00  0.00    -0.020 A 
ATOM     11  C   UNL     1       0.233  -8.073   7.220  0.00  0.00    +0.008 A 
ATOM     12  C   UNL     1      -0.264  -8.649   8.369  0.00  0.00    +0.001 A 
ATOM     13  C   UNL     1       0.485  -9.586   9.059  0.00  0.00    +0.000 A 
ATOM     14  C   UNL     1       1.739  -9.953   8.601  0.00  0.00    +0.004 A 
ATOM     15  C   UNL     1       2.248  -9.391   7.449  0.00  0.00    -0.043 A 
ATOM     16  C   UNL     1       3.611  -9.796   6.949  0.00  0.00    +0.044 C 
ENDBRANCH   5  10
BRANCH   1  17
ATOM     17  C   UNL     1       0.248  -5.873   1.336  0.00  0.00    +0.214 C 
BRANCH  17  19
ATOM     18  N   UNL     1      -0.197  -3.580   0.524  0.00  0.00    -0.284 N 
ATOM     19  C   UNL     1      -0.034  -4.412   1.571  0.00  0.00    +0.235 C 
ATOM     20  O   UNL     1      -0.115  -3.984   2.704  0.00  0.00    -0.274 OA
ATOM     21  H   UNL     1      -0.204  -3.934  -0.380  0.00  0.00    +0.155 HD
BRANCH  18  26
ATOM     22  C   UNL     1      -0.843   1.988   1.395  0.00  0.00    +0.044 C 
ATOM     23  C   UNL     1      -0.672   0.509   1.163  0.00  0.00    -0.050 A 
ATOM     24  C   UNL     1       0.208  -0.214   1.948  0.00  0.00    +0.005 A 
ATOM     25  C   UNL     1       0.367  -1.570   1.738  0.00  0.00    +0.023 A 
ATOM     26  C   UNL     1      -0.357  -2.207   0.739  0.00  0.00    +0.033 A 
ATOM     27  C   UNL     1      -1.240  -1.477  -0.047  0.00  0.00    +0.023 A 
ATOM     28  C   UNL     1      -1.398  -0.123   0.171  0.00  0.00    +0.005 A 
ENDBRANCH  18  26
ENDBRANCH  17  19
ENDBRANCH   1  17
TORSDOF 4
