REMARK  Name = ZINC27412835
REMARK  9 active torsions:
REMARK  status: ('A' for Active; 'I' for Inactive)
REMARK    1  A    between atoms: C_1  and  C_2
REMARK    2  A    between atoms: C_2  and  C_3
REMARK    3  A    between atoms: C_2  and  C_4
REMARK    4  A    between atoms: C_2  and  N_23
REMARK    5  A    between atoms: C_4  and  N_5
REMARK    6  A    between atoms: C_6  and  C_8
REMARK    7  A    between atoms: C_8  and  C_9
REMARK    8  A    between atoms: C_9  and  N_10
REMARK    9  A    between atoms: C_11  and  C_13
REMARK                            x       y       z     vdW  Elec       q    Type
REMARK                         _______ _______ _______ _____ _____    ______ ____
ROOT
ATOM      1  C   UNL     1      -7.387   2.179   2.334  0.00  0.00    +0.114 C 
ENDROOT
BRANCH   1   3
ATOM      2  N   UNL     1      -9.501   1.463   3.401  0.00  0.00    -0.317 N 
ATOM      3  C   UNL     1      -8.706   1.450   2.312  0.00  0.00    +0.214 C 
ATOM      4  O   UNL     1      -9.052   0.853   1.315  0.00  0.00    -0.276 OA
ATOM      5  H   UNL     1      -9.187   2.005   4.305  0.00  0.00    +0.149 HD
BRANCH   2   6
ATOM      6  C   UNL     1     -10.783   0.754   3.379  0.00  0.00    +0.092 C 
BRANCH   6   8
ATOM      7  C   UNL     1     -11.892   2.479   4.806  0.00  0.00    -0.008 C 
ATOM      8  C   UNL     1     -11.523   0.999   4.696  0.00  0.00    -0.055 C 
ATOM      9  C   UNL     1     -12.796   0.151   4.730  0.00  0.00    -0.008 C 
BRANCH   8  10
ATOM     10  N   UNL     1     -10.656   0.625   5.822  0.00  0.00    +0.384 N 
ATOM     11  C   UNL     1     -10.223  -0.774   5.711  0.00  0.00    -0.078 C 
ATOM     12  C   UNL     1      -9.210  -1.085   6.815  0.00  0.00    -0.019 C 
ATOM     13  C   UNL     1      -9.858  -0.838   8.180  0.00  0.00    -0.004 C 
ATOM     14  C   UNL     1     -10.343   0.613   8.251  0.00  0.00    -0.019 C 
ATOM     15  C   UNL     1     -11.323   0.875   7.105  0.00  0.00    -0.078 C 
ATOM     16  H   UNL     1      -9.757   1.258   5.783  0.00  0.00    -0.081 HD
ENDBRANCH   8  10
ENDBRANCH   6   8
ENDBRANCH   2   6
ENDBRANCH   1   3
BRANCH   1  17
ATOM     17  C   UNL     1      -6.687   2.008   0.985  0.00  0.00    +0.113 C 
BRANCH  17  18
ATOM     18  N   UNL     1      -5.405   2.717   1.006  0.00  0.00    -0.314 N 
ATOM     19  C   UNL     1      -4.610   2.705  -0.082  0.00  0.00    +0.219 C 
ATOM     20  O   UNL     1      -4.956   2.107  -1.079  0.00  0.00    -0.275 OA
ATOM     21  H   UNL     1      -5.091   3.259   1.910  0.00  0.00    +0.149 HD
BRANCH  19  22
ATOM     22  C   UNL     1      -3.292   3.433  -0.060  0.00  0.00    +0.048 C 
ATOM     23  C   UNL     1      -2.592   3.262  -1.410  0.00  0.00    +0.019 C 
ATOM     24  C   UNL     1      -1.253   4.002  -1.388  0.00  0.00    -0.009 C 
ATOM     25  C   UNL     1      -0.370   3.426  -0.279  0.00  0.00    +0.007 C 
ATOM     26  C   UNL     1      -1.070   3.598   1.071  0.00  0.00    -0.009 C 
ATOM     27  C   UNL     1      -2.409   2.857   1.048  0.00  0.00    +0.019 C 
ATOM     28  C   UNL     1      -1.313   5.085   1.334  0.00  0.00    +0.007 C 
ATOM     29  C   UNL     1      -2.196   5.661   0.225  0.00  0.00    -0.009 C 
ATOM     30  C   UNL     1      -1.496   5.490  -1.125  0.00  0.00    +0.007 C 
ATOM     31  C   UNL     1      -3.535   4.921   0.203  0.00  0.00    +0.019 C 
ENDBRANCH  19  22
ENDBRANCH  17  18
ENDBRANCH   1  17
TORSDOF 7
