REMARK  Name = ZINC09596379
REMARK  10 active torsions:
REMARK  status: ('A' for Active; 'I' for Inactive)
REMARK    1  A    between atoms: C_1  and  C_2
REMARK    2  A    between atoms: C_3  and  N_15
REMARK    3  A    between atoms: N_6  and  C_9
REMARK    4  A    between atoms: N_7  and  C_8
REMARK    5  A    between atoms: C_16  and  C_18
REMARK    6  A    between atoms: C_18  and  C_19
REMARK    7  A    between atoms: C_19  and  C_21
REMARK    8  A    between atoms: C_19  and  N_34
REMARK    9  A    between atoms: C_25  and  O_27
REMARK   10  A    between atoms: O_27  and  C_28
REMARK                            x       y       z     vdW  Elec       q    Type
REMARK                         _______ _______ _______ _____ _____    ______ ____
ROOT
ATOM      1  C   UNL     1      -6.598   3.127  -0.072  0.00  0.00    +0.113 C 
ENDROOT
BRANCH   1   2
ATOM      2  N   UNL     1      -7.273   1.984  -0.694  0.00  0.00    -0.292 N 
ATOM      3  C   UNL     1      -7.073   0.741  -0.214  0.00  0.00    +0.298 C 
ATOM      4  O   UNL     1      -6.395   0.576   0.782  0.00  0.00    -0.253 OA
ATOM      5  N   UNL     1      -7.624  -0.319  -0.837  0.00  0.00    -0.313 N 
ATOM      6  H   UNL     1      -7.863   2.123  -1.451  0.00  0.00    +0.151 HD
ATOM      7  H   UNL     1      -8.165  -0.187  -1.632  0.00  0.00    +0.146 HD
ATOM      8  H   UNL     1      -7.480  -1.214  -0.492  0.00  0.00    +0.146 HD
ENDBRANCH   1   2
BRANCH   1   9
ATOM      9  C   UNL     1      -5.107   2.981  -0.239  0.00  0.00    -0.023 A 
ATOM     10  C   UNL     1      -4.250   3.822   0.447  0.00  0.00    +0.006 A 
ATOM     11  C   UNL     1      -2.882   3.692   0.296  0.00  0.00    +0.004 A 
ATOM     12  C   UNL     1      -2.368   2.716  -0.536  0.00  0.00    +0.046 A 
ATOM     13  C   UNL     1      -3.225   1.874  -1.229  0.00  0.00    +0.129 A 
ATOM     14  C   UNL     1      -4.598   2.007  -1.076  0.00  0.00    +0.051 A 
BRANCH  13  15
ATOM     15  O   UNL     1      -2.722   0.916  -2.051  0.00  0.00    -0.456 OA
BRANCH  15  16
ATOM     16  C   UNL     1      -2.776   1.134  -3.392  0.00  0.00    +0.128 A 
ATOM     17  C   UNL     1      -3.410   2.265  -3.887  0.00  0.00    +0.046 A 
ATOM     18  C   UNL     1      -3.468   2.481  -5.250  0.00  0.00    +0.004 A 
ATOM     19  C   UNL     1      -2.885   1.578  -6.120  0.00  0.00    +0.000 A 
ATOM     20  C   UNL     1      -2.248   0.454  -5.629  0.00  0.00    +0.004 A 
ATOM     21  C   UNL     1      -2.192   0.230  -4.267  0.00  0.00    +0.046 A 
ENDBRANCH  15  16
ENDBRANCH  13  15
ENDBRANCH   1   9
BRANCH   1  22
ATOM     22  C   UNL     1      -6.943   3.174   1.417  0.00  0.00    +0.123 C 
BRANCH  22  24
ATOM     23  N   UNL     1      -8.950   3.528   2.818  0.00  0.00    -0.280 N 
ATOM     24  C   UNL     1      -8.416   3.443   1.584  0.00  0.00    +0.219 C 
ATOM     25  O   UNL     1      -9.121   3.583   0.607  0.00  0.00    -0.275 OA
ATOM     26  H   UNL     1      -8.376   3.490   3.599  0.00  0.00    +0.155 HD
BRANCH  23  29
ATOM     27  C   UNL     1     -10.312   5.847   4.294  0.00  0.00    +0.067 C 
ATOM     28  C   UNL     1     -10.979   4.677   3.617  0.00  0.00    +0.059 A 
ATOM     29  C   UNL     1     -10.343   3.671   2.975  0.00  0.00    +0.121 A 
ATOM     30  C   UNL     1     -11.372   2.757   2.478  0.00  0.00    +0.293 A 
ATOM     31  O   UNL     1     -11.186   1.729   1.852  0.00  0.00    -0.264 OA
ATOM     32  N   UNL     1     -12.564   3.269   2.845  0.00  0.00    -0.216 N 
ATOM     33  N   UNL     1     -12.329   4.458   3.546  0.00  0.00    -0.282 N 
ATOM     34  C   UNL     1     -13.361   5.325   4.119  0.00  0.00    +0.171 C 
BRANCH  32  35
ATOM     35  C   UNL     1     -13.817   2.711   2.574  0.00  0.00    +0.067 A 
ATOM     36  C   UNL     1     -14.875   2.915   3.450  0.00  0.00    +0.028 A 
ATOM     37  C   UNL     1     -16.113   2.366   3.176  0.00  0.00    +0.002 A 
ATOM     38  C   UNL     1     -16.296   1.605   2.036  0.00  0.00    +0.000 A 
ATOM     39  C   UNL     1     -15.244   1.396   1.164  0.00  0.00    +0.002 A 
ATOM     40  C   UNL     1     -14.005   1.946   1.429  0.00  0.00    +0.028 A 
ENDBRANCH  32  35
ENDBRANCH  23  29
ENDBRANCH  22  24
ENDBRANCH   1  22
TORSDOF 8
