REMARK  Name = ZINC50900060
REMARK  12 active torsions:
REMARK  status: ('A' for Active; 'I' for Inactive)
REMARK    1  A    between atoms: C_1  and  C_2
REMARK    2  A    between atoms: C_2  and  C_3
REMARK    3  A    between atoms: C_3  and  N_4
REMARK    4  A    between atoms: C_5  and  C_7
REMARK    5  A    between atoms: N_12  and  C_14
REMARK    6  A    between atoms: C_14  and  C_15
REMARK    7  A    between atoms: C_17  and  C_23
REMARK    8  A    between atoms: C_19  and  O_22
REMARK    9  A    between atoms: C_20  and  O_21
REMARK   10  A    between atoms: C_23  and  C_24
REMARK   11  A    between atoms: C_23  and  C_25
REMARK   12  A    between atoms: C_23  and  C_26
REMARK                            x       y       z     vdW  Elec       q    Type
REMARK                         _______ _______ _______ _____ _____    ______ ____
ROOT
ATOM      1  C   UNL     1       2.796  -6.613   4.686  0.00  0.00    -0.039 C 
ENDROOT
BRANCH   1   6
ATOM      2  C   UNL     1       1.385  -4.154   2.227  0.00  0.00    +0.058 C 
ATOM      3  C   UNL     1       2.103  -4.649   0.968  0.00  0.00    +0.009 C 
ATOM      4  C   UNL     1       2.188  -6.177   1.008  0.00  0.00    -0.018 C 
ATOM      5  C   UNL     1       2.901  -6.610   2.291  0.00  0.00    -0.078 C 
ATOM      6  N   UNL     1       2.151  -6.129   3.458  0.00  0.00    +0.383 N 
ATOM      7  C   UNL     1       2.127  -4.662   3.465  0.00  0.00    -0.066 C 
ATOM      8  H   UNL     1       1.206  -6.480   3.416  0.00  0.00    -0.081 HD
BRANCH   2  10
ATOM      9  N   UNL     1       0.762  -1.976   1.234  0.00  0.00    -0.315 N 
ATOM     10  C   UNL     1       1.364  -2.647   2.235  0.00  0.00    +0.214 C 
ATOM     11  O   UNL     1       1.890  -2.038   3.143  0.00  0.00    -0.276 OA
ATOM     12  H   UNL     1       0.342  -2.462   0.507  0.00  0.00    +0.149 HD
BRANCH   9  13
ATOM     13  C   UNL     1       0.742  -0.511   1.242  0.00  0.00    +0.104 C 
BRANCH  13  15
ATOM     14  C   UNL     1      -0.019   1.526   0.010  0.00  0.00    +0.005 C 
ATOM     15  C   UNL     1       0.002  -0.004   0.002  0.00  0.00    +0.015 C 
ENDBRANCH  13  15
ENDBRANCH   9  13
ENDBRANCH   2  10
ENDBRANCH   1   6
BRANCH   1  16
ATOM     16  C   UNL     1       2.704  -8.116   4.743  0.00  0.00    -0.019 A 
ATOM     17  C   UNL     1       3.821  -8.888   4.483  0.00  0.00    +0.009 A 
ATOM     18  C   UNL     1       3.740 -10.267   4.535  0.00  0.00    -0.038 A 
ATOM     19  C   UNL     1       2.541 -10.880   4.847  0.00  0.00    +0.053 A 
ATOM     20  C   UNL     1       1.417 -10.113   5.108  0.00  0.00    +0.159 A 
ATOM     21  C   UNL     1       1.501  -8.724   5.062  0.00  0.00    +0.160 A 
BRANCH  18  22
ATOM     22  C   UNL     1       4.961 -11.103   4.251  0.00  0.00    -0.013 C 
ATOM     23  C   UNL     1       6.061 -10.758   5.258  0.00  0.00    +0.015 C 
ATOM     24  C   UNL     1       4.604 -12.585   4.374  0.00  0.00    +0.015 C 
ATOM     25  C   UNL     1       5.459 -10.814   2.834  0.00  0.00    +0.015 C 
ENDBRANCH  18  22
BRANCH  21  26
ATOM     26  O   UNL     1       0.402  -7.966   5.323  0.00  0.00    -0.503 OA
ATOM     27  H   UNL     1      -0.133  -7.767   4.542  0.00  0.00    +0.292 HD
ENDBRANCH  21  26
BRANCH  20  28
ATOM     28  O   UNL     1       0.237 -10.715   5.414  0.00  0.00    -0.503 OA
ATOM     29  H   UNL     1       0.108 -10.870   6.360  0.00  0.00    +0.292 HD
ENDBRANCH  20  28
ENDBRANCH   1  16
TORSDOF 8
