REMARK  Name = ZINC08767093
REMARK  6 active torsions:
REMARK  status: ('A' for Active; 'I' for Inactive)
REMARK    1  A    between atoms: C_1  and  C_2
REMARK    2  A    between atoms: C_3  and  C_21
REMARK    3  A    between atoms: C_4  and  C_12
REMARK    4  A    between atoms: C_15  and  C_18
REMARK    5  A    between atoms: C_18  and  C_19
REMARK    6  A    between atoms: C_18  and  C_20
REMARK                            x       y       z     vdW  Elec       q    Type
REMARK                         _______ _______ _______ _____ _____    ______ ____
ROOT
ATOM      1  C   UNL     1      -6.515  -3.375   3.499  0.00  0.00    +0.061 C 
ATOM      2  C   UNL     1      -6.375  -2.455   2.313  0.00  0.00    +0.018 C 
ATOM      3  C   UNL     1      -5.632  -2.852   1.270  0.00  0.00    +0.060 C 
ATOM      4  C   UNL     1      -5.419  -2.005   0.043  0.00  0.00    +0.177 C 
ATOM      5  N   UNL     1      -6.352  -0.882   0.060  0.00  0.00    -0.221 N 
ATOM      6  C   UNL     1      -7.088  -0.533   1.144  0.00  0.00    +0.218 A 
ATOM      7  N   UNL     1      -7.806   0.509   0.826  0.00  0.00    -0.201 NA
ATOM      8  C   UNL     1      -7.562   0.849  -0.444  0.00  0.00    +0.247 A 
ATOM      9  N   UNL     1      -6.679   0.023  -0.949  0.00  0.00    -0.156 NA
ATOM     10  N   UNL     1      -7.014  -1.239   2.337  0.00  0.00    -0.287 N 
ATOM     11  H   UNL     1      -7.397  -0.887   3.156  0.00  0.00    +0.155 HD
ENDROOT
BRANCH   4  12
ATOM     12  C   UNL     1      -4.005  -1.483   0.033  0.00  0.00    -0.018 A 
ATOM     13  C   UNL     1      -3.160  -1.799  -1.014  0.00  0.00    +0.006 A 
ATOM     14  C   UNL     1      -1.863  -1.321  -1.024  0.00  0.00    +0.004 A 
ATOM     15  C   UNL     1      -1.412  -0.526   0.013  0.00  0.00    -0.045 A 
ATOM     16  C   UNL     1      -2.256  -0.214   1.062  0.00  0.00    +0.004 A 
ATOM     17  C   UNL     1      -3.554  -0.688   1.070  0.00  0.00    +0.006 A 
BRANCH  15  18
ATOM     18  C   UNL     1       0.002  -0.004   0.002  0.00  0.00    +0.013 C 
ATOM     19  C   UNL     1      -0.019   1.526   0.010  0.00  0.00    +0.012 C 
ATOM     20  C   UNL     1       0.742  -0.511   1.242  0.00  0.00    +0.012 C 
ENDBRANCH  15  18
ENDBRANCH   4  12
BRANCH   3  21
ATOM     21  C   UNL     1      -5.020  -4.126   1.324  0.00  0.00    +0.241 C 
ATOM     22  O   UNL     1      -5.173  -4.835   2.302  0.00  0.00    -0.271 OA
ATOM     23  N   UNL     1      -4.266  -4.556   0.293  0.00  0.00    -0.325 N 
ATOM     24  H   UNL     1      -4.144  -3.992  -0.487  0.00  0.00    +0.145 HD
ATOM     25  H   UNL     1      -3.846  -5.429   0.330  0.00  0.00    +0.145 HD
ENDBRANCH   3  21
TORSDOF 3
