REMARK  Name = ZINC10000288
REMARK  14 active torsions:
REMARK  status: ('A' for Active; 'I' for Inactive)
REMARK    1  A    between atoms: C_1  and  C_2
REMARK    2  A    between atoms: C_2  and  O_3
REMARK    3  A    between atoms: O_3  and  C_4
REMARK    4  A    between atoms: C_6  and  C_15
REMARK    5  A    between atoms: C_9  and  O_10
REMARK    6  A    between atoms: O_10  and  C_11
REMARK    7  A    between atoms: C_11  and  C_12
REMARK    8  A    between atoms: N_16  and  N_17
REMARK    9  A    between atoms: C_18  and  C_20
REMARK   10  A    between atoms: C_20  and  C_22
REMARK   11  A    between atoms: C_20  and  N_25
REMARK   12  A    between atoms: C_22  and  C_23
REMARK   13  A    between atoms: C_22  and  C_24
REMARK   14  A    between atoms: C_26  and  C_28
REMARK                            x       y       z     vdW  Elec       q    Type
REMARK                         _______ _______ _______ _____ _____    ______ ____
ROOT
ATOM      1  N   UNL     1      -3.715  -4.836  -0.692  0.00  0.00    -0.205 N 
ATOM      2  C   UNL     1      -2.658  -4.001  -0.716  0.00  0.00    +0.253 C 
ATOM      3  O   UNL     1      -1.681  -4.278  -1.379  0.00  0.00    -0.272 OA
ATOM      4  H   UNL     1      -4.524  -4.581  -0.221  0.00  0.00    +0.177 HD
ENDROOT
BRANCH   1   6
ATOM      5  C   UNL     1      -4.665  -6.876  -1.326  0.00  0.00    +0.138 C 
ATOM      6  N   UNL     1      -3.647  -6.072  -1.349  0.00  0.00    -0.188 NA
BRANCH   5   9
ATOM      7  C   UNL     1      -5.616 -10.261  -2.643  0.00  0.00    +0.163 A 
ATOM      8  C   UNL     1      -5.689  -9.043  -1.994  0.00  0.00    +0.059 A 
ATOM      9  C   UNL     1      -4.593  -8.176  -2.017  0.00  0.00    -0.002 A 
ATOM     10  C   UNL     1      -3.432  -8.542  -2.701  0.00  0.00    +0.013 A 
ATOM     11  C   UNL     1      -3.364  -9.761  -3.342  0.00  0.00    +0.050 A 
ATOM     12  C   UNL     1      -4.452 -10.622  -3.319  0.00  0.00    +0.163 A 
BRANCH   7  13
ATOM     13  O   UNL     1      -6.680 -11.107  -2.623  0.00  0.00    -0.489 OA
BRANCH  13  15
ATOM     14  C   UNL     1      -8.925 -11.749  -1.998  0.00  0.00    +0.048 C 
ATOM     15  C   UNL     1      -7.840 -10.673  -1.910  0.00  0.00    +0.226 C 
ENDBRANCH  13  15
ENDBRANCH   7  13
BRANCH  12  16
ATOM     16  O   UNL     1      -4.383 -11.820  -3.958  0.00  0.00    -0.479 OA
BRANCH  16  17
ATOM     17  C   UNL     1      -3.160 -12.126  -4.631  0.00  0.00    +0.324 C 
BRANCH  17  18
ATOM     18  C   UNL     1      -3.268 -13.484  -5.275  0.00  0.00    +0.248 C 
ATOM     19  O   UNL     1      -4.291 -14.126  -5.168  0.00  0.00    -0.272 OA
ATOM     20  N   UNL     1      -2.227 -13.985  -5.970  0.00  0.00    -0.327 N 
ATOM     21  H   UNL     1      -1.409 -13.471  -6.055  0.00  0.00    +0.145 HD
ATOM     22  H   UNL     1      -2.297 -14.859  -6.385  0.00  0.00    +0.145 HD
ENDBRANCH  17  18
ENDBRANCH  16  17
ENDBRANCH  12  16
ENDBRANCH   5   9
ENDBRANCH   1   6
BRANCH   2  23
ATOM     23  C   UNL     1      -2.689  -2.723   0.082  0.00  0.00    +0.163 C 
BRANCH  23  24
ATOM     24  N   UNL     1      -1.813  -1.732  -0.549  0.00  0.00    -0.300 N 
ATOM     25  C   UNL     1      -2.036  -0.416  -0.356  0.00  0.00    +0.246 C 
ATOM     26  O   UNL     1      -2.963  -0.052   0.341  0.00  0.00    -0.270 OA
ATOM     27  H   UNL     1      -1.074  -2.022  -1.105  0.00  0.00    +0.150 HD
BRANCH  25  28
ATOM     28  C   UNL     1      -1.153   0.583  -0.993  0.00  0.00    +0.055 A 
ATOM     29  C   UNL     1      -0.088   0.169  -1.794  0.00  0.00    +0.014 A 
ATOM     30  C   UNL     1       0.732   1.107  -2.385  0.00  0.00    +0.001 A 
ATOM     31  C   UNL     1       0.502   2.457  -2.187  0.00  0.00    +0.001 A 
ATOM     32  C   UNL     1      -0.551   2.876  -1.394  0.00  0.00    +0.021 A 
ATOM     33  C   UNL     1      -1.381   1.947  -0.795  0.00  0.00    +0.053 A 
ATOM     34 CL   UNL     1      -2.707   2.474   0.194  0.00  0.00    -0.083 Cl
ENDBRANCH  25  28
ENDBRANCH  23  24
BRANCH  23  35
ATOM     35  C   UNL     1      -2.203  -2.999   1.506  0.00  0.00    +0.012 C 
ATOM     36  C   UNL     1      -2.282  -1.712   2.330  0.00  0.00    +0.009 C 
ATOM     37  C   UNL     1      -3.088  -4.070   2.148  0.00  0.00    +0.009 C 
ENDBRANCH  23  35
ENDBRANCH   2  23
TORSDOF 11
