REMARK  Name = ZINC06196126
REMARK  14 active torsions:
REMARK  status: ('A' for Active; 'I' for Inactive)
REMARK    1  A    between atoms: C_1  and  C_2
REMARK    2  A    between atoms: C_2  and  O_3
REMARK    3  A    between atoms: O_3  and  C_4
REMARK    4  A    between atoms: C_6  and  C_22
REMARK    5  A    between atoms: C_9  and  O_10
REMARK    6  A    between atoms: O_10  and  C_11
REMARK    7  A    between atoms: C_11  and  C_13
REMARK    8  A    between atoms: C_16  and  N_19
REMARK    9  A    between atoms: C_22  and  C_23
REMARK   10  A    between atoms: C_22  and  C_31
REMARK   11  A    between atoms: C_24  and  C_30
REMARK   12  A    between atoms: C_28  and  O_29
REMARK   13  A    between atoms: C_32  and  C_38
REMARK   14  A    between atoms: C_36  and  O_37
REMARK                            x       y       z     vdW  Elec       q    Type
REMARK                         _______ _______ _______ _____ _____    ______ ____
ROOT
ATOM      1  C   UNL     1      -0.243  -1.505   0.937  0.00  0.00    +0.163 A 
ATOM      2  C   UNL     1      -0.426  -2.554   0.050  0.00  0.00    +0.054 A 
ATOM      3  C   UNL     1      -0.017  -3.829   0.394  0.00  0.00    -0.031 A 
ATOM      4  C   UNL     1       0.574  -4.061   1.623  0.00  0.00    +0.008 A 
ATOM      5  C   UNL     1       0.759  -3.019   2.512  0.00  0.00    +0.050 A 
ATOM      6  C   UNL     1       0.356  -1.737   2.171  0.00  0.00    +0.173 A 
ENDROOT
BRANCH   1   7
ATOM      7  O   UNL     1      -0.644  -0.250   0.599  0.00  0.00    -0.489 OA
BRANCH   7   9
ATOM      8  C   UNL     1      -1.634   1.382  -0.883  0.00  0.00    +0.048 C 
ATOM      9  C   UNL     1      -1.252  -0.086  -0.683  0.00  0.00    +0.226 C 
ENDBRANCH   7   9
ENDBRANCH   1   7
BRANCH   6  10
ATOM     10  O   UNL     1       0.543  -0.710   3.042  0.00  0.00    -0.419 OA
BRANCH  10  11
ATOM     11  C   UNL     1      -0.498  -0.337   3.812  0.00  0.00    +0.345 C 
ATOM     12  O   UNL     1      -1.534  -0.971   3.782  0.00  0.00    -0.245 OA
BRANCH  11  13
ATOM     13  C   UNL     1      -0.380   0.843   4.692  0.00  0.00    +0.060 A 
ATOM     14  C   UNL     1       0.807   1.578   4.725  0.00  0.00    +0.017 A 
ATOM     15  C   UNL     1       0.911   2.679   5.549  0.00  0.00    +0.033 A 
ATOM     16  C   UNL     1      -0.158   3.056   6.343  0.00  0.00    +0.126 A 
ATOM     17  C   UNL     1      -1.337   2.332   6.316  0.00  0.00    +0.033 A 
ATOM     18  C   UNL     1      -1.457   1.233   5.491  0.00  0.00    +0.017 A 
BRANCH  16  19
ATOM     19  N   UNL     1      -0.040   4.239   7.225  0.00  0.00    +0.056 N 
ATOM     20  O   UNL     1       0.989   4.873   7.251  0.00  0.00    -0.126 OA
ATOM     21  O   UNL     1      -0.972   4.571   7.919  0.00  0.00    -0.126 OA
ENDBRANCH  16  19
ENDBRANCH  11  13
ENDBRANCH  10  11
ENDBRANCH   6  10
BRANCH   3  22
ATOM     22  C   UNL     1      -0.217  -4.969  -0.571  0.00  0.00    +0.093 C 
BRANCH  22  23
ATOM     23  C   UNL     1       1.100  -5.318  -1.215  0.00  0.00    +0.048 A 
ATOM     24  C   UNL     1       1.429  -5.147  -2.563  0.00  0.00    +0.068 A 
ATOM     25  N   UNL     1       2.656  -5.563  -2.743  0.00  0.00    -0.176 NA
ATOM     26  N   UNL     1       3.152  -6.015  -1.513  0.00  0.00    -0.247 N 
ATOM     27  H   UNL     1       4.038  -6.378  -1.354  0.00  0.00    +0.192 HD
ATOM     28  C   UNL     1       2.182  -5.851  -0.587  0.00  0.00    +0.213 A 
ATOM     29  C   UNL     1       0.524  -4.581  -3.627  0.00  0.00    +0.068 C 
BRANCH  28  30
ATOM     30  O   UNL     1       2.271  -6.163   0.731  0.00  0.00    -0.492 OA
ATOM     31  H   UNL     1       2.073  -7.089   0.930  0.00  0.00    +0.294 HD
ENDBRANCH  28  30
ENDBRANCH  22  23
BRANCH  22  32
ATOM     32  C   UNL     1      -0.747  -6.169   0.171  0.00  0.00    +0.048 A 
ATOM     33  C   UNL     1      -0.590  -7.462  -0.192  0.00  0.00    +0.041 A 
ATOM     34  N   UNL     1      -1.210  -8.228   0.731  0.00  0.00    -0.278 N 
ATOM     35  N   UNL     1      -1.767  -7.379   1.696  0.00  0.00    -0.136 NA
ATOM     36  H   UNL     1      -1.260  -9.197   0.728  0.00  0.00    +0.189 HD
ATOM     37  C   UNL     1      -1.485  -6.142   1.364  0.00  0.00    +0.236 A 
ATOM     38  C   UNL     1       0.144  -7.960  -1.410  0.00  0.00    +0.065 C 
BRANCH  37  39
ATOM     39  O   UNL     1      -1.848  -5.028   2.054  0.00  0.00    -0.491 OA
ATOM     40  H   UNL     1      -2.735  -4.706   1.843  0.00  0.00    +0.294 HD
ENDBRANCH  37  39
ENDBRANCH  22  32
ENDBRANCH   3  22
TORSDOF 11
