REMARK  Name = ZINC17028537
REMARK  8 active torsions:
REMARK  status: ('A' for Active; 'I' for Inactive)
REMARK    1  A    between atoms: C_1  and  O_2
REMARK    2  A    between atoms: O_2  and  C_3
REMARK    3  A    between atoms: C_6  and  C_9
REMARK    4  A    between atoms: C_9  and  C_10
REMARK    5  A    between atoms: C_10  and  N_11
REMARK    6  A    between atoms: C_14  and  C_21
REMARK    7  A    between atoms: C_27  and  O_33
REMARK    8  A    between atoms: O_33  and  C_34
REMARK                            x       y       z     vdW  Elec       q    Type
REMARK                         _______ _______ _______ _____ _____    ______ ____
ROOT
ATOM      1  N   UNL     1       3.580   3.551  -3.227  0.00  0.00    -0.260 N 
ATOM      2  C   UNL     1       2.568   3.341  -2.362  0.00  0.00    +0.262 A 
ATOM      3  O   UNL     1       1.476   2.984  -2.769  0.00  0.00    -0.267 OA
ATOM      4  C   UNL     1       2.779   3.542  -0.986  0.00  0.00    +0.073 A 
ATOM      5  C   UNL     1       4.011   3.936  -0.555  0.00  0.00    +0.260 A 
ATOM      6  N   UNL     1       5.015   4.133  -1.470  0.00  0.00    -0.275 N 
ATOM      7  H   UNL     1       6.012   4.452  -1.132  0.00  0.00    +0.173 HD
ATOM      8  C   UNL     1       4.789   3.940  -2.782  0.00  0.00    +0.332 A 
ATOM      9  O   UNL     1       5.690   4.120  -3.578  0.00  0.00    -0.246 OA
ATOM     10  O   UNL     1       4.241   4.131   0.760  0.00  0.00    -0.267 OA
ENDROOT
BRANCH   4  11
ATOM     11  C   UNL     1       1.661   3.318  -0.001  0.00  0.00    +0.018 C 
ATOM     12  C   UNL     1       1.269   1.859  -0.000  0.00  0.00    +0.011 A 
ATOM     13  C   UNL     1      -0.018   1.442   0.010  0.00  0.00    -0.022 A 
ATOM     14  C   UNL     1       0.002  -0.004   0.002  0.00  0.00    +0.006 A 
ATOM     15  C   UNL     1      -1.012  -0.968   0.005  0.00  0.00    +0.056 A 
ATOM     16  C   UNL     1      -0.611  -2.296  -0.006  0.00  0.00    +0.121 A 
ATOM     17  C   UNL     1       0.731  -2.657  -0.019  0.00  0.00    +0.047 A 
ATOM     18  C   UNL     1       1.746  -1.717  -0.023  0.00  0.00    +0.030 A 
ATOM     19  C   UNL     1       1.371  -0.376  -0.012  0.00  0.00    +0.047 A 
ATOM     20  N   UNL     1       2.107   0.778  -0.012  0.00  0.00    -0.359 N 
ATOM     21  H   UNL     1       3.196   0.926  -0.019  0.00  0.00    +0.166 HD
ATOM     22  C   UNL     1      -1.197   2.381   0.032  0.00  0.00    +0.018 C 
ATOM     23  C   UNL     1      -0.688   3.774   0.425  0.00  0.00    -0.076 C 
ATOM     24  N   UNL     1       0.487   4.116  -0.390  0.00  0.00    +0.388 N 
ATOM     25  H   UNL     1       0.708   5.185  -0.252  0.00  0.00    -0.084 HD
ATOM     26  H   UNL     1       0.246   3.925  -1.446  0.00  0.00    -0.084 HD
BRANCH  16  27
ATOM     27  O   UNL     1      -1.558  -3.272  -0.003  0.00  0.00    -0.495 OA
ATOM     28  C   UNL     1      -1.096  -4.624  -0.015  0.00  0.00    +0.277 C 
ENDBRANCH  16  27
ENDBRANCH   4  11
BRANCH   1  29
ATOM     29  C   UNL     1       3.364   3.348  -4.662  0.00  0.00    +0.134 C 
BRANCH  29  30
ATOM     30  C   UNL     1       3.683   1.897  -5.025  0.00  0.00    +0.057 C 
BRANCH  30  34
ATOM     31  C   UNL     1       3.052   1.305  -9.210  0.00  0.00    +0.120 A 
ATOM     32  C   UNL     1       4.296   1.706  -8.745  0.00  0.00    +0.046 A 
ATOM     33  C   UNL     1       4.497   1.897  -7.391  0.00  0.00    +0.007 A 
ATOM     34  C   UNL     1       3.461   1.688  -6.501  0.00  0.00    -0.045 A 
ATOM     35  C   UNL     1       2.221   1.283  -6.962  0.00  0.00    +0.007 A 
ATOM     36  C   UNL     1       2.014   1.096  -8.315  0.00  0.00    +0.046 A 
BRANCH  31  38
ATOM     37  C   UNL     1       1.546   0.704 -10.948  0.00  0.00    +0.277 C 
ATOM     38  O   UNL     1       2.852   1.117 -10.541  0.00  0.00    -0.495 OA
ENDBRANCH  31  38
ENDBRANCH  30  34
ENDBRANCH  29  30
ENDBRANCH   1  29
TORSDOF 6
