REMARK  Name = ZINC01380931
REMARK  9 active torsions:
REMARK  status: ('A' for Active; 'I' for Inactive)
REMARK    1  A    between atoms: C_1  and  C_2
REMARK    2  A    between atoms: C_8  and  C_10
REMARK    3  A    between atoms: N_16  and  C_32
REMARK    4  A    between atoms: C_17  and  C_25
REMARK    5  A    between atoms: C_22  and  C_24
REMARK    6  A    between atoms: N_27  and  C_28
REMARK    7  A    between atoms: C_28  and  C_29
REMARK    8  A    between atoms: C_28  and  C_30
REMARK    9  A    between atoms: C_28  and  C_31
REMARK                            x       y       z     vdW  Elec       q    Type
REMARK                         _______ _______ _______ _____ _____    ______ ____
ROOT
ATOM      1  C   UNL     1      -3.646  -4.389  -0.006  0.00  0.00    +0.126 C 
ATOM      2  C   UNL     1      -5.135  -4.008   0.081  0.00  0.00    +0.128 C 
ATOM      3  C   UNL     1      -6.017  -4.672  -0.939  0.00  0.00    +0.228 C 
ATOM      4  O   UNL     1      -5.784  -4.748  -2.126  0.00  0.00    -0.275 OA
ATOM      5  N   UNL     1      -7.117  -5.173  -0.321  0.00  0.00    -0.256 N 
ATOM      6  C   UNL     1      -7.011  -5.018   1.150  0.00  0.00    +0.203 C 
ATOM      7  C   UNL     1      -5.548  -4.764   1.397  0.00  0.00    +0.128 C 
ATOM      8  C   UNL     1      -4.985  -3.998   2.540  0.00  0.00    +0.009 C 
ATOM      9  C   UNL     1      -3.672  -4.252   2.478  0.00  0.00    +0.007 C 
ATOM     10  C   UNL     1      -3.449  -5.216   1.306  0.00  0.00    +0.098 C 
ATOM     11  O   UNL     1      -4.723  -5.958   1.330  0.00  0.00    -0.355 OA
ATOM     12  C   UNL     1      -2.168  -6.050   1.373  0.00  0.00    +0.047 C 
ENDROOT
BRANCH   1  20
ATOM     13  C   UNL     1      -0.018   1.503   0.010  0.00  0.00    +0.089 C 
ATOM     14  C   UNL     1       0.002  -0.004   0.002  0.00  0.00    +0.136 A 
ATOM     15  C   UNL     1      -1.076  -0.808   0.003  0.00  0.00    +0.091 A 
ATOM     16  C   UNL     1      -0.625  -2.147  -0.007  0.00  0.00    +0.168 A 
ATOM     17  N   UNL     1       0.683  -2.130  -0.013  0.00  0.00    -0.063 NA
ATOM     18  O   UNL     1       1.100  -0.776  -0.013  0.00  0.00    -0.358 OA
ATOM     19  N   UNL     1      -1.432  -3.285  -0.010  0.00  0.00    -0.267 N 
ATOM     20  C   UNL     1      -2.774  -3.159  -0.003  0.00  0.00    +0.225 C 
ATOM     21  O   UNL     1      -3.280  -2.057   0.006  0.00  0.00    -0.275 OA
ATOM     22  H   UNL     1      -1.027  -4.166  -0.017  0.00  0.00    +0.156 HD
ENDBRANCH   1  20
BRANCH   5  23
ATOM     23  C   UNL     1      -8.204  -5.755  -0.983  0.00  0.00    +0.040 A 
ATOM     24  C   UNL     1      -9.287  -6.232  -0.255  0.00  0.00    +0.024 A 
ATOM     25  C   UNL     1     -10.358  -6.806  -0.910  0.00  0.00    +0.005 A 
ATOM     26  C   UNL     1     -10.355  -6.907  -2.289  0.00  0.00    +0.038 A 
ATOM     27  C   UNL     1      -9.278  -6.433  -3.018  0.00  0.00    +0.125 A 
ATOM     28  C   UNL     1      -8.204  -5.851  -2.367  0.00  0.00    +0.062 A 
ATOM     29  F   UNL     1      -9.277  -6.533  -4.365  0.00  0.00    -0.205 F 
ENDBRANCH   5  23
BRANCH   6  30
ATOM     30  C   UNL     1      -7.465  -6.275   1.847  0.00  0.00    +0.238 C 
ATOM     31  O   UNL     1      -7.523  -7.321   1.235  0.00  0.00    -0.274 OA
ATOM     32  N   UNL     1      -7.806  -6.237   3.150  0.00  0.00    -0.309 N 
ATOM     33  H   UNL     1      -7.760  -5.401   3.640  0.00  0.00    +0.149 HD
BRANCH  32  34
ATOM     34  C   UNL     1      -8.247  -7.459   3.828  0.00  0.00    +0.026 C 
ATOM     35  C   UNL     1      -7.132  -8.506   3.767  0.00  0.00    +0.031 C 
ATOM     36  C   UNL     1      -8.571  -7.144   5.289  0.00  0.00    +0.031 C 
ATOM     37  C   UNL     1      -9.497  -8.005   3.134  0.00  0.00    +0.031 C 
ENDBRANCH  32  34
ENDBRANCH   6  30
TORSDOF 4
