REMARK  Name = ZINC42706801
REMARK  8 active torsions:
REMARK  status: ('A' for Active; 'I' for Inactive)
REMARK    1  A    between atoms: C_1  and  C_2
REMARK    2  A    between atoms: C_12  and  C_14
REMARK    3  A    between atoms: C_14  and  N_15
REMARK    4  A    between atoms: N_15  and  C_16
REMARK    5  A    between atoms: N_15  and  C_17
REMARK    6  A    between atoms: C_17  and  C_18
REMARK    7  A    between atoms: C_18  and  C_20
REMARK    8  A    between atoms: C_18  and  C_21
REMARK                            x       y       z     vdW  Elec       q    Type
REMARK                         _______ _______ _______ _____ _____    ______ ____
ROOT
ATOM      1  C   UNL     1       0.513   1.776  -0.311  0.00  0.00    +0.029 C 
ATOM      2  C   UNL     1       0.513   0.248  -0.399  0.00  0.00    +0.083 C 
ATOM      3  C   UNL     1      -0.927  -0.282  -0.479  0.00  0.00    +0.059 C 
ATOM      4  C   UNL     1      -1.083  -1.150   0.749  0.00  0.00    -0.024 A 
ATOM      5  C   UNL     1      -2.158  -1.886   1.208  0.00  0.00    +0.005 A 
ATOM      6  C   UNL     1      -2.053  -2.612   2.380  0.00  0.00    +0.000 A 
ATOM      7  C   UNL     1      -0.868  -2.599   3.093  0.00  0.00    +0.002 A 
ATOM      8  C   UNL     1       0.207  -1.866   2.639  0.00  0.00    +0.024 A 
ATOM      9  C   UNL     1       0.109  -1.131   1.456  0.00  0.00    +0.040 A 
ATOM     10  N   UNL     1       1.070  -0.331   0.827  0.00  0.00    -0.270 N 
ATOM     11  C   UNL     1       2.323  -0.123   1.280  0.00  0.00    +0.203 C 
ATOM     12  O   UNL     1       3.082   0.590   0.658  0.00  0.00    -0.277 OA
ENDROOT
BRANCH  11  13
ATOM     13  C   UNL     1       2.780  -0.777   2.558  0.00  0.00    +0.019 C 
BRANCH  13  14
ATOM     14  N   UNL     1       4.171  -0.396   2.833  0.00  0.00    +0.384 N 
ATOM     15  C   UNL     1       4.242   1.049   3.088  0.00  0.00    -0.095 C 
ATOM     16  H   UNL     1       4.746  -0.625   2.036  0.00  0.00    -0.082 HD
BRANCH  14  17
ATOM     17  C   UNL     1       4.655  -1.127   4.012  0.00  0.00    -0.064 C 
BRANCH  17  18
ATOM     18  C   UNL     1       4.721  -2.622   3.694  0.00  0.00    +0.083 C 
ATOM     19  C   UNL     1       5.768  -2.867   2.606  0.00  0.00    +0.017 C 
BRANCH  18  20
ATOM     20  C   UNL     1       5.101  -3.383   4.938  0.00  0.00    +0.357 C 
ATOM     21  O   UNL     1       5.301  -2.785   5.981  0.00  0.00    -0.246 OA
ATOM     22  O   UNL     1       5.209  -4.597   4.900  0.00  0.00    -0.246 OA
ENDBRANCH  18  20
ENDBRANCH  17  18
ENDBRANCH  14  17
ENDBRANCH  13  14
ENDBRANCH  11  13
TORSDOF 5
