REMARK  Name = ZINC16348183
REMARK  9 active torsions:
REMARK  status: ('A' for Active; 'I' for Inactive)
REMARK    1  A    between atoms: C_1  and  C_2
REMARK    2  A    between atoms: C_9  and  C_13
REMARK    3  A    between atoms: C_9  and  C_14
REMARK    4  A    between atoms: C_11  and  C_12
REMARK    5  A    between atoms: C_15  and  C_17
REMARK    6  A    between atoms: C_17  and  S_18
REMARK    7  A    between atoms: S_18  and  C_19
REMARK    8  A    between atoms: C_21  and  C_26
REMARK    9  A    between atoms: C_23  and  O_25
REMARK                            x       y       z     vdW  Elec       q    Type
REMARK                         _______ _______ _______ _____ _____    ______ ____
ROOT
ATOM      1  C   UNL     1       5.423  -0.283   0.790  0.00  0.00    +0.044 C 
ATOM      2  C   UNL     1       5.483   1.154   0.342  0.00  0.00    -0.049 A 
ATOM      3  C   UNL     1       6.681   1.684  -0.106  0.00  0.00    +0.004 A 
ATOM      4  C   UNL     1       6.753   2.999  -0.523  0.00  0.00    +0.010 A 
ATOM      5  C   UNL     1       5.612   3.793  -0.490  0.00  0.00    -0.001 A 
ATOM      6  C   UNL     1       4.399   3.252  -0.027  0.00  0.00    +0.045 A 
ATOM      7  C   UNL     1       4.342   1.935   0.380  0.00  0.00    +0.027 A 
ATOM      8  N   UNL     1       3.273   4.082  -0.008  0.00  0.00    -0.261 N 
ATOM      9  C   UNL     1       3.473   5.521   0.212  0.00  0.00    +0.055 C 
ATOM     10  C   UNL     1       4.636   6.010  -0.609  0.00  0.00    +0.002 C 
ATOM     11  C   UNL     1       5.638   5.202  -0.929  0.00  0.00    -0.043 C 
ATOM     12  C   UNL     1       6.800   5.721  -1.738  0.00  0.00    +0.044 C 
ATOM     13  C   UNL     1       2.208   6.277  -0.198  0.00  0.00    +0.036 C 
ATOM     14  C   UNL     1       3.758   5.773   1.694  0.00  0.00    +0.036 C 
ATOM     15  C   UNL     1       2.037   3.575  -0.182  0.00  0.00    +0.231 C 
ATOM     16  O   UNL     1       1.078   4.316  -0.230  0.00  0.00    -0.274 OA
ENDROOT
BRANCH  15  17
ATOM     17  C   UNL     1       1.846   2.086  -0.318  0.00  0.00    +0.173 C 
BRANCH  17  18
ATOM     18  S   UNL     1       0.213   1.749  -1.022  0.00  0.00    -0.077 S 
BRANCH  18  19
ATOM     19  C   UNL     1       0.257  -0.012  -1.068  0.00  0.00    +0.192 A 
ATOM     20  N   UNL     1      -0.792  -0.673  -1.537  0.00  0.00    -0.227 NA
ATOM     21  C   UNL     1      -0.795  -1.996  -1.587  0.00  0.00    +0.046 A 
ATOM     22  C   UNL     1       0.314  -2.692  -1.143  0.00  0.00    +0.090 A 
ATOM     23  C   UNL     1       1.402  -1.969  -0.655  0.00  0.00    +0.216 A 
ATOM     24  N   UNL     1       1.340  -0.643  -0.638  0.00  0.00    -0.187 NA
ATOM     25  C   UNL     1      -1.994  -2.735  -2.123  0.00  0.00    +0.066 C 
BRANCH  23  26
ATOM     26  O   UNL     1       2.509  -2.610  -0.210  0.00  0.00    -0.492 OA
ATOM     27  H   UNL     1       3.175  -2.767  -0.893  0.00  0.00    +0.294 HD
ENDBRANCH  23  26
ENDBRANCH  18  19
ENDBRANCH  17  18
ENDBRANCH  15  17
TORSDOF 4
