REMARK  Name = ZINC39922766
REMARK  8 active torsions:
REMARK  status: ('A' for Active; 'I' for Inactive)
REMARK    1  A    between atoms: C_1  and  O_2
REMARK    2  A    between atoms: O_2  and  C_3
REMARK    3  A    between atoms: C_12  and  C_13
REMARK    4  A    between atoms: C_16  and  C_18
REMARK    5  A    between atoms: N_20  and  N_21
REMARK    6  A    between atoms: C_22  and  C_23
REMARK    7  A    between atoms: C_26  and  O_30
REMARK    8  A    between atoms: C_28  and  O_29
REMARK                            x       y       z     vdW  Elec       q    Type
REMARK                         _______ _______ _______ _____ _____    ______ ____
ROOT
ATOM      1  C   UNL     1      -0.059  -2.804  -0.013  0.00  0.00    +0.081 C 
ATOM      2  N   UNL     1       0.623  -3.251   1.022  0.00  0.00    -0.153 NA
ATOM      3  N   UNL     1       1.662  -3.921   0.712  0.00  0.00    -0.148 NA
ATOM      4  C   UNL     1       1.862  -4.044  -0.577  0.00  0.00    +0.132 C 
ATOM      5  C   UNL     1       0.707  -3.301  -1.228  0.00  0.00    +0.120 C 
ENDROOT
BRANCH   1  15
ATOM      6  C   UNL     1      -1.197  -0.635   0.010  0.00  0.00    +0.130 A 
ATOM      7  C   UNL     1      -2.374   0.111   0.020  0.00  0.00    +0.047 A 
ATOM      8  C   UNL     1      -3.598  -0.480   0.028  0.00  0.00    +0.012 A 
ATOM      9  C   UNL     1      -3.723  -1.883   0.027  0.00  0.00    -0.017 A 
ATOM     10  C   UNL     1      -4.985  -2.500   0.035  0.00  0.00    +0.008 A 
ATOM     11  C   UNL     1      -5.070  -3.860   0.034  0.00  0.00    +0.001 A 
ATOM     12  C   UNL     1      -3.924  -4.649   0.024  0.00  0.00    +0.001 A 
ATOM     13  C   UNL     1      -2.683  -4.081   0.017  0.00  0.00    +0.009 A 
ATOM     14  C   UNL     1      -2.561  -2.689   0.018  0.00  0.00    -0.005 A 
ATOM     15  C   UNL     1      -1.247  -2.038   0.003  0.00  0.00    +0.048 A 
BRANCH   6  17
ATOM     16  C   UNL     1      -0.017   1.425   0.010  0.00  0.00    +0.277 C 
ATOM     17  O   UNL     1       0.002  -0.004   0.002  0.00  0.00    -0.494 OA
ENDBRANCH   6  17
ENDBRANCH   1  15
BRANCH   4  18
ATOM     18  C   UNL     1       2.957  -4.747  -1.244  0.00  0.00    +0.280 C 
ATOM     19  O   UNL     1       3.010  -4.776  -2.461  0.00  0.00    -0.267 OA
ATOM     20  N   UNL     1       3.906  -5.365  -0.514  0.00  0.00    -0.202 N 
ATOM     21  H   UNL     1       3.863  -5.343   0.455  0.00  0.00    +0.178 HD
BRANCH  20  22
ATOM     22  N   UNL     1       4.954  -6.040  -1.153  0.00  0.00    -0.187 NA
ATOM     23  C   UNL     1       5.869  -6.635  -0.449  0.00  0.00    +0.142 C 
BRANCH  23  24
ATOM     24  C   UNL     1       6.971  -7.344  -1.121  0.00  0.00    +0.036 A 
ATOM     25  C   UNL     1       7.953  -7.990  -0.366  0.00  0.00    +0.016 A 
ATOM     26  C   UNL     1       8.983  -8.652  -0.999  0.00  0.00    +0.046 A 
ATOM     27  C   UNL     1       9.048  -8.679  -2.387  0.00  0.00    +0.120 A 
ATOM     28  C   UNL     1       8.078  -8.040  -3.146  0.00  0.00    +0.091 A 
ATOM     29  C   UNL     1       7.036  -7.378  -2.522  0.00  0.00    +0.129 A 
BRANCH  29  30
ATOM     30  O   UNL     1       6.082  -6.758  -3.263  0.00  0.00    -0.506 OA
ATOM     31  H   UNL     1       6.285  -5.836  -3.474  0.00  0.00    +0.292 HD
ENDBRANCH  29  30
BRANCH  27  32
ATOM     32  O   UNL     1      10.066  -9.334  -3.003  0.00  0.00    -0.507 OA
ATOM     33  H   UNL     1       9.880 -10.264  -3.190  0.00  0.00    +0.292 HD
ENDBRANCH  27  32
ENDBRANCH  23  24
ENDBRANCH  20  22
ENDBRANCH   4  18
TORSDOF 7
