REMARK  Name = ZINC57125058
REMARK  6 active torsions:
REMARK  status: ('A' for Active; 'I' for Inactive)
REMARK    1  A    between atoms: C_1  and  C_2
REMARK    2  A    between atoms: C_5  and  C_8
REMARK    3  A    between atoms: C_9  and  S_10
REMARK    4  A    between atoms: S_10  and  N_13
REMARK    5  A    between atoms: N_13  and  N_14
REMARK    6  A    between atoms: N_17  and  C_18
REMARK                            x       y       z     vdW  Elec       q    Type
REMARK                         _______ _______ _______ _____ _____    ______ ____
ROOT
ATOM      1  N   UNL     1      -1.113  -4.617   3.531  0.00  0.00    -0.107 NA
ATOM      2  H   UNL     1      -1.814  -4.008   3.812  0.00  0.00    +0.172 HD
ENDROOT
BRANCH   1   3
ATOM      3  N   UNL     1      -1.185  -5.974   3.871  0.00  0.00    -0.216 N 
ATOM      4  C   UNL     1      -1.323  -6.339   5.161  0.00  0.00    +0.315 C 
ATOM      5  O   UNL     1      -1.386  -7.517   5.456  0.00  0.00    -0.251 OA
ATOM      6  N   UNL     1      -1.390  -5.399   6.125  0.00  0.00    -0.294 N 
ATOM      7  H   UNL     1      -1.137  -6.651   3.178  0.00  0.00    +0.172 HD
ATOM      8  H   UNL     1      -1.340  -4.459   5.889  0.00  0.00    +0.151 HD
BRANCH   6   9
ATOM      9  C   UNL     1      -1.540  -5.796   7.527  0.00  0.00    +0.097 C 
ATOM     10  C   UNL     1      -3.030  -5.983   7.857  0.00  0.00    +0.046 C 
ATOM     11  C   UNL     1      -3.221  -6.085   9.390  0.00  0.00    +0.168 C 
ATOM     12  S   UNL     1      -1.807  -5.106  10.040  0.00  0.00    -0.029 S 
ATOM     13  O   UNL     1      -0.958  -5.962  10.791  0.00  0.00    -0.174 OA
ATOM     14  O   UNL     1      -2.304  -3.915  10.636  0.00  0.00    -0.174 OA
ATOM     15  C   UNL     1      -0.975  -4.680   8.452  0.00  0.00    +0.188 C 
ENDBRANCH   6   9
ENDBRANCH   1   3
BRANCH   1  16
ATOM     16  S   UNL     1       0.171  -4.051   2.652  0.00  0.00    +0.067 S 
ATOM     17  O   UNL     1       1.346  -4.449   3.346  0.00  0.00    -0.152 OA
ATOM     18  O   UNL     1      -0.111  -2.692   2.349  0.00  0.00    -0.152 OA
BRANCH  16  20
ATOM     19  C   UNL     1       0.017  -4.255  -0.019  0.00  0.00    +0.028 C 
ATOM     20  C   UNL     1       0.174  -4.918   1.118  0.00  0.00    +0.155 C 
BRANCH  19  25
ATOM     21  C   UNL     1       0.794   1.444  -0.156  0.00  0.00    +0.044 C 
ATOM     22  C   UNL     1       0.590  -0.048  -0.120  0.00  0.00    -0.050 A 
ATOM     23  C   UNL     1      -0.490  -0.612  -0.775  0.00  0.00    +0.004 A 
ATOM     24  C   UNL     1      -0.682  -1.978  -0.746  0.00  0.00    +0.008 A 
ATOM     25  C   UNL     1       0.217  -2.791  -0.054  0.00  0.00    -0.024 A 
ATOM     26  C   UNL     1       1.304  -2.216   0.604  0.00  0.00    +0.008 A 
ATOM     27  C   UNL     1       1.488  -0.850   0.563  0.00  0.00    +0.004 A 
ENDBRANCH  19  25
ENDBRANCH  16  20
ENDBRANCH   1  16
TORSDOF 5
