REMARK  Name = ZINC51993919
REMARK  7 active torsions:
REMARK  status: ('A' for Active; 'I' for Inactive)
REMARK    1  A    between atoms: C_1  and  C_2
REMARK    2  A    between atoms: C_5  and  N_22
REMARK    3  A    between atoms: C_6  and  S_9
REMARK    4  A    between atoms: C_7  and  C_8
REMARK    5  A    between atoms: S_9  and  N_12
REMARK    6  A    between atoms: N_12  and  C_13
REMARK    7  A    between atoms: C_19  and  O_21
REMARK                            x       y       z     vdW  Elec       q    Type
REMARK                         _______ _______ _______ _____ _____    ______ ____
ROOT
ATOM      1  S   UNL     1      -0.629  -3.058   2.580  0.00  0.00    +0.061 S 
ATOM      2  O   UNL     1      -1.519  -2.271   3.360  0.00  0.00    -0.153 OA
ATOM      3  O   UNL     1      -0.957  -4.370   2.143  0.00  0.00    -0.153 OA
ENDROOT
BRANCH   1   9
ATOM      4  C   UNL     1      -0.370   1.476  -0.004  0.00  0.00    +0.044 C 
ATOM      5  C   UNL     1      -0.166  -0.017  -0.005  0.00  0.00    -0.046 A 
ATOM      6  C   UNL     1       0.306  -0.648  -1.141  0.00  0.00    +0.005 A 
ATOM      7  C   UNL     1       0.494  -2.016  -1.146  0.00  0.00    +0.025 A 
ATOM      8  C   UNL     1       0.208  -2.758  -0.007  0.00  0.00    +0.052 A 
ATOM      9  C   UNL     1      -0.265  -2.121   1.133  0.00  0.00    +0.129 A 
ATOM     10  C   UNL     1      -0.446  -0.752   1.132  0.00  0.00    -0.019 A 
ATOM     11  C   UNL     1      -0.954  -0.059   2.370  0.00  0.00    +0.046 C 
BRANCH   8  12
ATOM     12  N   UNL     1       0.397  -4.142  -0.008  0.00  0.00    -0.356 N 
ATOM     13  H   UNL     1       0.445  -4.625  -0.848  0.00  0.00    +0.142 HD
ATOM     14  H   UNL     1       0.480  -4.621   0.832  0.00  0.00    +0.142 HD
ENDBRANCH   8  12
ENDBRANCH   1   9
BRANCH   1  15
ATOM     15  N   UNL     1       0.775  -3.185   3.448  0.00  0.00    -0.184 NA
ATOM     16  H   UNL     1       1.189  -4.053   3.578  0.00  0.00    +0.148 HD
BRANCH  15  17
ATOM     17  C   UNL     1       1.394  -1.986   4.020  0.00  0.00    +0.105 C 
ATOM     18  C   UNL     1       0.941  -1.822   5.472  0.00  0.00    +0.023 C 
ATOM     19  C   UNL     1       1.587  -0.570   6.069  0.00  0.00    +0.002 C 
ATOM     20  C   UNL     1       3.109  -0.710   6.022  0.00  0.00    +0.003 C 
ATOM     21  C   UNL     1       3.562  -0.875   4.570  0.00  0.00    +0.033 C 
ATOM     22  C   UNL     1       2.917  -2.126   3.973  0.00  0.00    +0.133 C 
BRANCH  22  23
ATOM     23  O   UNL     1       3.312  -3.273   4.729  0.00  0.00    -0.390 OA
ATOM     24  H   UNL     1       4.268  -3.424   4.743  0.00  0.00    +0.210 HD
ENDBRANCH  22  23
ENDBRANCH  15  17
ENDBRANCH   1  15
TORSDOF 5
