REMARK  Name = ZINC39529908
REMARK  8 active torsions:
REMARK  status: ('A' for Active; 'I' for Inactive)
REMARK    1  A    between atoms: C_1  and  C_2
REMARK    2  A    between atoms: C_2  and  O_3
REMARK    3  A    between atoms: O_3  and  C_4
REMARK    4  A    between atoms: N_7  and  C_11
REMARK    5  A    between atoms: C_14  and  C_24
REMARK    6  A    between atoms: C_16  and  C_17
REMARK    7  A    between atoms: C_22  and  O_23
REMARK    8  A    between atoms: C_29  and  O_30
REMARK                            x       y       z     vdW  Elec       q    Type
REMARK                         _______ _______ _______ _____ _____    ______ ____
ROOT
ATOM      1  C   UNL     1       0.886  -4.464  -3.748  0.00  0.00    +0.038 A 
ATOM      2  C   UNL     1       1.559  -4.610  -4.953  0.00  0.00    +0.024 A 
ATOM      3  C   UNL     1       1.040  -5.417  -5.944  0.00  0.00    +0.010 A 
ATOM      4  C   UNL     1      -0.165  -6.091  -5.741  0.00  0.00    -0.014 A 
ATOM      5  C   UNL     1      -0.846  -5.952  -4.535  0.00  0.00    +0.019 A 
ATOM      6  C   UNL     1      -0.321  -5.143  -3.533  0.00  0.00    +0.007 A 
ENDROOT
BRANCH   1   9
ATOM      7  C   UNL     1       3.521  -3.437  -1.541  0.00  0.00    +0.203 C 
ATOM      8  C   UNL     1       2.206  -4.216  -1.648  0.00  0.00    +0.152 C 
ATOM      9  N   UNL     1       1.414  -3.647  -2.748  0.00  0.00    -0.324 N 
ATOM     10  C   UNL     1       1.193  -2.193  -2.768  0.00  0.00    +0.120 C 
ATOM     11  C   UNL     1       2.548  -1.493  -2.616  0.00  0.00    +0.102 C 
ATOM     12  N   UNL     1       3.228  -2.002  -1.418  0.00  0.00    -0.289 NA
ATOM     13  H   UNL     1       2.687  -1.813  -0.588  0.00  0.00    +0.124 HD
BRANCH   7  14
ATOM     14  O   UNL     1       4.243  -3.876  -0.389  0.00  0.00    -0.361 OA
BRANCH  14  16
ATOM     15  C   UNL     1       6.255  -3.910   0.950  0.00  0.00    +0.034 C 
ATOM     16  C   UNL     1       5.581  -3.378  -0.317  0.00  0.00    +0.158 C 
ENDBRANCH  14  16
ENDBRANCH   7  14
ENDBRANCH   1   9
BRANCH   6  17
ATOM     17  C   UNL     1      -1.039  -4.994  -2.244  0.00  0.00    +0.025 A 
ATOM     18  C   UNL     1      -1.138  -6.074  -1.370  0.00  0.00    +0.012 A 
ATOM     19  C   UNL     1      -1.807  -5.930  -0.172  0.00  0.00    +0.001 A 
ATOM     20  C   UNL     1      -2.380  -4.717   0.165  0.00  0.00    +0.004 A 
ATOM     21  C   UNL     1      -2.288  -3.639  -0.695  0.00  0.00    +0.046 A 
ATOM     22  C   UNL     1      -1.614  -3.767  -1.899  0.00  0.00    +0.125 A 
BRANCH  22  23
ATOM     23  O   UNL     1      -1.518  -2.707  -2.743  0.00  0.00    -0.506 OA
ATOM     24  H   UNL     1      -2.243  -2.643  -3.378  0.00  0.00    +0.292 HD
ENDBRANCH  22  23
ENDBRANCH   6  17
BRANCH   4  25
ATOM     25  C   UNL     1      -0.719  -6.957  -6.810  0.00  0.00    +0.024 A 
ATOM     26  C   UNL     1      -1.129  -8.256  -6.516  0.00  0.00    +0.012 A 
ATOM     27  C   UNL     1      -1.644  -9.057  -7.514  0.00  0.00    +0.001 A 
ATOM     28  C   UNL     1      -1.755  -8.576  -8.807  0.00  0.00    +0.004 A 
ATOM     29  C   UNL     1      -1.351  -7.289  -9.109  0.00  0.00    +0.046 A 
ATOM     30  C   UNL     1      -0.839  -6.471  -8.115  0.00  0.00    +0.125 A 
BRANCH  30  31
ATOM     31  O   UNL     1      -0.447  -5.204  -8.410  0.00  0.00    -0.506 OA
ATOM     32  H   UNL     1       0.479  -5.131  -8.678  0.00  0.00    +0.292 HD
ENDBRANCH  30  31
ENDBRANCH   4  25
TORSDOF 7
