REMARK  Name = ZINC36570395
REMARK  15 active torsions:
REMARK  status: ('A' for Active; 'I' for Inactive)
REMARK    1  A    between atoms: C_1  and  C_2
REMARK    2  A    between atoms: C_2  and  C_3
REMARK    3  A    between atoms: C_3  and  N_4
REMARK    4  A    between atoms: N_4  and  C_5
REMARK    5  A    between atoms: C_5  and  C_7
REMARK    6  A    between atoms: C_5  and  C_16
REMARK    7  A    between atoms: C_8  and  O_15
REMARK    8  A    between atoms: C_10  and  O_14
REMARK    9  A    between atoms: C_12  and  O_13
REMARK   10  A    between atoms: N_18  and  C_19
REMARK   11  A    between atoms: C_19  and  C_20
REMARK   12  A    between atoms: C_19  and  C_21
REMARK   13  A    between atoms: C_19  and  C_22
REMARK   14  A    between atoms: C_23  and  C_25
REMARK   15  A    between atoms: C_26  and  C_27
REMARK                            x       y       z     vdW  Elec       q    Type
REMARK                         _______ _______ _______ _____ _____    ______ ____
ROOT
ATOM      1  C   UNL     1       1.856  -2.667   0.813  0.00  0.00    +0.200 C 
ENDROOT
BRANCH   1   2
ATOM      2  C   UNL     1       3.098  -2.585   1.662  0.00  0.00    +0.065 A 
ATOM      3  C   UNL     1       3.721  -3.746   2.094  0.00  0.00    +0.129 A 
ATOM      4  C   UNL     1       4.864  -3.671   2.875  0.00  0.00    +0.091 A 
ATOM      5  C   UNL     1       5.385  -2.434   3.225  0.00  0.00    +0.124 A 
ATOM      6  C   UNL     1       4.762  -1.272   2.793  0.00  0.00    +0.091 A 
ATOM      7  C   UNL     1       3.622  -1.348   2.007  0.00  0.00    +0.129 A 
BRANCH   7   8
ATOM      8  O   UNL     1       3.014  -0.210   1.580  0.00  0.00    -0.506 OA
ATOM      9  H   UNL     1       2.340   0.127   2.185  0.00  0.00    +0.292 HD
ENDBRANCH   7   8
BRANCH   5  10
ATOM     10  O   UNL     1       6.504  -2.360   3.991  0.00  0.00    -0.507 OA
ATOM     11  H   UNL     1       7.327  -2.342   3.485  0.00  0.00    +0.292 HD
ENDBRANCH   5  10
BRANCH   3  12
ATOM     12  O   UNL     1       3.211  -4.958   1.751  0.00  0.00    -0.506 OA
ATOM     13  H   UNL     1       3.618  -5.348   0.965  0.00  0.00    +0.292 HD
ENDBRANCH   3  12
ENDBRANCH   1   2
BRANCH   1  14
ATOM     14  C   UNL     1       2.211  -2.384  -0.624  0.00  0.00    +0.239 C 
ATOM     15  O   UNL     1       1.640  -1.499  -1.227  0.00  0.00    -0.273 OA
ATOM     16  N   UNL     1       3.162  -3.113  -1.240  0.00  0.00    -0.309 N 
ATOM     17  H   UNL     1       3.618  -3.821  -0.759  0.00  0.00    +0.149 HD
BRANCH  16  18
ATOM     18  C   UNL     1       3.506  -2.838  -2.637  0.00  0.00    +0.026 C 
ATOM     19  C   UNL     1       4.005  -1.397  -2.765  0.00  0.00    +0.031 C 
ATOM     20  C   UNL     1       4.606  -3.801  -3.091  0.00  0.00    +0.031 C 
ATOM     21  C   UNL     1       2.268  -3.029  -3.515  0.00  0.00    +0.031 C 
ENDBRANCH  16  18
ENDBRANCH   1  14
BRANCH   1  22
ATOM     22  N   UNL     1       0.880  -1.679   1.279  0.00  0.00    -0.275 N 
ATOM     23  C   UNL     1       0.128  -1.935   2.368  0.00  0.00    +0.292 C 
ATOM     24  O   UNL     1       0.261  -2.988   2.964  0.00  0.00    -0.260 OA
BRANCH  23  25
ATOM     25  C   UNL     1      -0.826  -0.970   2.823  0.00  0.00    -0.003 C 
ATOM     26  C   UNL     1      -1.608  -0.178   3.196  0.00  0.00    -0.057 C 
BRANCH  26  27
ATOM     27  C   UNL     1      -2.563   0.788   3.652  0.00  0.00    +0.025 A 
ATOM     28  C   UNL     1      -2.722   1.996   2.966  0.00  0.00    +0.017 A 
ATOM     29  C   UNL     1      -3.643   2.921   3.410  0.00  0.00    +0.001 A 
ATOM     30  C   UNL     1      -4.409   2.655   4.532  0.00  0.00    +0.000 A 
ATOM     31  C   UNL     1      -4.257   1.462   5.217  0.00  0.00    +0.001 A 
ATOM     32  C   UNL     1      -3.344   0.525   4.781  0.00  0.00    +0.017 A 
ENDBRANCH  26  27
ENDBRANCH  23  25
BRANCH  22  33
ATOM     33  C   UNL     1       0.721  -0.411   0.561  0.00  0.00    +0.109 C 
BRANCH  33  35
ATOM     34  C   UNL     1      -0.486   0.720  -1.312  0.00  0.00    +0.005 C 
ATOM     35  C   UNL     1      -0.443  -0.527  -0.426  0.00  0.00    +0.016 C 
ENDBRANCH  33  35
ENDBRANCH  22  33
ENDBRANCH   1  22
TORSDOF 11
