REMARK  Name = ZINC02665293
REMARK  11 active torsions:
REMARK  status: ('A' for Active; 'I' for Inactive)
REMARK    1  A    between atoms: C_1  and  C_2
REMARK    2  A    between atoms: C_2  and  C_39
REMARK    3  A    between atoms: C_9  and  C_21
REMARK    4  A    between atoms: C_17  and  C_19
REMARK    5  A    between atoms: C_17  and  C_20
REMARK    6  A    between atoms: N_23  and  C_24
REMARK    7  A    between atoms: C_24  and  C_25
REMARK    8  A    between atoms: N_27  and  C_28
REMARK    9  A    between atoms: C_28  and  C_29
REMARK   10  A    between atoms: N_31  and  C_32
REMARK   11  A    between atoms: C_37  and  O_38
REMARK                            x       y       z     vdW  Elec       q    Type
REMARK                         _______ _______ _______ _____ _____    ______ ____
ROOT
ATOM      1  C   UNL     1       3.541   0.079  -2.502  0.00  0.00    +0.245 C 
ATOM      2  O   UNL     1       4.536   0.636  -2.916  0.00  0.00    -0.273 OA
ATOM      3  N   UNL     1       3.510  -1.265  -2.408  0.00  0.00    -0.305 N 
ATOM      4  H   UNL     1       2.714  -1.710  -2.077  0.00  0.00    +0.149 HD
ENDROOT
BRANCH   1  11
ATOM      5  C   UNL     1      -0.232  -0.531   1.489  0.00  0.00    +0.074 C 
ATOM      6  C   UNL     1       0.043  -0.002   0.080  0.00  0.00    +0.166 C 
ATOM      7  O   UNL     1       0.028   1.431   0.096  0.00  0.00    -0.341 OA
ATOM      8  C   UNL     1       1.407   1.846   0.078  0.00  0.00    +0.187 C 
ATOM      9  C   UNL     1       2.134   0.708  -0.614  0.00  0.00    +0.191 C 
ATOM     10  O   UNL     1       1.328  -0.457  -0.359  0.00  0.00    -0.340 OA
ATOM     11  C   UNL     1       2.339   0.891  -2.093  0.00  0.00    +0.238 C 
ATOM     12  O   UNL     1       2.529   2.199  -2.536  0.00  0.00    -0.333 OA
ATOM     13  C   UNL     1       1.776   3.277  -2.022  0.00  0.00    +0.286 C 
ATOM     14  C   UNL     1       1.567   3.200  -0.519  0.00  0.00    +0.209 C 
ATOM     15  O   UNL     1       2.611   3.991   0.057  0.00  0.00    -0.338 OA
ATOM     16  C   UNL     1       2.856   5.019  -0.921  0.00  0.00    +0.168 C 
ATOM     17  O   UNL     1       2.562   4.479  -2.216  0.00  0.00    -0.318 OA
ATOM     18  C   UNL     1       4.323   5.450  -0.862  0.00  0.00    +0.074 C 
ATOM     19  C   UNL     1       1.952   6.222  -0.645  0.00  0.00    +0.074 C 
ATOM     20  C   UNL     1      -1.034  -0.515  -0.878  0.00  0.00    +0.074 C 
ENDBRANCH   1  11
BRANCH   3  21
ATOM     21  C   UNL     1       4.679  -2.054  -2.805  0.00  0.00    +0.200 C 
BRANCH  21  22
ATOM     22  C   UNL     1       4.388  -3.519  -2.604  0.00  0.00    +0.231 C 
ATOM     23  O   UNL     1       3.310  -3.869  -2.172  0.00  0.00    -0.274 OA
ATOM     24  N   UNL     1       5.325  -4.439  -2.906  0.00  0.00    -0.305 N 
ATOM     25  H   UNL     1       6.186  -4.159  -3.252  0.00  0.00    +0.149 HD
BRANCH  24  26
ATOM     26  C   UNL     1       5.042  -5.864  -2.710  0.00  0.00    +0.200 C 
BRANCH  26  27
ATOM     27  C   UNL     1       6.244  -6.675  -3.119  0.00  0.00    +0.234 C 
ATOM     28  O   UNL     1       7.239  -6.119  -3.534  0.00  0.00    -0.274 OA
ATOM     29  N   UNL     1       6.213  -8.019  -3.025  0.00  0.00    -0.281 N 
ATOM     30  H   UNL     1       5.443  -8.461  -2.634  0.00  0.00    +0.155 HD
BRANCH  29  31
ATOM     31  C   UNL     1       7.294  -8.779  -3.492  0.00  0.00    +0.075 A 
ATOM     32  C   UNL     1       8.588  -8.292  -3.378  0.00  0.00    +0.027 A 
ATOM     33  C   UNL     1       9.652  -9.043  -3.839  0.00  0.00    +0.002 A 
ATOM     34  C   UNL     1       9.431 -10.281  -4.414  0.00  0.00    +0.004 A 
ATOM     35  C   UNL     1       8.145 -10.774  -4.531  0.00  0.00    +0.047 A 
ATOM     36  C   UNL     1       7.073 -10.028  -4.067  0.00  0.00    +0.138 A 
BRANCH  36  37
ATOM     37  O   UNL     1       5.807 -10.514  -4.177  0.00  0.00    -0.505 OA
ATOM     38  H   UNL     1       5.364 -10.275  -5.003  0.00  0.00    +0.292 HD
ENDBRANCH  36  37
ENDBRANCH  29  31
ENDBRANCH  26  27
ENDBRANCH  24  26
ENDBRANCH  21  22
ENDBRANCH   3  21
TORSDOF 7
