REMARK  Name = ZINC04235455
REMARK  7 active torsions:
REMARK  status: ('A' for Active; 'I' for Inactive)
REMARK    1  A    between atoms: C_10  and  N_11
REMARK    2  A    between atoms: C_12  and  O_14
REMARK    3  A    between atoms: O_14  and  C_15
REMARK    4  A    between atoms: C_25  and  N_27
REMARK    5  A    between atoms: N_27  and  C_28
REMARK    6  A    between atoms: C_28  and  N_30
REMARK    7  A    between atoms: N_30  and  C_31
REMARK                            x       y       z     vdW  Elec       q    Type
REMARK                         _______ _______ _______ _____ _____    ______ ____
ROOT
ATOM      1  C   UNL     1       5.729  -2.662  -0.501  0.00  0.00    +0.235 C 
ATOM      2  C   UNL     1       6.438  -2.789  -1.866  0.00  0.00    +0.207 C 
ATOM      3  O   UNL     1       7.045  -4.085  -1.916  0.00  0.00    -0.368 OA
ATOM      4  C   UNL     1       6.785  -4.808  -0.706  0.00  0.00    +0.173 C 
ATOM      5  C   UNL     1       5.512  -4.141  -0.095  0.00  0.00    +0.192 C 
ATOM      6  O   UNL     1       4.433  -4.713  -0.894  0.00  0.00    -0.368 OA
ATOM      7  C   UNL     1       4.754  -6.091  -1.138  0.00  0.00    +0.185 C 
ATOM      8  C   UNL     1       6.286  -6.225  -1.072  0.00  0.00    +0.129 C 
ENDROOT
BRANCH   8   9
ATOM      9  N   UNL     1       6.674  -7.187  -0.037  0.00  0.00    -0.319 N 
ATOM     10  H   UNL     1       6.835  -6.885   0.870  0.00  0.00    +0.148 HD
BRANCH   9  11
ATOM     11  C   UNL     1       6.807  -8.492  -0.346  0.00  0.00    +0.135 C 
ATOM     12  S   UNL     1       6.522  -9.026  -1.948  0.00  0.00    -0.019 S 
BRANCH  11  13
ATOM     13  N   UNL     1       7.163  -9.377   0.606  0.00  0.00    -0.297 N 
ATOM     14  H   UNL     1       7.245  -9.090   1.529  0.00  0.00    +0.154 HD
BRANCH  13  15
ATOM     15  C   UNL     1       7.415 -10.710   0.263  0.00  0.00    +0.033 A 
ATOM     16  C   UNL     1       6.964 -11.736   1.084  0.00  0.00    +0.025 A 
ATOM     17  C   UNL     1       7.210 -13.052   0.740  0.00  0.00    +0.022 A 
ATOM     18  C   UNL     1       7.913 -13.347  -0.414  0.00  0.00    +0.041 A 
ATOM     19  C   UNL     1       8.368 -12.326  -1.231  0.00  0.00    +0.022 A 
ATOM     20  C   UNL     1       8.120 -11.010  -0.895  0.00  0.00    +0.025 A 
ATOM     21 CL   UNL     1       8.226 -15.001  -0.839  0.00  0.00    -0.084 Cl
ENDBRANCH  13  15
ENDBRANCH  11  13
ENDBRANCH   9  11
ENDBRANCH   8   9
BRANCH   1  22
ATOM     22  O   UNL     1       4.458  -1.974  -0.643  0.00  0.00    -0.442 OA
BRANCH  22  24
ATOM     23  N   UNL     1       3.320   0.063  -0.605  0.00  0.00    -0.251 N 
ATOM     24  C   UNL     1       4.466  -0.636  -0.486  0.00  0.00    +0.405 C 
ATOM     25  O   UNL     1       5.507  -0.060  -0.238  0.00  0.00    -0.226 OA
ATOM     26  H   UNL     1       2.477  -0.404  -0.714  0.00  0.00    +0.158 HD
BRANCH  23  36
ATOM     27  C   UNL     1      -0.055   3.655   0.484  0.00  0.00    +0.001 A 
ATOM     28  C   UNL     1      -0.105   2.262   0.449  0.00  0.00    +0.001 A 
ATOM     29  C   UNL     1       0.992   1.530   0.114  0.00  0.00    +0.010 A 
ATOM     30  C   UNL     1       2.191   2.184  -0.212  0.00  0.00    +0.003 A 
ATOM     31  C   UNL     1       2.241   3.599  -0.183  0.00  0.00    -0.016 A 
ATOM     32  C   UNL     1       1.089   4.322   0.173  0.00  0.00    +0.008 A 
ATOM     33  C   UNL     1       3.440   4.256  -0.510  0.00  0.00    +0.008 A 
ATOM     34  C   UNL     1       4.540   3.530  -0.852  0.00  0.00    +0.002 A 
ATOM     35  C   UNL     1       4.503   2.140  -0.884  0.00  0.00    +0.024 A 
ATOM     36  C   UNL     1       3.347   1.458  -0.570  0.00  0.00    +0.044 A 
ENDBRANCH  23  36
ENDBRANCH  22  24
ENDBRANCH   1  22
TORSDOF 7
