REMARK  Name = ZINC12292187
REMARK  8 active torsions:
REMARK  status: ('A' for Active; 'I' for Inactive)
REMARK    1  A    between atoms: C_1  and  C_2
REMARK    2  A    between atoms: C_5  and  C_8
REMARK    3  A    between atoms: C_8  and  C_10
REMARK    4  A    between atoms: C_8  and  O_27
REMARK    5  A    between atoms: C_10  and  N_51
REMARK    6  A    between atoms: C_13  and  C_16
REMARK    7  A    between atoms: C_13  and  O_26
REMARK    8  A    between atoms: C_19  and  C_22
REMARK                            x       y       z     vdW  Elec       q    Type
REMARK                         _______ _______ _______ _____ _____    ______ ____
ROOT
ATOM      1  C   UNL     1      -1.229   4.040   0.003  0.00  0.00    -0.076 C 
ATOM      2  C   UNL     1      -0.916   5.536   0.082  0.00  0.00    +0.021 C 
ATOM      3  C   UNL     1      -1.442   6.230  -1.177  0.00  0.00    +0.088 C 
ATOM      4  C   UNL     1      -0.804   5.585  -2.410  0.00  0.00    +0.021 C 
ATOM      5  C   UNL     1      -1.120   4.087  -2.418  0.00  0.00    -0.076 C 
ATOM      6  N   UNL     1      -0.566   3.474  -1.192  0.00  0.00    +0.382 N 
ATOM      7  H   UNL     1       0.439   3.677  -1.143  0.00  0.00    -0.082 HD
ENDROOT
BRANCH   3   8
ATOM      8  C   UNL     1      -1.085   7.694  -1.133  0.00  0.00    -0.016 A 
ATOM      9  C   UNL     1       0.115   8.129  -1.663  0.00  0.00    +0.007 A 
ATOM     10  C   UNL     1       0.441   9.472  -1.626  0.00  0.00    +0.013 A 
ATOM     11  C   UNL     1      -0.431  10.379  -1.052  0.00  0.00    +0.055 A 
ATOM     12  C   UNL     1      -1.629   9.943  -0.518  0.00  0.00    +0.013 A 
ATOM     13  C   UNL     1      -1.956   8.600  -0.558  0.00  0.00    +0.007 A 
BRANCH  11  14
ATOM     14  C   UNL     1      -0.074  11.842  -1.008  0.00  0.00    +0.417 C 
ATOM     15  F   UNL     1       0.621  12.118   0.173  0.00  0.00    -0.166 F 
ATOM     16  F   UNL     1       0.730  12.159  -2.108  0.00  0.00    -0.166 F 
ATOM     17  F   UNL     1      -1.244  12.608  -1.050  0.00  0.00    -0.166 F 
ENDBRANCH  11  14
ENDBRANCH   3   8
BRANCH   3  18
ATOM     18  O   UNL     1      -2.862   6.086  -1.244  0.00  0.00    -0.384 OA
ATOM     19  H   UNL     1      -3.332   6.473  -0.493  0.00  0.00    +0.211 HD
ENDBRANCH   3  18
BRANCH   6  20
ATOM     20  C   UNL     1      -0.758   2.010  -1.229  0.00  0.00    -0.042 C 
BRANCH  20  21
ATOM     21  C   UNL     1       0.292   1.402  -2.161  0.00  0.00    +0.128 C 
BRANCH  21  26
ATOM     22  C   UNL     1      -0.378  -4.335  -2.340  0.00  0.00    +0.044 C 
ATOM     23  C   UNL     1      -0.203  -2.839  -2.294  0.00  0.00    -0.050 A 
ATOM     24  C   UNL     1      -0.704  -2.052  -3.314  0.00  0.00    +0.004 A 
ATOM     25  C   UNL     1      -0.543  -0.680  -3.271  0.00  0.00    +0.006 A 
ATOM     26  C   UNL     1       0.117  -0.094  -2.208  0.00  0.00    -0.021 A 
ATOM     27  C   UNL     1       0.623  -0.881  -1.190  0.00  0.00    +0.006 A 
ATOM     28  C   UNL     1       0.458  -2.253  -1.230  0.00  0.00    +0.004 A 
ENDBRANCH  21  26
BRANCH  21  29
ATOM     29  O   UNL     1       1.599   1.714  -1.673  0.00  0.00    -0.389 OA
ATOM     30  H   UNL     1       1.777   1.378  -0.784  0.00  0.00    +0.210 HD
ENDBRANCH  21  29
ENDBRANCH  20  21
ENDBRANCH   6  20
TORSDOF 7
