REMARK  Name = ZINC08323829
REMARK  3 active torsions:
REMARK  status: ('A' for Active; 'I' for Inactive)
REMARK    1  A    between atoms: C_1  and  C_2
REMARK    2  A    between atoms: C_14  and  C_16
REMARK    3  A    between atoms: C_16  and  N_17
REMARK                            x       y       z     vdW  Elec       q    Type
REMARK                         _______ _______ _______ _____ _____    ______ ____
ROOT
ATOM      1  N   UNL     1      -4.031   2.419  -1.839  0.00  0.00    -0.215 N 
ATOM      2  C   UNL     1      -2.925   2.952  -1.276  0.00  0.00    +0.251 C 
ATOM      3  O   UNL     1      -2.582   4.115  -1.286  0.00  0.00    -0.272 OA
ATOM      4  C   UNL     1      -2.211   1.793  -0.632  0.00  0.00    +0.138 C 
ATOM      5  C   UNL     1      -0.801   1.618  -1.210  0.00  0.00    +0.045 C 
ATOM      6  C   UNL     1      -0.013   1.086   0.008  0.00  0.00    +0.038 C 
ATOM      7  C   UNL     1      -0.762   1.594   1.222  0.00  0.00    -0.042 A 
ATOM      8  C   UNL     1      -2.035   2.001   0.848  0.00  0.00    -0.012 A 
ATOM      9  C   UNL     1      -2.902   2.503   1.804  0.00  0.00    +0.006 A 
ATOM     10  C   UNL     1      -2.505   2.600   3.123  0.00  0.00    +0.000 A 
ATOM     11  C   UNL     1      -1.237   2.195   3.494  0.00  0.00    +0.000 A 
ATOM     12  C   UNL     1      -0.369   1.693   2.544  0.00  0.00    +0.004 A 
ATOM     13  N   UNL     1      -3.054   0.633  -0.921  0.00  0.00    -0.281 N 
ATOM     14  C   UNL     1      -4.100   1.097  -1.634  0.00  0.00    +0.310 C 
ATOM     15  O   UNL     1      -5.003   0.395  -2.045  0.00  0.00    -0.252 OA
ATOM     16  H   UNL     1      -2.893  -0.285  -0.653  0.00  0.00    +0.152 HD
ENDROOT
BRANCH   1  17
ATOM     17  C   UNL     1      -5.031   3.190  -2.582  0.00  0.00    +0.214 C 
BRANCH  17  30
ATOM     18  C   UNL     1      -7.698   8.726  -0.884  0.00  0.00    +0.019 C 
ATOM     19  C   UNL     1      -7.803   7.393  -1.629  0.00  0.00    +0.050 C 
ATOM     20  C   UNL     1      -7.823   6.254  -0.623  0.00  0.00    +0.033 C 
ATOM     21  C   UNL     1      -8.174   4.901  -1.186  0.00  0.00    +0.115 C 
ATOM     22  N   UNL     1      -7.125   4.415  -2.096  0.00  0.00    -0.269 N 
ATOM     23  C   UNL     1      -7.219   4.741  -3.453  0.00  0.00    +0.050 A 
ATOM     24  C   UNL     1      -7.607   3.767  -4.368  0.00  0.00    +0.024 A 
ATOM     25  C   UNL     1      -7.752   4.096  -5.702  0.00  0.00    +0.002 A 
ATOM     26  C   UNL     1      -7.517   5.386  -6.144  0.00  0.00    +0.001 A 
ATOM     27  C   UNL     1      -7.114   6.347  -5.253  0.00  0.00    +0.016 A 
ATOM     28  C   UNL     1      -6.953   6.016  -3.923  0.00  0.00    +0.030 A 
ATOM     29  S   UNL     1      -6.380   7.218  -2.746  0.00  0.00    -0.120 S 
ATOM     30  C   UNL     1      -6.095   3.679  -1.633  0.00  0.00    +0.238 C 
ATOM     31  O   UNL     1      -6.025   3.409  -0.452  0.00  0.00    -0.274 OA
ENDBRANCH  17  30
ENDBRANCH   1  17
TORSDOF 2
