REMARK  Name = ZINC19945766
REMARK  6 active torsions:
REMARK  status: ('A' for Active; 'I' for Inactive)
REMARK    1  A    between atoms: C_1  and  C_2
REMARK    2  A    between atoms: C_3  and  C_18
REMARK    3  A    between atoms: N_6  and  C_14
REMARK    4  A    between atoms: C_14  and  C_15
REMARK    5  A    between atoms: C_15  and  C_16
REMARK    6  A    between atoms: C_15  and  C_17
REMARK                            x       y       z     vdW  Elec       q    Type
REMARK                         _______ _______ _______ _____ _____    ______ ____
ROOT
ATOM      1  C   UNL     1      -0.020  -6.224  -1.569  0.00  0.00    +0.046 C 
ATOM      2  C   UNL     1       0.152  -4.729  -1.480  0.00  0.00    -0.014 A 
ATOM      3  C   UNL     1       1.058  -4.174  -0.585  0.00  0.00    +0.120 A 
ATOM      4  C   UNL     1       1.201  -2.718  -0.534  0.00  0.00    +0.271 A 
ATOM      5  O   UNL     1       1.994  -2.211   0.240  0.00  0.00    -0.266 OA
ATOM      6  N   UNL     1       0.453  -1.940  -1.338  0.00  0.00    -0.292 N 
ATOM      7  C   UNL     1      -0.440  -2.488  -2.220  0.00  0.00    +0.141 A 
ATOM      8  C   UNL     1      -0.601  -3.875  -2.302  0.00  0.00    +0.062 A 
ATOM      9  C   UNL     1      -1.619  -4.114  -3.329  0.00  0.00    +0.147 A 
ATOM     10  N   UNL     1      -1.991  -2.944  -3.779  0.00  0.00    -0.157 NA
ATOM     11  N   UNL     1      -1.285  -1.937  -3.116  0.00  0.00    -0.260 N 
ATOM     12  H   UNL     1      -1.332  -0.844  -3.229  0.00  0.00    +0.191 HD
ATOM     13  N   UNL     1      -2.100  -5.355  -3.747  0.00  0.00    -0.341 N 
ATOM     14  H   UNL     1      -2.869  -5.411  -4.532  0.00  0.00    +0.144 HD
ATOM     15  H   UNL     1      -1.710  -6.278  -3.293  0.00  0.00    +0.144 HD
ENDROOT
BRANCH   3  16
ATOM     16  C   UNL     1       1.844  -5.013   0.269  0.00  0.00    +0.105 C 
ATOM     17  N   UNL     1       2.467  -5.678   0.947  0.00  0.00    -0.191 NA
ENDBRANCH   3  16
BRANCH   6  18
ATOM     18  C   UNL     1       0.601  -0.483  -1.273  0.00  0.00    +0.130 C 
BRANCH  18  19
ATOM     19  C   UNL     1      -0.379   0.083  -0.243  0.00  0.00    +0.003 C 
ATOM     20  C   UNL     1      -0.314   1.611  -0.264  0.00  0.00    +0.009 C 
ATOM     21  C   UNL     1      -0.004  -0.425   1.151  0.00  0.00    +0.009 C 
ENDBRANCH  18  19
ENDBRANCH   6  18
TORSDOF 3
