REMARK  Name = ZINC13995179
REMARK  8 active torsions:
REMARK  status: ('A' for Active; 'I' for Inactive)
REMARK    1  A    between atoms: C_1  and  C_2
REMARK    2  A    between atoms: C_11  and  C_33
REMARK    3  A    between atoms: C_14  and  C_16
REMARK    4  A    between atoms: C_19  and  O_24
REMARK    5  A    between atoms: C_20  and  O_22
REMARK    6  A    between atoms: O_22  and  C_23
REMARK    7  A    between atoms: O_24  and  C_25
REMARK    8  A    between atoms: C_25  and  C_26
REMARK                            x       y       z     vdW  Elec       q    Type
REMARK                         _______ _______ _______ _____ _____    ______ ____
ROOT
ATOM      1  C   UNL     1      -0.846   1.124  -2.411  0.00  0.00    -0.026 A 
ATOM      2  C   UNL     1      -2.049   1.289  -1.749  0.00  0.00    +0.009 A 
ATOM      3  C   UNL     1      -2.618   2.545  -1.647  0.00  0.00    +0.050 A 
ATOM      4  C   UNL     1      -1.983   3.641  -2.208  0.00  0.00    +0.162 A 
ATOM      5  C   UNL     1      -0.773   3.475  -2.874  0.00  0.00    +0.162 A 
ATOM      6  C   UNL     1      -0.205   2.215  -2.968  0.00  0.00    +0.054 A 
ENDROOT
BRANCH   1  19
ATOM      7  C   UNL     1       0.491   1.756  -0.289  0.00  0.00    +0.068 C 
ATOM      8  C   UNL     1       0.554   0.256  -0.152  0.00  0.00    +0.066 A 
ATOM      9  C   UNL     1       0.229  -0.676  -1.161  0.00  0.00    +0.032 A 
ATOM     10  C   UNL     1       0.413  -1.914  -0.652  0.00  0.00    +0.125 A 
ATOM     11  N   UNL     1       0.839  -1.759   0.640  0.00  0.00    -0.263 N 
ATOM     12  H   UNL     1       1.050  -2.476   1.258  0.00  0.00    +0.190 HD
ATOM     13  N   UNL     1       0.921  -0.394   0.914  0.00  0.00    -0.177 NA
ATOM     14  N   UNL     1       0.252  -3.164  -1.200  0.00  0.00    -0.270 N 
ATOM     15  C   UNL     1      -0.169  -3.617  -2.343  0.00  0.00    +0.231 C 
ATOM     16  O   UNL     1      -0.264  -4.824  -2.409  0.00  0.00    -0.274 OA
ATOM     17  C   UNL     1      -0.550  -2.896  -3.576  0.00  0.00    +0.130 C 
ATOM     18  S   UNL     1      -1.431  -1.363  -3.248  0.00  0.00    -0.135 S 
ATOM     19  C   UNL     1      -0.229  -0.247  -2.519  0.00  0.00    +0.112 C 
ATOM     20  C   UNL     1      -1.444  -3.804  -4.421  0.00  0.00    +0.029 C 
ATOM     21  H   UNL     1       0.513  -3.873  -0.592  0.00  0.00    +0.156 HD
ENDBRANCH   1  19
BRANCH   5  22
ATOM     22  O   UNL     1      -0.146   4.548  -3.426  0.00  0.00    -0.491 OA
ATOM     23  C   UNL     1       1.094   4.303  -4.093  0.00  0.00    +0.277 C 
ENDBRANCH   5  22
BRANCH   4  24
ATOM     24  O   UNL     1      -2.543   4.877  -2.109  0.00  0.00    -0.484 OA
BRANCH  24  25
ATOM     25  C   UNL     1      -3.787   4.972  -1.412  0.00  0.00    +0.267 C 
BRANCH  25  26
ATOM     26  C   UNL     1      -4.250   6.406  -1.404  0.00  0.00    +0.025 A 
ATOM     27  C   UNL     1      -3.490   7.381  -2.022  0.00  0.00    +0.010 A 
ATOM     28  C   UNL     1      -3.914   8.697  -2.015  0.00  0.00    +0.001 A 
ATOM     29  C   UNL     1      -5.099   9.039  -1.389  0.00  0.00    +0.003 A 
ATOM     30  C   UNL     1      -5.861   8.065  -0.772  0.00  0.00    +0.039 A 
ATOM     31  C   UNL     1      -5.439   6.746  -0.783  0.00  0.00    +0.130 A 
ATOM     32  F   UNL     1      -6.185   5.793  -0.183  0.00  0.00    -0.205 F 
ENDBRANCH  25  26
ENDBRANCH  24  25
ENDBRANCH   4  24
TORSDOF 5
