REMARK  Name = ZINC42358658
REMARK  4 active torsions:
REMARK  status: ('A' for Active; 'I' for Inactive)
REMARK    1  A    between atoms: C_8  and  N_13
REMARK    2  A    between atoms: C_9  and  N_12
REMARK    3  A    between atoms: N_13  and  C_14
REMARK    4  A    between atoms: C_14  and  C_15
REMARK                            x       y       z     vdW  Elec       q    Type
REMARK                         _______ _______ _______ _____ _____    ______ ____
ROOT
ATOM      1  C   UNL     1      -0.231   0.903   1.758  0.00  0.00    +0.017 A 
ATOM      2  C   UNL     1       0.741   1.849   1.643  0.00  0.00    +0.027 A 
ATOM      3  C   UNL     1       2.077   1.456   1.446  0.00  0.00    +0.048 A 
ATOM      4  C   UNL     1       2.384   0.076   1.371  0.00  0.00    +0.022 A 
ATOM      5  C   UNL     1       1.358  -0.872   1.494  0.00  0.00    +0.027 A 
ATOM      6  C   UNL     1       0.074  -0.455   1.684  0.00  0.00    +0.019 A 
ATOM      7 BR   UNL     1      -1.309  -1.733   1.849  0.00  0.00    -0.050 Br
ATOM      8  C   UNL     1       3.727  -0.318   1.173  0.00  0.00    +0.059 A 
ATOM      9  C   UNL     1       4.687   0.681   1.061  0.00  0.00    +0.062 A 
ATOM     10  C   UNL     1       4.303   2.018   1.146  0.00  0.00    +0.107 A 
ATOM     11  N   UNL     1       3.050   2.366   1.331  0.00  0.00    -0.359 N 
ATOM     12  H   UNL     1       2.825   3.308   1.384  0.00  0.00    +0.165 HD
ENDROOT
BRANCH   9  13
ATOM     13  N   UNL     1       6.035   0.346   0.865  0.00  0.00    -0.355 N 
ATOM     14  H   UNL     1       6.268  -0.439   0.345  0.00  0.00    +0.142 HD
ATOM     15  H   UNL     1       6.733   0.899   1.248  0.00  0.00    +0.142 HD
ENDBRANCH   9  13
BRANCH   8  16
ATOM     16  N   UNL     1       4.077  -1.662   1.093  0.00  0.00    -0.338 N 
ATOM     17  H   UNL     1       3.393  -2.333   0.937  0.00  0.00    +0.146 HD
BRANCH  16  18
ATOM     18  C   UNL     1       5.477  -2.065   1.246  0.00  0.00    +0.140 C 
BRANCH  18  19
ATOM     19  C   UNL     1       5.540  -3.485   1.747  0.00  0.00    +0.007 A 
ATOM     20  C   UNL     1       5.560  -3.871   3.044  0.00  0.00    +0.110 A 
ATOM     21  N   UNL     1       5.618  -5.219   3.070  0.00  0.00    -0.284 N 
ATOM     22  H   UNL     1       5.644  -5.773   3.866  0.00  0.00    +0.188 HD
ATOM     23  N   UNL     1       5.634  -5.676   1.746  0.00  0.00    -0.182 NA
ATOM     24  C   UNL     1       5.581  -4.636   0.954  0.00  0.00    +0.139 A 
ENDBRANCH  18  19
ENDBRANCH  16  18
ENDBRANCH   8  16
TORSDOF 4
