REMARK  Name = ZINC67565746
REMARK  4 active torsions:
REMARK  status: ('A' for Active; 'I' for Inactive)
REMARK    1  A    between atoms: C_1  and  C_2
REMARK    2  A    between atoms: C_7  and  C_10
REMARK    3  A    between atoms: N_18  and  C_19
REMARK    4  A    between atoms: C_23  and  C_25
REMARK                            x       y       z     vdW  Elec       q    Type
REMARK                         _______ _______ _______ _____ _____    ______ ____
ROOT
ATOM      1  C   UNL     1      -1.617   1.695   0.862  0.00  0.00    +0.039 C 
ATOM      2  C   UNL     1      -1.177   0.286   0.459  0.00  0.00    +0.133 C 
ATOM      3  C   UNL     1      -2.308  -0.707   0.753  0.00  0.00    +0.140 C 
ATOM      4  N   UNL     1      -1.797  -2.069   0.535  0.00  0.00    -0.280 N 
ATOM      5  C   UNL     1      -0.531  -2.446   1.185  0.00  0.00    +0.145 C 
ATOM      6  C   UNL     1       0.512  -1.368   0.870  0.00  0.00    +0.166 C 
ATOM      7  O   UNL     1      -0.018  -0.084   1.209  0.00  0.00    -0.366 OA
ATOM      8  C   UNL     1      -2.469  -2.947  -0.237  0.00  0.00    +0.307 C 
ATOM      9  O   UNL     1      -3.557  -2.650  -0.689  0.00  0.00    -0.252 OA
ATOM     10  N   UNL     1      -1.933  -4.154  -0.507  0.00  0.00    -0.269 N 
ATOM     11  H   UNL     1      -1.116  -4.432  -0.064  0.00  0.00    +0.156 HD
ENDROOT
BRANCH  10  12
ATOM     12  C   UNL     1      -2.557  -5.006  -1.427  0.00  0.00    +0.036 A 
ATOM     13  C   UNL     1      -3.224  -4.475  -2.525  0.00  0.00    +0.026 A 
ATOM     14  C   UNL     1      -3.841  -5.310  -3.436  0.00  0.00    +0.041 A 
ATOM     15  C   UNL     1      -3.799  -6.681  -3.262  0.00  0.00    +0.136 A 
ATOM     16  C   UNL     1      -3.131  -7.225  -2.161  0.00  0.00    +0.073 A 
ATOM     17  C   UNL     1      -2.503  -6.378  -1.245  0.00  0.00    +0.039 A 
ATOM     18  F   UNL     1      -4.404  -7.495  -4.155  0.00  0.00    -0.205 F 
BRANCH  16  19
ATOM     19  C   UNL     1      -3.084  -8.689  -1.970  0.00  0.00    +0.244 C 
ATOM     20  O   UNL     1      -3.627  -9.424  -2.772  0.00  0.00    -0.270 OA
ATOM     21  N   UNL     1      -2.439  -9.210  -0.908  0.00  0.00    -0.325 N 
ATOM     22  H   UNL     1      -2.005  -8.623  -0.268  0.00  0.00    +0.145 HD
ATOM     23  H   UNL     1      -2.408 -10.171  -0.783  0.00  0.00    +0.145 HD
ENDBRANCH  16  19
ENDBRANCH  10  12
BRANCH   6  24
ATOM     24  C   UNL     1       1.760  -1.627   1.675  0.00  0.00    -0.017 A 
ATOM     25  C   UNL     1       1.816  -1.251   3.004  0.00  0.00    +0.006 A 
ATOM     26  C   UNL     1       2.961  -1.488   3.741  0.00  0.00    +0.000 A 
ATOM     27  C   UNL     1       4.050  -2.101   3.150  0.00  0.00    +0.000 A 
ATOM     28  C   UNL     1       3.994  -2.478   1.821  0.00  0.00    +0.000 A 
ATOM     29  C   UNL     1       2.847  -2.244   1.085  0.00  0.00    +0.006 A 
ENDBRANCH   6  24
TORSDOF 3
