REMARK  Name = ZINC09262065
REMARK  9 active torsions:
REMARK  status: ('A' for Active; 'I' for Inactive)
REMARK    1  A    between atoms: C_4  and  C_7
REMARK    2  A    between atoms: C_7  and  C_8
REMARK    3  A    between atoms: C_7  and  C_14
REMARK    4  A    between atoms: C_7  and  O_30
REMARK    5  A    between atoms: N_16  and  N_17
REMARK    6  A    between atoms: C_18  and  C_19
REMARK    7  A    between atoms: C_22  and  O_26
REMARK    8  A    between atoms: O_26  and  C_27
REMARK    9  A    between atoms: C_27  and  C_28
REMARK                            x       y       z     vdW  Elec       q    Type
REMARK                         _______ _______ _______ _____ _____    ______ ____
ROOT
ATOM      1  C   UNL     1      -3.457  -5.540   1.348  0.00  0.00    +0.273 C 
ATOM      2  O   UNL     1      -4.109  -6.501   1.698  0.00  0.00    -0.270 OA
ATOM      3  N   UNL     1      -2.497  -5.047   2.155  0.00  0.00    -0.204 N 
ATOM      4  H   UNL     1      -1.975  -4.279   1.876  0.00  0.00    +0.177 HD
ENDROOT
BRANCH   3   5
ATOM      5  N   UNL     1      -2.253  -5.644   3.399  0.00  0.00    -0.188 NA
ATOM      6  C   UNL     1      -1.329  -5.170   4.177  0.00  0.00    +0.138 C 
BRANCH   6   7
ATOM      7  C   UNL     1      -1.073  -5.798   5.486  0.00  0.00    -0.004 A 
ATOM      8  C   UNL     1      -1.823  -6.905   5.891  0.00  0.00    +0.013 A 
ATOM      9  C   UNL     1      -1.580  -7.490   7.115  0.00  0.00    +0.048 A 
ATOM     10  C   UNL     1      -0.591  -6.981   7.946  0.00  0.00    +0.140 A 
ATOM     11  C   UNL     1       0.158  -5.880   7.548  0.00  0.00    +0.083 A 
ATOM     12  C   UNL     1      -0.079  -5.288   6.325  0.00  0.00    +0.033 A 
ATOM     13 CL   UNL     1       1.393  -5.248   8.592  0.00  0.00    -0.080 Cl
BRANCH  10  14
ATOM     14  O   UNL     1      -0.355  -7.561   9.152  0.00  0.00    -0.479 OA
BRANCH  14  15
ATOM     15  C   UNL     1      -1.161  -8.689   9.498  0.00  0.00    +0.353 C 
BRANCH  15  16
ATOM     16  C   UNL     1      -0.758  -9.195  10.859  0.00  0.00    +0.393 C 
ATOM     17  O   UNL     1       0.128  -8.646  11.470  0.00  0.00    -0.243 OA
ATOM     18  O   UNL     1      -1.384 -10.256  11.393  0.00  0.00    -0.243 OA
ENDBRANCH  15  16
ENDBRANCH  14  15
ENDBRANCH  10  14
ENDBRANCH   6   7
ENDBRANCH   3   5
BRANCH   1  19
ATOM     19  C   UNL     1      -3.719  -4.898   0.010  0.00  0.00    +0.194 C 
BRANCH  19  23
ATOM     20  C   UNL     1      -5.460  -7.769  -2.631  0.00  0.00    +0.000 A 
ATOM     21  C   UNL     1      -6.148  -7.361  -1.503  0.00  0.00    +0.000 A 
ATOM     22  C   UNL     1      -5.584  -6.432  -0.648  0.00  0.00    +0.007 A 
ATOM     23  C   UNL     1      -4.333  -5.911  -0.922  0.00  0.00    -0.003 A 
ATOM     24  C   UNL     1      -3.648  -6.314  -2.053  0.00  0.00    +0.007 A 
ATOM     25  C   UNL     1      -4.210  -7.247  -2.905  0.00  0.00    +0.000 A 
ENDBRANCH  19  23
BRANCH  19  26
ATOM     26  C   UNL     1      -4.665  -3.739   0.186  0.00  0.00    -0.003 A 
ATOM     27  C   UNL     1      -5.736  -3.846   1.053  0.00  0.00    +0.007 A 
ATOM     28  C   UNL     1      -6.602  -2.781   1.218  0.00  0.00    +0.000 A 
ATOM     29  C   UNL     1      -6.402  -1.612   0.509  0.00  0.00    +0.000 A 
ATOM     30  C   UNL     1      -5.334  -1.506  -0.362  0.00  0.00    +0.000 A 
ATOM     31  C   UNL     1      -4.465  -2.569  -0.524  0.00  0.00    +0.007 A 
ENDBRANCH  19  26
BRANCH  19  32
ATOM     32  O   UNL     1      -2.487  -4.428  -0.542  0.00  0.00    -0.371 OA
ATOM     33  H   UNL     1      -1.829  -5.123  -0.683  0.00  0.00    +0.212 HD
ENDBRANCH  19  32
ENDBRANCH   1  19
TORSDOF 9
