REMARK  Name = ZINC15319860
REMARK  4 active torsions:
REMARK  status: ('A' for Active; 'I' for Inactive)
REMARK    1  A    between atoms: C_1  and  C_2
REMARK    2  A    between atoms: N_10  and  C_13
REMARK    3  A    between atoms: N_28  and  C_31
REMARK    4  A    between atoms: C_31  and  C_32
REMARK                            x       y       z     vdW  Elec       q    Type
REMARK                         _______ _______ _______ _____ _____    ______ ____
ROOT
ATOM      1  C   UNL     1       5.143  -3.435   1.172  0.00  0.00    +0.025 C 
ATOM      2  C   UNL     1       5.390  -1.954   0.879  0.00  0.00    +0.064 C 
ATOM      3  C   UNL     1       5.669  -1.756  -0.610  0.00  0.00    +0.107 C 
ATOM      4  C   UNL     1       4.218  -1.329  -1.084  0.00  0.00    +0.123 C 
ATOM      5  C   UNL     1       4.369  -1.444  -2.516  0.00  0.00    +0.233 C 
ATOM      6  O   UNL     1       3.892  -0.731  -3.373  0.00  0.00    -0.274 OA
ATOM      7  N   UNL     1       5.175  -2.544  -2.689  0.00  0.00    -0.210 N 
ATOM      8  C   UNL     1       5.749  -2.962  -1.516  0.00  0.00    +0.232 C 
ATOM      9  O   UNL     1       6.216  -4.051  -1.263  0.00  0.00    -0.274 OA
ATOM     10  C   UNL     1       3.840  -0.372  -0.040  0.00  0.00    +0.136 C 
ATOM     11  N   UNL     1       4.167  -1.158   1.196  0.00  0.00    -0.296 NA
ATOM     12  C   UNL     1       2.393   0.031  -0.022  0.00  0.00    +0.004 A 
ATOM     13  C   UNL     1       1.211  -0.676  -0.014  0.00  0.00    +0.008 A 
ATOM     14  C   UNL     1       0.002  -0.004   0.002  0.00  0.00    +0.000 A 
ATOM     15  C   UNL     1      -0.017   1.379   0.010  0.00  0.00    +0.002 A 
ATOM     16  C   UNL     1       1.164   2.091   0.002  0.00  0.00    +0.024 A 
ATOM     17  C   UNL     1       2.386   1.423  -0.013  0.00  0.00    +0.043 A 
ATOM     18  N   UNL     1       3.694   1.912  -0.023  0.00  0.00    -0.258 N 
ATOM     19  C   UNL     1       4.607   0.922  -0.038  0.00  0.00    +0.246 C 
ATOM     20  O   UNL     1       5.813   1.049  -0.049  0.00  0.00    -0.273 OA
ATOM     21  H   UNL     1       3.344  -1.839   1.459  0.00  0.00    +0.123 HD
ENDROOT
BRANCH   7  22
ATOM     22  C   UNL     1       5.385  -3.170  -3.926  0.00  0.00    +0.045 A 
ATOM     23  C   UNL     1       4.758  -2.685  -5.066  0.00  0.00    +0.024 A 
ATOM     24  C   UNL     1       4.972  -3.299  -6.285  0.00  0.00    +0.003 A 
ATOM     25  C   UNL     1       5.800  -4.403  -6.368  0.00  0.00    +0.020 A 
ATOM     26  C   UNL     1       6.422  -4.892  -5.233  0.00  0.00    +0.043 A 
ATOM     27  C   UNL     1       6.216  -4.278  -4.012  0.00  0.00    +0.044 A 
ATOM     28 CL   UNL     1       7.461  -6.279  -5.343  0.00  0.00    -0.083 Cl
ENDBRANCH   7  22
BRANCH  18  29
ATOM     29  C   UNL     1       4.034   3.337  -0.017  0.00  0.00    +0.202 C 
BRANCH  29  30
ATOM     30  C   UNL     1       4.161   3.805   1.373  0.00  0.00    -0.086 C 
ATOM     31  C   UNL     1       4.263   4.178   2.481  0.00  0.00    +0.005 C 
ENDBRANCH  29  30
ENDBRANCH  18  29
TORSDOF 3
