REMARK  Name = ZINC35926286
REMARK  4 active torsions:
REMARK  status: ('A' for Active; 'I' for Inactive)
REMARK    1  A    between atoms: C_5  and  C_7
REMARK    2  A    between atoms: C_21  and  C_23
REMARK    3  A    between atoms: C_23  and  N_24
REMARK    4  A    between atoms: N_27  and  C_30
REMARK                            x       y       z     vdW  Elec       q    Type
REMARK                         _______ _______ _______ _____ _____    ______ ____
ROOT
ATOM      1  C   UNL     1       1.226  -2.147  -2.411  0.00  0.00    +0.249 C 
ATOM      2  O   UNL     1       1.202  -0.938  -2.289  0.00  0.00    -0.270 OA
ATOM      3  N   UNL     1       0.073  -2.838  -2.505  0.00  0.00    -0.294 N 
ATOM      4  C   UNL     1       0.081  -4.308  -2.520  0.00  0.00    +0.127 C 
ATOM      5  C   UNL     1      -0.833  -4.814  -1.396  0.00  0.00    +0.127 C 
ATOM      6  N   UNL     1      -2.120  -4.111  -1.486  0.00  0.00    -0.298 N 
ATOM      7  C   UNL     1      -2.128  -2.642  -1.472  0.00  0.00    +0.127 C 
ATOM      8  C   UNL     1      -1.215  -2.136  -2.589  0.00  0.00    +0.127 C 
ATOM      9  C   UNL     1      -3.292  -4.813  -1.581  0.00  0.00    +0.198 A 
ATOM     10  N   UNL     1      -3.269  -6.169  -1.475  0.00  0.00    -0.295 N 
ATOM     11  H   UNL     1      -2.429  -6.632  -1.332  0.00  0.00    +0.172 HD
ATOM     12  C   UNL     1      -4.420  -6.868  -1.567  0.00  0.00    +0.253 A 
ATOM     13  O   UNL     1      -4.418  -8.085  -1.474  0.00  0.00    -0.268 OA
ATOM     14  C   UNL     1      -5.622  -6.168  -1.773  0.00  0.00    +0.091 A 
ATOM     15  C   UNL     1      -5.583  -4.807  -1.873  0.00  0.00    +0.034 A 
ATOM     16  N   UNL     1      -4.423  -4.163  -1.769  0.00  0.00    -0.223 NA
ENDROOT
BRANCH   1  21
ATOM     17  C   UNL     1       4.019  -4.380  -3.555  0.00  0.00    +0.001 A 
ATOM     18  C   UNL     1       4.946  -4.196  -2.543  0.00  0.00    +0.003 A 
ATOM     19  C   UNL     1       4.667  -3.348  -1.488  0.00  0.00    +0.039 A 
ATOM     20  C   UNL     1       3.458  -2.677  -1.437  0.00  0.00    +0.135 A 
ATOM     21  C   UNL     1       2.520  -2.859  -2.457  0.00  0.00    +0.072 A 
ATOM     22  C   UNL     1       2.811  -3.718  -3.519  0.00  0.00    +0.016 A 
ATOM     23  F   UNL     1       3.186  -1.849  -0.405  0.00  0.00    -0.205 F 
ENDBRANCH   1  21
BRANCH  15  24
ATOM     24  C   UNL     1      -6.857  -4.032  -2.093  0.00  0.00    -0.022 C 
BRANCH  24  25
ATOM     25  N   UNL     1      -7.124  -3.186  -0.923  0.00  0.00    +0.385 N 
ATOM     26  C   UNL     1      -7.373  -4.036   0.248  0.00  0.00    -0.059 C 
ATOM     27  C   UNL     1      -7.538  -3.156   1.491  0.00  0.00    +0.086 C 
ATOM     28  N   UNL     1      -8.593  -2.166   1.225  0.00  0.00    -0.331 N 
ATOM     29  C   UNL     1      -8.509  -1.380  -0.016  0.00  0.00    +0.086 C 
ATOM     30  C   UNL     1      -8.298  -2.344  -1.188  0.00  0.00    -0.059 C 
ATOM     31  H   UNL     1      -6.324  -2.598  -0.745  0.00  0.00    -0.081 HD
BRANCH  28  32
ATOM     32  C   UNL     1      -9.646  -1.978   2.125  0.00  0.00    +0.065 A 
ATOM     33  C   UNL     1      -9.532  -1.042   3.145  0.00  0.00    +0.026 A 
ATOM     34  C   UNL     1     -10.574  -0.858   4.032  0.00  0.00    +0.002 A 
ATOM     35  C   UNL     1     -11.732  -1.604   3.908  0.00  0.00    +0.003 A 
ATOM     36  C   UNL     1     -11.851  -2.538   2.894  0.00  0.00    +0.040 A 
ATOM     37  C   UNL     1     -10.814  -2.723   1.998  0.00  0.00    +0.144 A 
ATOM     38  F   UNL     1     -10.932  -3.630   1.004  0.00  0.00    -0.204 F 
ENDBRANCH  28  32
ENDBRANCH  24  25
ENDBRANCH  15  24
TORSDOF 4
