REMARK  Name = ZINC21787762
REMARK  3 active torsions:
REMARK  status: ('A' for Active; 'I' for Inactive)
REMARK    1  A    between atoms: C_3  and  C_14
REMARK    2  A    between atoms: N_7  and  C_8
REMARK    3  A    between atoms: C_16  and  C_19
REMARK                            x       y       z     vdW  Elec       q    Type
REMARK                         _______ _______ _______ _____ _____    ______ ____
ROOT
ATOM      1  C   UNL     1       8.052   1.990  -0.061  0.00  0.00    +0.018 A 
ATOM      2  C   UNL     1       6.667   1.958  -0.054  0.00  0.00    +0.018 A 
ATOM      3  C   UNL     1       6.032   0.713  -0.048  0.00  0.00    +0.077 A 
ATOM      4  C   UNL     1       6.820  -0.450  -0.061  0.00  0.00    +0.109 A 
ATOM      5  N   UNL     1       8.141  -0.363  -0.072  0.00  0.00    -0.349 N 
ATOM      6  C   UNL     1       8.760   0.802  -0.072  0.00  0.00    +0.084 A 
ATOM      7  N   UNL     1       6.213  -1.694  -0.061  0.00  0.00    -0.327 N 
ATOM      8  H   UNL     1       5.115  -1.771  -0.051  0.00  0.00    +0.148 HD
ATOM      9  H   UNL     1       8.752  -1.277  -0.082  0.00  0.00    +0.167 HD
ENDROOT
BRANCH   7  10
ATOM     10  C   UNL     1       7.031  -2.909  -0.074  0.00  0.00    +0.072 C 
ATOM     11  C   UNL     1       7.407  -3.256  -1.516  0.00  0.00    +0.022 C 
ATOM     12  C   UNL     1       8.262  -4.524  -1.529  0.00  0.00    +0.002 C 
ATOM     13  C   UNL     1       7.468  -5.681  -0.917  0.00  0.00    +0.000 C 
ATOM     14  C   UNL     1       7.092  -5.334   0.525  0.00  0.00    +0.002 C 
ATOM     15  C   UNL     1       6.237  -4.066   0.538  0.00  0.00    +0.022 C 
ENDBRANCH   7  10
BRANCH   3  16
ATOM     16  C   UNL     1       4.559   0.621  -0.036  0.00  0.00    +0.262 A 
ATOM     17  N   UNL     1       3.708   1.631  -0.029  0.00  0.00    -0.187 NA
ATOM     18  C   UNL     1       2.481   1.069  -0.015  0.00  0.00    +0.202 A 
ATOM     19  N   UNL     1       2.646  -0.229  -0.023  0.00  0.00    -0.056 NA
ATOM     20  O   UNL     1       3.827  -0.504  -0.035  0.00  0.00    -0.332 OA
BRANCH  18  21
ATOM     21  C   UNL     1       1.184   1.790   0.000  0.00  0.00    +0.023 A 
ATOM     22  C   UNL     1      -0.013   1.076   0.008  0.00  0.00    +0.013 A 
ATOM     23  C   UNL     1      -1.216   1.751   0.017  0.00  0.00    +0.021 A 
ATOM     24  C   UNL     1      -1.236   3.135   0.030  0.00  0.00    +0.041 A 
ATOM     25  C   UNL     1      -0.050   3.849   0.022  0.00  0.00    +0.021 A 
ATOM     26  C   UNL     1       1.159   3.183   0.008  0.00  0.00    +0.013 A 
ATOM     27 CL   UNL     1      -2.753   3.978   0.048  0.00  0.00    -0.084 Cl
ENDBRANCH  18  21
ENDBRANCH   3  16
TORSDOF 3
