REMARK  Name = ZINC08793522
REMARK  10 active torsions:
REMARK  status: ('A' for Active; 'I' for Inactive)
REMARK    1  A    between atoms: C_4  and  C_7
REMARK    2  A    between atoms: C_7  and  C_8
REMARK    3  A    between atoms: C_8  and  N_9
REMARK    4  A    between atoms: C_10  and  C_25
REMARK    5  A    between atoms: C_13  and  S_14
REMARK    6  A    between atoms: S_14  and  C_15
REMARK    7  A    between atoms: C_15  and  C_16
REMARK    8  A    between atoms: C_19  and  N_22
REMARK    9  A    between atoms: C_25  and  N_26
REMARK   10  A    between atoms: C_27  and  C_29
REMARK                            x       y       z     vdW  Elec       q    Type
REMARK                         _______ _______ _______ _____ _____    ______ ____
ROOT
ATOM      1  N   UNL     1       2.047   0.663  -0.014  0.00  0.00    -0.304 N 
ATOM      2  C   UNL     1       1.232  -0.435  -0.012  0.00  0.00    +0.151 A 
ATOM      3  N   UNL     1       0.002  -0.004   0.002  0.00  0.00    -0.132 NA
ATOM      4  N   UNL     1      -0.015   1.281   0.009  0.00  0.00    -0.122 NA
ATOM      5  C   UNL     1       1.213   1.744  -0.000  0.00  0.00    +0.192 A 
ENDROOT
BRANCH   1   6
ATOM      6  C   UNL     1       3.512   0.676  -0.028  0.00  0.00    +0.130 C 
BRANCH   6   7
ATOM      7  C   UNL     1       4.008   0.689  -1.476  0.00  0.00    +0.057 C 
BRANCH   7  11
ATOM      8  C   UNL     1       8.279   0.728  -1.518  0.00  0.00    +0.000 A 
ATOM      9  C   UNL     1       7.599  -0.475  -1.518  0.00  0.00    +0.000 A 
ATOM     10  C   UNL     1       6.217  -0.488  -1.504  0.00  0.00    +0.004 A 
ATOM     11  C   UNL     1       5.515   0.703  -1.490  0.00  0.00    -0.046 A 
ATOM     12  C   UNL     1       6.195   1.906  -1.496  0.00  0.00    +0.004 A 
ATOM     13  C   UNL     1       7.577   1.919  -1.504  0.00  0.00    +0.000 A 
ENDBRANCH   7  11
ENDBRANCH   6   7
ENDBRANCH   1   6
BRANCH   5  14
ATOM     14  S   UNL     1       1.694   3.439   0.004  0.00  0.00    -0.081 S 
BRANCH  14  15
ATOM     15  C   UNL     1       0.066   4.228   0.024  0.00  0.00    +0.112 C 
BRANCH  15  16
ATOM     16  C   UNL     1       0.233   5.726   0.030  0.00  0.00    -0.037 A 
ATOM     17  C   UNL     1       0.316   6.407   1.230  0.00  0.00    +0.007 A 
ATOM     18  C   UNL     1       0.474   7.780   1.235  0.00  0.00    +0.033 A 
ATOM     19  C   UNL     1       0.539   8.473   0.041  0.00  0.00    +0.126 A 
ATOM     20  C   UNL     1       0.452   7.792  -1.159  0.00  0.00    +0.033 A 
ATOM     21  C   UNL     1       0.298   6.419  -1.164  0.00  0.00    +0.007 A 
BRANCH  19  22
ATOM     22  N   UNL     1       0.704   9.944   0.047  0.00  0.00    +0.056 N 
ATOM     23  O   UNL     1       0.762  10.555  -1.005  0.00  0.00    -0.126 OA
ATOM     24  O   UNL     1       0.781  10.544   1.104  0.00  0.00    -0.126 OA
ENDBRANCH  19  22
ENDBRANCH  15  16
ENDBRANCH  14  15
ENDBRANCH   5  14
BRANCH   2  25
ATOM     25  C   UNL     1       1.673  -1.875  -0.024  0.00  0.00    +0.180 C 
BRANCH  25  26
ATOM     26  N   UNL     1       1.803  -2.335  -1.410  0.00  0.00    -0.308 N 
ATOM     27  C   UNL     1       2.189  -3.600  -1.667  0.00  0.00    +0.220 C 
ATOM     28  O   UNL     1       2.429  -4.359  -0.751  0.00  0.00    -0.275 OA
ATOM     29  H   UNL     1       1.611  -1.728  -2.142  0.00  0.00    +0.149 HD
BRANCH  27  30
ATOM     30  C   UNL     1       2.322  -4.072  -3.092  0.00  0.00    +0.048 C 
ATOM     31  C   UNL     1       0.971  -3.947  -3.799  0.00  0.00    +0.019 C 
ATOM     32  C   UNL     1       1.106  -4.426  -5.245  0.00  0.00    -0.009 C 
ATOM     33  C   UNL     1       1.554  -5.889  -5.258  0.00  0.00    +0.007 C 
ATOM     34  C   UNL     1       2.905  -6.015  -4.551  0.00  0.00    -0.009 C 
ATOM     35  C   UNL     1       2.770  -5.535  -3.104  0.00  0.00    +0.019 C 
ATOM     36  C   UNL     1       3.943  -5.157  -5.277  0.00  0.00    +0.007 C 
ATOM     37  C   UNL     1       3.495  -3.694  -5.265  0.00  0.00    -0.009 C 
ATOM     38  C   UNL     1       2.144  -3.569  -5.972  0.00  0.00    +0.007 C 
ATOM     39  C   UNL     1       3.360  -3.215  -3.818  0.00  0.00    +0.019 C 
ENDBRANCH  27  30
ENDBRANCH  25  26
ENDBRANCH   2  25
TORSDOF 10
