REMARK  Name = ZINC35452482
REMARK  9 active torsions:
REMARK  status: ('A' for Active; 'I' for Inactive)
REMARK    1  A    between atoms: C_1  and  C_2
REMARK    2  A    between atoms: C_7  and  S_8
REMARK    3  A    between atoms: S_8  and  N_11
REMARK    4  A    between atoms: N_11  and  C_12
REMARK    5  A    between atoms: N_11  and  C_13
REMARK    6  A    between atoms: C_13  and  C_14
REMARK    7  A    between atoms: N_16  and  C_17
REMARK    8  A    between atoms: C_17  and  C_18
REMARK    9  A    between atoms: C_26  and  C_31
REMARK                            x       y       z     vdW  Elec       q    Type
REMARK                         _______ _______ _______ _____ _____    ______ ____
ROOT
ATOM      1  S   UNL     1       0.319   0.113   2.464  0.00  0.00    +0.061 S 
ATOM      2  O   UNL     1      -0.824   0.935   2.273  0.00  0.00    -0.153 OA
ATOM      3  O   UNL     1       0.416  -0.821   3.531  0.00  0.00    -0.153 OA
ENDROOT
BRANCH   1  10
ATOM      4  C   UNL     1       0.234   1.333  -0.296  0.00  0.00    +0.046 C 
ATOM      5  C   UNL     1       0.481  -0.153  -0.246  0.00  0.00    -0.022 A 
ATOM      6  C   UNL     1       0.657  -0.863  -1.420  0.00  0.00    +0.032 A 
ATOM      7  C   UNL     1       0.884  -2.228  -1.372  0.00  0.00    +0.076 A 
ATOM      8  C   UNL     1       0.933  -2.883  -0.142  0.00  0.00    +0.145 A 
ATOM      9  C   UNL     1       0.757  -2.166   1.028  0.00  0.00    +0.076 A 
ATOM     10  C   UNL     1       0.537  -0.801   0.974  0.00  0.00    +0.112 A 
ATOM     11  O   UNL     1       1.154  -4.224  -0.107  0.00  0.00    -0.478 OA
ATOM     12  C   UNL     1       0.631  -4.990  -1.195  0.00  0.00    +0.256 C 
ATOM     13  C   UNL     1       0.969  -4.313  -2.499  0.00  0.00    +0.258 C 
ATOM     14  O   UNL     1       1.152  -4.975  -3.499  0.00  0.00    -0.271 OA
ATOM     15  N   UNL     1       1.066  -2.967  -2.550  0.00  0.00    -0.280 N 
ATOM     16  C   UNL     1       1.248  -6.391  -1.175  0.00  0.00    +0.062 C 
ATOM     17  H   UNL     1       1.258  -2.518  -3.388  0.00  0.00    +0.155 HD
ENDBRANCH   1  10
BRANCH   1  18
ATOM     18  N   UNL     1       1.616   1.132   2.607  0.00  0.00    -0.171 NA
ATOM     19  C   UNL     1       1.501   2.529   2.181  0.00  0.00    +0.132 C 
BRANCH  18  20
ATOM     20  C   UNL     1       2.879   0.637   3.160  0.00  0.00    +0.204 C 
BRANCH  20  21
ATOM     21  C   UNL     1       3.790   0.218   2.035  0.00  0.00    +0.229 C 
ATOM     22  O   UNL     1       3.421   0.322   0.885  0.00  0.00    -0.274 OA
ATOM     23  N   UNL     1       5.015  -0.274   2.307  0.00  0.00    -0.310 N 
ATOM     24  H   UNL     1       5.311  -0.357   3.228  0.00  0.00    +0.149 HD
BRANCH  23  25
ATOM     25  C   UNL     1       5.901  -0.681   1.214  0.00  0.00    +0.139 C 
BRANCH  25  26
ATOM     26  C   UNL     1       7.200  -1.191   1.782  0.00  0.00    -0.030 A 
ATOM     27  C   UNL     1       8.248  -0.316   2.004  0.00  0.00    +0.006 A 
ATOM     28  C   UNL     1       9.440  -0.783   2.525  0.00  0.00    +0.020 A 
ATOM     29  C   UNL     1       9.584  -2.126   2.826  0.00  0.00    +0.041 A 
ATOM     30  C   UNL     1       8.535  -3.000   2.604  0.00  0.00    +0.020 A 
ATOM     31  C   UNL     1       7.342  -2.531   2.088  0.00  0.00    +0.006 A 
ATOM     32 CL   UNL     1      11.081  -2.713   3.481  0.00  0.00    -0.084 Cl
ENDBRANCH  25  26
ENDBRANCH  23  25
ENDBRANCH  20  21
ENDBRANCH  18  20
ENDBRANCH   1  18
TORSDOF 6
