REMARK  Name = ZINC40241590
REMARK  5 active torsions:
REMARK  status: ('A' for Active; 'I' for Inactive)
REMARK    1  A    between atoms: C_1  and  O_2
REMARK    2  A    between atoms: O_2  and  C_3
REMARK    3  A    between atoms: C_8  and  C_9
REMARK    4  A    between atoms: C_9  and  C_11
REMARK    5  A    between atoms: C_9  and  O_20
REMARK                            x       y       z     vdW  Elec       q    Type
REMARK                         _______ _______ _______ _____ _____    ______ ____
ROOT
ATOM      1  C   UNL     1       0.019  -2.829  -0.014  0.00  0.00    +0.178 C 
ENDROOT
BRANCH   1   2
ATOM      2  C   UNL     1       0.495  -2.985  -1.435  0.00  0.00    -0.011 A 
ATOM      3  C   UNL     1      -0.083  -3.935  -2.256  0.00  0.00    +0.010 A 
ATOM      4  C   UNL     1       0.351  -4.082  -3.560  0.00  0.00    +0.050 A 
ATOM      5  C   UNL     1       1.367  -3.276  -4.048  0.00  0.00    +0.166 A 
ATOM      6  C   UNL     1       1.949  -2.318  -3.221  0.00  0.00    +0.167 A 
ATOM      7  C   UNL     1       1.506  -2.173  -1.917  0.00  0.00    +0.056 A 
ATOM      8  O   UNL     1       2.915  -1.661  -3.927  0.00  0.00    -0.453 OA
ATOM      9  C   UNL     1       3.197  -2.499  -5.064  0.00  0.00    +0.466 C 
ATOM     10  O   UNL     1       1.968  -3.218  -5.272  0.00  0.00    -0.453 OA
ENDBRANCH   1   2
BRANCH   1  16
ATOM     11  C   UNL     1      -1.200  -0.637   0.010  0.00  0.00    +0.126 A 
ATOM     12  C   UNL     1      -2.375   0.101   0.019  0.00  0.00    +0.047 A 
ATOM     13  C   UNL     1      -3.596  -0.544   0.028  0.00  0.00    +0.019 A 
ATOM     14  C   UNL     1      -3.648  -1.927   0.027  0.00  0.00    +0.018 A 
ATOM     15  C   UNL     1      -2.479  -2.666   0.018  0.00  0.00    +0.025 A 
ATOM     16  C   UNL     1      -1.255  -2.023   0.003  0.00  0.00    +0.028 A 
ATOM     17 BR   UNL     1      -5.321  -2.808   0.038  0.00  0.00    -0.050 Br
BRANCH  11  19
ATOM     18  C   UNL     1      -0.017   1.425   0.010  0.00  0.00    +0.277 C 
ATOM     19  O   UNL     1       0.002  -0.004   0.002  0.00  0.00    -0.495 OA
ENDBRANCH  11  19
ENDBRANCH   1  16
BRANCH   1  20
ATOM     20  O   UNL     1      -0.225  -4.118   0.551  0.00  0.00    -0.382 OA
ATOM     21  H   UNL     1      -0.895  -4.633   0.081  0.00  0.00    +0.211 HD
ENDBRANCH   1  20
TORSDOF 4
