REMARK  Name = ZINC10660770
REMARK  14 active torsions:
REMARK  status: ('A' for Active; 'I' for Inactive)
REMARK    1  A    between atoms: C_1  and  C_2
REMARK    2  A    between atoms: C_2  and  C_3
REMARK    3  A    between atoms: C_3  and  C_4
REMARK    4  A    between atoms: C_4  and  N_5
REMARK    5  A    between atoms: N_5  and  C_6
REMARK    6  A    between atoms: C_7  and  N_18
REMARK    7  A    between atoms: N_8  and  C_15
REMARK    8  A    between atoms: C_15  and  C_16
REMARK    9  A    between atoms: C_16  and  C_17
REMARK   10  A    between atoms: C_19  and  C_21
REMARK   11  A    between atoms: C_21  and  O_22
REMARK   12  A    between atoms: O_22  and  C_23
REMARK   13  A    between atoms: C_23  and  C_25
REMARK   14  A    between atoms: C_34  and  O_35
REMARK                            x       y       z     vdW  Elec       q    Type
REMARK                         _______ _______ _______ _____ _____    ______ ____
ROOT
ATOM      1  N   UNL     1       4.750   1.634   0.022  0.00  0.00    -0.261 N 
ATOM      2  C   UNL     1       3.540   2.190   0.243  0.00  0.00    +0.258 C 
ATOM      3  O   UNL     1       3.449   3.383   0.448  0.00  0.00    -0.272 OA
ENDROOT
BRANCH   1   4
ATOM      4  C   UNL     1       5.896   2.452  -0.066  0.00  0.00    +0.140 A 
ATOM      5  C   UNL     1       6.016   3.387  -1.074  0.00  0.00    +0.127 A 
ATOM      6  N   UNL     1       7.145   4.169  -1.134  0.00  0.00    -0.280 N 
ATOM      7  C   UNL     1       8.123   4.024  -0.221  0.00  0.00    +0.331 A 
ATOM      8  O   UNL     1       9.114   4.725  -0.291  0.00  0.00    -0.246 OA
ATOM      9  N   UNL     1       8.024   3.119   0.768  0.00  0.00    -0.273 N 
ATOM     10  H   UNL     1       8.766   3.028   1.432  0.00  0.00    +0.173 HD
ATOM     11  C   UNL     1       6.935   2.332   0.875  0.00  0.00    +0.277 A 
ATOM     12  O   UNL     1       6.853   1.517   1.779  0.00  0.00    -0.266 OA
BRANCH   5  13
ATOM     13  N   UNL     1       5.018   3.534  -2.007  0.00  0.00    -0.343 N 
ATOM     14  H   UNL     1       4.276   2.909  -2.028  0.00  0.00    +0.144 HD
ATOM     15  H   UNL     1       5.054   4.264  -2.646  0.00  0.00    +0.144 HD
ENDBRANCH   5  13
BRANCH   6  16
ATOM     16  C   UNL     1       7.285   5.166  -2.198  0.00  0.00    +0.128 C 
BRANCH  16  17
ATOM     17  C   UNL     1       6.696   6.498  -1.730  0.00  0.00    +0.018 C 
ATOM     18  C   UNL     1       6.842   7.540  -2.841  0.00  0.00    +0.005 C 
ENDBRANCH  16  17
ENDBRANCH   6  16
ENDBRANCH   1   4
BRANCH   1  19
ATOM     19  C   UNL     1       4.872   0.182  -0.126  0.00  0.00    +0.114 C 
BRANCH  19  20
ATOM     20  C   UNL     1       4.774  -0.190  -1.607  0.00  0.00    +0.019 C 
BRANCH  20  22
ATOM     21  C   UNL     1       4.804  -2.078  -3.243  0.00  0.00    +0.004 C 
ATOM     22  C   UNL     1       4.902  -1.706  -1.762  0.00  0.00    -0.002 C 
ENDBRANCH  20  22
ENDBRANCH  19  20
ENDBRANCH   1  19
BRANCH   2  23
ATOM     23  C   UNL     1       2.303   1.330   0.234  0.00  0.00    +0.328 C 
BRANCH  23  24
ATOM     24  O   UNL     1       1.137   2.156   0.494  0.00  0.00    -0.452 OA
BRANCH  24  25
ATOM     25  C   UNL     1      -0.059   1.536   0.521  0.00  0.00    +0.343 C 
ATOM     26  O   UNL     1      -0.126   0.338   0.331  0.00  0.00    -0.245 OA
BRANCH  25  27
ATOM     27  C   UNL     1      -1.287   2.313   0.773  0.00  0.00    +0.101 A 
ATOM     28  C   UNL     1      -1.204   3.679   0.995  0.00  0.00    +0.027 A 
ATOM     29  C   UNL     1      -2.376   4.412   1.229  0.00  0.00    -0.017 A 
ATOM     30  C   UNL     1      -2.330   5.801   1.452  0.00  0.00    +0.008 A 
ATOM     31  C   UNL     1      -3.483   6.485   1.682  0.00  0.00    +0.001 A 
ATOM     32  C   UNL     1      -4.714   5.830   1.701  0.00  0.00    +0.001 A 
ATOM     33  C   UNL     1      -4.798   4.488   1.489  0.00  0.00    +0.008 A 
ATOM     34  C   UNL     1      -3.629   3.746   1.248  0.00  0.00    -0.014 A 
ATOM     35  C   UNL     1      -3.684   2.360   1.026  0.00  0.00    +0.054 A 
ATOM     36  C   UNL     1      -2.538   1.660   0.794  0.00  0.00    +0.131 A 
BRANCH  36  37
ATOM     37  O   UNL     1      -2.600   0.321   0.582  0.00  0.00    -0.506 OA
ATOM     38  H   UNL     1      -2.529  -0.209   1.388  0.00  0.00    +0.292 HD
ENDBRANCH  36  37
ENDBRANCH  25  27
ENDBRANCH  24  25
ENDBRANCH  23  24
ENDBRANCH   2  23
TORSDOF 12
