REMARK  Name = ZINC62944738
REMARK  5 active torsions:
REMARK  status: ('A' for Active; 'I' for Inactive)
REMARK    1  A    between atoms: C_1  and  C_2
REMARK    2  A    between atoms: C_2  and  C_3
REMARK    3  A    between atoms: C_3  and  C_5
REMARK    4  A    between atoms: C_3  and  N_9
REMARK    5  A    between atoms: N_6  and  O_7
REMARK                            x       y       z     vdW  Elec       q    Type
REMARK                         _______ _______ _______ _____ _____    ______ ____
ROOT
ATOM      1  N   UNL     1      -2.032  -0.064  -1.361  0.00  0.00    -0.289 NA
ATOM      2  C   UNL     1      -3.445  -0.402  -1.426  0.00  0.00    +0.086 C 
ATOM      3  C   UNL     1      -4.036  -0.380  -2.821  0.00  0.00    +0.020 C 
ATOM      4  C   UNL     1      -4.080   1.050  -3.369  0.00  0.00    +0.037 C 
ATOM      5  C   UNL     1      -2.729   1.363  -3.979  0.00  0.00    -0.043 A 
ATOM      6  C   UNL     1      -2.608   1.508  -5.348  0.00  0.00    +0.004 A 
ATOM      7  C   UNL     1      -1.372   1.791  -5.899  0.00  0.00    +0.000 A 
ATOM      8  C   UNL     1      -0.265   1.928  -5.082  0.00  0.00    +0.000 A 
ATOM      9  C   UNL     1      -0.392   1.783  -3.712  0.00  0.00    +0.005 A 
ATOM     10  C   UNL     1      -1.631   1.502  -3.166  0.00  0.00    -0.030 A 
ATOM     11  C   UNL     1      -1.773   1.350  -1.666  0.00  0.00    +0.120 C 
ENDROOT
BRANCH   1  12
ATOM     12  C   UNL     1      -1.461  -0.434  -0.059  0.00  0.00    +0.123 C 
BRANCH  12  13
ATOM     13  C   UNL     1      -1.713  -1.897   0.202  0.00  0.00    +0.149 C 
ATOM     14  N   UNL     1      -1.753  -2.339   1.415  0.00  0.00    -0.075 NA
ATOM     15  N   UNL     1      -1.902  -2.762  -0.853  0.00  0.00    -0.343 N 
ATOM     16  H   UNL     1      -1.872  -2.430  -1.764  0.00  0.00    +0.144 HD
ATOM     17  H   UNL     1      -2.065  -3.704  -0.685  0.00  0.00    +0.144 HD
BRANCH  14  18
ATOM     18  O   UNL     1      -1.990  -3.713   1.660  0.00  0.00    -0.408 OA
ATOM     19  H   UNL     1      -2.002  -3.949   2.598  0.00  0.00    +0.328 HD
ENDBRANCH  14  18
ENDBRANCH  12  13
BRANCH  12  21
ATOM     20  C   UNL     1       0.691  -0.944  -1.223  0.00  0.00    +0.006 C 
ATOM     21  C   UNL     1       0.047  -0.171  -0.070  0.00  0.00    +0.023 C 
ENDBRANCH  12  21
ENDBRANCH   1  12
TORSDOF 4
