REMARK  Name = ZINC46551475
REMARK  8 active torsions:
REMARK  status: ('A' for Active; 'I' for Inactive)
REMARK    1  A    between atoms: C_1  and  C_2
REMARK    2  A    between atoms: C_2  and  C_4
REMARK    3  A    between atoms: C_2  and  N_22
REMARK    4  A    between atoms: N_6  and  C_7
REMARK    5  A    between atoms: C_12  and  C_13
REMARK    6  A    between atoms: N_15  and  C_16
REMARK    7  A    between atoms: C_16  and  C_17
REMARK    8  A    between atoms: N_25  and  C_28
REMARK                            x       y       z     vdW  Elec       q    Type
REMARK                         _______ _______ _______ _____ _____    ______ ____
ROOT
ATOM      1  C   UNL     1       0.587  -0.494   1.029  0.00  0.00    +0.203 C 
ATOM      2  O   UNL     1       1.444  -1.323   0.806  0.00  0.00    -0.277 OA
ATOM      3  N   UNL     1       0.376  -0.065   2.289  0.00  0.00    -0.286 N 
ATOM      4  H   UNL     1      -0.355   0.545   2.478  0.00  0.00    +0.155 HD
ENDROOT
BRANCH   3   5
ATOM      5  C   UNL     1       1.206  -0.497   3.321  0.00  0.00    +0.046 A 
ATOM      6  C   UNL     1       2.537  -0.799   3.064  0.00  0.00    +0.024 A 
ATOM      7  C   UNL     1       3.359  -1.228   4.087  0.00  0.00    +0.002 A 
ATOM      8  C   UNL     1       2.864  -1.359   5.375  0.00  0.00    +0.001 A 
ATOM      9  C   UNL     1       1.546  -1.064   5.648  0.00  0.00    +0.015 A 
ATOM     10  C   UNL     1       0.704  -0.624   4.624  0.00  0.00    +0.058 A 
BRANCH  10  11
ATOM     11  C   UNL     1      -0.706  -0.300   4.911  0.00  0.00    +0.246 C 
ATOM     12  O   UNL     1      -1.464  -0.026   4.000  0.00  0.00    -0.270 OA
ATOM     13  N   UNL     1      -1.155  -0.309   6.182  0.00  0.00    -0.304 N 
ATOM     14  H   UNL     1      -0.550  -0.528   6.908  0.00  0.00    +0.149 HD
BRANCH  13  15
ATOM     15  C   UNL     1      -2.555   0.013   6.466  0.00  0.00    +0.179 C 
BRANCH  15  16
ATOM     16  C   UNL     1      -2.797  -0.067   7.952  0.00  0.00    +0.122 A 
ATOM     17  C   UNL     1      -2.666   0.947   8.826  0.00  0.00    +0.046 A 
ATOM     18  C   UNL     1      -2.989   0.431  10.102  0.00  0.00    +0.041 A 
ATOM     19  C   UNL     1      -3.298  -0.867   9.931  0.00  0.00    +0.195 A 
ATOM     20  O   UNL     1      -3.186  -1.162   8.626  0.00  0.00    -0.466 OA
ENDBRANCH  15  16
ENDBRANCH  13  15
ENDBRANCH  10  11
ENDBRANCH   3   5
BRANCH   1  22
ATOM     21  C   UNL     1       0.427   1.312  -0.662  0.00  0.00    -0.004 C 
ATOM     22  C   UNL     1      -0.243   0.056  -0.103  0.00  0.00    +0.017 C 
BRANCH  22  23
ATOM     23  N   UNL     1      -0.353  -0.954  -1.164  0.00  0.00    +0.389 N 
ATOM     24  C   UNL     1      -1.102  -0.393  -2.295  0.00  0.00    -0.059 C 
ATOM     25  C   UNL     1      -1.120  -1.403  -3.447  0.00  0.00    +0.086 C 
ATOM     26  N   UNL     1      -1.649  -2.678  -2.941  0.00  0.00    -0.332 N 
ATOM     27  C   UNL     1      -1.062  -3.234  -1.711  0.00  0.00    +0.086 C 
ATOM     28  C   UNL     1      -1.048  -2.137  -0.641  0.00  0.00    -0.059 C 
ATOM     29  H   UNL     1       0.571  -1.217  -1.473  0.00  0.00    -0.081 HD
BRANCH  26  30
ATOM     30  C   UNL     1      -2.681  -3.344  -3.609  0.00  0.00    +0.048 A 
ATOM     31  C   UNL     1      -2.384  -4.277  -4.594  0.00  0.00    +0.024 A 
ATOM     32  C   UNL     1      -3.406  -4.933  -5.252  0.00  0.00    +0.002 A 
ATOM     33  C   UNL     1      -4.724  -4.662  -4.931  0.00  0.00    +0.002 A 
ATOM     34  C   UNL     1      -5.024  -3.734  -3.951  0.00  0.00    +0.022 A 
ATOM     35  C   UNL     1      -4.006  -3.078  -3.285  0.00  0.00    +0.062 A 
ATOM     36 CL   UNL     1      -4.383  -1.918  -2.050  0.00  0.00    -0.082 Cl
ENDBRANCH  26  30
ENDBRANCH  22  23
ENDBRANCH   1  22
TORSDOF 7
