REMARK  Name = ZINC46642933
REMARK  6 active torsions:
REMARK  status: ('A' for Active; 'I' for Inactive)
REMARK    1  A    between atoms: C_7  and  C_12
REMARK    2  A    between atoms: C_12  and  C_13
REMARK    3  A    between atoms: N_15  and  C_16
REMARK    4  A    between atoms: C_20  and  S_22
REMARK    5  A    between atoms: S_22  and  N_25
REMARK    6  A    between atoms: N_25  and  C_26
REMARK                            x       y       z     vdW  Elec       q    Type
REMARK                         _______ _______ _______ _____ _____    ______ ____
ROOT
ATOM      1  C   UNL     1       1.279  -6.466   2.068  0.00  0.00    +0.035 A 
ATOM      2  C   UNL     1       2.024  -6.924   0.988  0.00  0.00    +0.023 A 
ATOM      3  C   UNL     1       2.375  -8.257   0.909  0.00  0.00    +0.004 A 
ATOM      4  C   UNL     1       1.985  -9.136   1.903  0.00  0.00    +0.029 A 
ATOM      5  C   UNL     1       1.244  -8.684   2.978  0.00  0.00    +0.112 A 
ATOM      6  C   UNL     1       0.895  -7.350   3.067  0.00  0.00    +0.052 A 
ENDROOT
BRANCH   1   9
ATOM      7  C   UNL     1       0.871  -4.505   3.351  0.00  0.00    +0.221 C 
ATOM      8  O   UNL     1       1.052  -5.145   4.365  0.00  0.00    -0.275 OA
ATOM      9  N   UNL     1       0.922  -5.116   2.151  0.00  0.00    -0.285 N 
ATOM     10  H   UNL     1       0.711  -4.620   1.344  0.00  0.00    +0.155 HD
BRANCH   7  11
ATOM     11  C   UNL     1       0.588  -3.027   3.433  0.00  0.00    +0.145 C 
BRANCH  11  18
ATOM     12  C   UNL     1       0.751   1.266   4.780  0.00  0.00    +0.000 A 
ATOM     13  C   UNL     1      -0.416   1.497   5.488  0.00  0.00    +0.001 A 
ATOM     14  C   UNL     1      -1.170   0.440   5.952  0.00  0.00    +0.015 A 
ATOM     15  C   UNL     1      -0.754  -0.869   5.705  0.00  0.00    +0.066 A 
ATOM     16  C   UNL     1       0.426  -1.092   4.989  0.00  0.00    +0.007 A 
ATOM     17  C   UNL     1       1.171  -0.030   4.532  0.00  0.00    +0.008 A 
ATOM     18  C   UNL     1       0.586  -2.589   4.899  0.00  0.00    +0.216 C 
ATOM     19  O   UNL     1      -0.532  -3.164   5.580  0.00  0.00    -0.453 OA
ATOM     20  C   UNL     1      -1.320  -2.185   6.054  0.00  0.00    +0.340 C 
ATOM     21  O   UNL     1      -2.347  -2.358   6.679  0.00  0.00    -0.245 OA
ENDBRANCH  11  18
ENDBRANCH   7  11
ENDBRANCH   1   9
BRANCH   5  22
ATOM     22  S   UNL     1       0.749  -9.809   4.242  0.00  0.00    +0.092 S 
ATOM     23  O   UNL     1      -0.399  -9.245   4.860  0.00  0.00    -0.148 OA
ATOM     24  O   UNL     1       0.740 -11.102   3.653  0.00  0.00    -0.148 OA
BRANCH  22  25
ATOM     25  N   UNL     1       1.946  -9.817   5.386  0.00  0.00    -0.096 NA
BRANCH  25  26
ATOM     26  C   UNL     1       1.825 -10.627   6.518  0.00  0.00    +0.093 A 
ATOM     27  C   UNL     1       0.704 -11.430   6.683  0.00  0.00    +0.028 A 
ATOM     28  C   UNL     1       0.588 -12.230   7.802  0.00  0.00    +0.002 A 
ATOM     29  C   UNL     1       1.586 -12.232   8.760  0.00  0.00    +0.002 A 
ATOM     30  C   UNL     1       2.704 -11.434   8.600  0.00  0.00    +0.022 A 
ATOM     31  C   UNL     1       2.829 -10.636   7.479  0.00  0.00    +0.065 A 
ATOM     32 CL   UNL     1       4.236  -9.639   7.275  0.00  0.00    -0.082 Cl
ENDBRANCH  25  26
ENDBRANCH  22  25
ENDBRANCH   5  22
TORSDOF 6
