REMARK  Name = ZINC00580947
REMARK  6 active torsions:
REMARK  status: ('A' for Active; 'I' for Inactive)
REMARK    1  A    between atoms: C_1  and  C_2
REMARK    2  A    between atoms: C_2  and  O_3
REMARK    3  A    between atoms: O_3  and  C_4
REMARK    4  A    between atoms: C_6  and  C_12
REMARK    5  A    between atoms: C_9  and  O_10
REMARK    6  A    between atoms: N_13  and  N_14
REMARK                            x       y       z     vdW  Elec       q    Type
REMARK                         _______ _______ _______ _____ _____    ______ ____
ROOT
ATOM      1  C   UNL     1      -3.122   6.575   0.053  0.00  0.00    +0.163 A 
ATOM      2  C   UNL     1      -2.010   5.753   0.043  0.00  0.00    +0.059 A 
ATOM      3  C   UNL     1      -2.171   4.365   0.037  0.00  0.00    -0.000 A 
ATOM      4  C   UNL     1      -3.455   3.814   0.034  0.00  0.00    +0.028 A 
ATOM      5  C   UNL     1      -4.560   4.639   0.050  0.00  0.00    +0.063 A 
ATOM      6  C   UNL     1      -4.399   6.018   0.056  0.00  0.00    +0.173 A 
ATOM      7 BR   UNL     1      -6.297   3.892   0.054  0.00  0.00    -0.046 Br
ENDROOT
BRANCH   6   8
ATOM      8  O   UNL     1      -5.491   6.828   0.066  0.00  0.00    -0.503 OA
ATOM      9  H   UNL     1      -5.812   7.067  -0.814  0.00  0.00    +0.292 HD
ENDBRANCH   6   8
BRANCH   3  10
ATOM     10  C   UNL     1      -0.989   3.485   0.026  0.00  0.00    +0.143 C 
ATOM     11  N   UNL     1      -1.140   2.195   0.020  0.00  0.00    -0.152 NA
BRANCH  11  12
ATOM     12  N   UNL     1      -0.016   1.359   0.009  0.00  0.00    -0.095 N 
ATOM     13  C   UNL     1       0.002  -0.004   0.002  0.00  0.00    +0.255 A 
ATOM     14  N   UNL     1       1.266  -0.370  -0.012  0.00  0.00    -0.091 NA
ATOM     15  N   UNL     1       2.033   0.659  -0.014  0.00  0.00    -0.020 NA
ATOM     16  N   UNL     1       1.336   1.743  -0.001  0.00  0.00    -0.020 NA
ATOM     17  N   UNL     1      -1.099  -0.843   0.008  0.00  0.00    -0.325 N 
ATOM     18  H   UNL     1      -1.994  -0.469   0.018  0.00  0.00    +0.145 HD
ATOM     19  H   UNL     1      -0.975  -1.805   0.001  0.00  0.00    +0.145 HD
ENDBRANCH  11  12
ENDBRANCH   3  10
BRANCH   1  20
ATOM     20  O   UNL     1      -2.969   7.926   0.060  0.00  0.00    -0.489 OA
BRANCH  20  22
ATOM     21  C   UNL     1      -1.660   9.957   0.064  0.00  0.00    +0.048 C 
ATOM     22  C   UNL     1      -1.631   8.427   0.056  0.00  0.00    +0.226 C 
ENDBRANCH  20  22
ENDBRANCH   1  20
TORSDOF 5
