REMARK  Name = ZINC39664133
REMARK  11 active torsions:
REMARK  status: ('A' for Active; 'I' for Inactive)
REMARK    1  A    between atoms: C_1  and  C_2
REMARK    2  A    between atoms: C_2  and  C_3
REMARK    3  A    between atoms: C_3  and  C_5
REMARK    4  A    between atoms: C_3  and  C_11
REMARK    5  A    between atoms: C_15  and  C_24
REMARK    6  A    between atoms: N_26  and  C_27
REMARK    7  A    between atoms: C_27  and  C_28
REMARK    8  A    between atoms: C_28  and  C_30
REMARK    9  A    between atoms: C_28  and  N_38
REMARK   10  A    between atoms: C_33  and  O_36
REMARK   11  A    between atoms: O_36  and  C_37
REMARK                            x       y       z     vdW  Elec       q    Type
REMARK                         _______ _______ _______ _____ _____    ______ ____
ROOT
ATOM      1  C   UNL     1      -1.007  -1.172   0.295  0.00  0.00    +0.223 C 
ATOM      2  O   UNL     1      -1.435  -1.741  -0.687  0.00  0.00    -0.275 OA
ATOM      3  N   UNL     1      -0.495  -1.885   1.317  0.00  0.00    -0.300 N 
ATOM      4  C   UNL     1       0.064  -1.374   2.591  0.00  0.00    +0.121 C 
ATOM      5  C   UNL     1      -0.430  -2.371   3.662  0.00  0.00    +0.100 C 
ATOM      6  C   UNL     1      -0.709  -3.672   2.890  0.00  0.00    -0.004 C 
ATOM      7  C   UNL     1      -0.371  -3.359   1.425  0.00  0.00    +0.115 C 
ATOM      8  C   UNL     1       0.182  -4.796   3.410  0.00  0.00    -0.010 C 
ATOM      9  C   UNL     1      -0.154  -6.092   2.666  0.00  0.00    -0.082 C 
ATOM     10  N   UNL     1      -1.568  -6.425   2.874  0.00  0.00    +0.379 N 
ATOM     11  C   UNL     1      -2.419  -5.383   2.288  0.00  0.00    -0.082 C 
ATOM     12  C   UNL     1      -2.179  -4.057   3.015  0.00  0.00    -0.010 C 
ATOM     13  H   UNL     1      -1.772  -7.310   2.434  0.00  0.00    -0.086 HD
ATOM     14  H   UNL     1      -1.755  -6.494   3.863  0.00  0.00    -0.086 HD
ENDROOT
BRANCH   5  15
ATOM     15  C   UNL     1      -1.693  -1.863   4.310  0.00  0.00    +0.218 C 
ATOM     16  O   UNL     1      -2.442  -1.138   3.690  0.00  0.00    -0.275 OA
ATOM     17  N   UNL     1      -1.989  -2.213   5.577  0.00  0.00    -0.316 N 
ATOM     18  H   UNL     1      -1.389  -2.792   6.073  0.00  0.00    +0.149 HD
BRANCH  17  19
ATOM     19  C   UNL     1      -3.216  -1.718   6.206  0.00  0.00    +0.093 C 
BRANCH  19  20
ATOM     20  C   UNL     1      -3.243  -2.145   7.675  0.00  0.00    -0.020 C 
BRANCH  20  21
ATOM     21  C   UNL     1      -2.123  -1.464   8.417  0.00  0.00    -0.059 A 
ATOM     22  C   UNL     1      -2.268  -0.154   8.836  0.00  0.00    +0.005 A 
ATOM     23  C   UNL     1      -1.242   0.473   9.516  0.00  0.00    +0.046 A 
ATOM     24  C   UNL     1      -0.065  -0.213   9.779  0.00  0.00    +0.120 A 
ATOM     25  C   UNL     1       0.078  -1.527   9.359  0.00  0.00    +0.046 A 
ATOM     26  C   UNL     1      -0.953  -2.151   8.684  0.00  0.00    +0.005 A 
BRANCH  24  27
ATOM     27  O   UNL     1       0.946   0.402  10.448  0.00  0.00    -0.495 OA
ATOM     28  C   UNL     1       2.128  -0.365  10.684  0.00  0.00    +0.277 C 
ENDBRANCH  24  27
ENDBRANCH  20  21
BRANCH  20  29
ATOM     29  N   UNL     1      -4.530  -1.762   8.272  0.00  0.00    +0.385 N 
ATOM     30  C   UNL     1      -5.640  -2.493   7.609  0.00  0.00    -0.078 C 
ATOM     31  C   UNL     1      -6.778  -2.438   8.659  0.00  0.00    -0.020 C 
ATOM     32  C   UNL     1      -6.021  -2.596   9.998  0.00  0.00    -0.020 C 
ATOM     33  C   UNL     1      -4.573  -2.167   9.694  0.00  0.00    -0.078 C 
ATOM     34  H   UNL     1      -4.669  -0.766   8.190  0.00  0.00    -0.081 HD
ENDBRANCH  20  29
ENDBRANCH  19  20
ENDBRANCH  17  19
ENDBRANCH   5  15
BRANCH   1  35
ATOM     35  C   UNL     1      -1.047   0.333   0.371  0.00  0.00    +0.105 C 
BRANCH  35  36
ATOM     36  C   UNL     1      -1.661   0.884  -0.890  0.00  0.00    -0.036 A 
ATOM     37  C   UNL     1      -1.076   0.623  -2.115  0.00  0.00    +0.004 A 
ATOM     38  C   UNL     1      -1.640   1.128  -3.271  0.00  0.00    +0.000 A 
ATOM     39  C   UNL     1      -2.788   1.894  -3.203  0.00  0.00    +0.000 A 
ATOM     40  C   UNL     1      -3.374   2.155  -1.978  0.00  0.00    +0.000 A 
ATOM     41  C   UNL     1      -2.813   1.645  -0.822  0.00  0.00    +0.004 A 
ENDBRANCH  35  36
BRANCH  35  43
ATOM     42  C   UNL     1       0.326   2.390   0.727  0.00  0.00    +0.005 C 
ATOM     43  C   UNL     1       0.376   0.874   0.524  0.00  0.00    +0.014 C 
ENDBRANCH  35  43
ENDBRANCH   1  35
TORSDOF 9
