REMARK  Name = ZINC05817896
REMARK  9 active torsions:
REMARK  status: ('A' for Active; 'I' for Inactive)
REMARK    1  A    between atoms: C_1  and  O_2
REMARK    2  A    between atoms: O_2  and  C_3
REMARK    3  A    between atoms: C_5  and  C_14
REMARK    4  A    between atoms: C_8  and  O_9
REMARK    5  A    between atoms: O_9  and  C_10
REMARK    6  A    between atoms: C_10  and  C_11
REMARK    7  A    between atoms: C_17  and  C_28
REMARK    8  A    between atoms: C_23  and  N_27
REMARK    9  A    between atoms: C_24  and  C_25
REMARK                            x       y       z     vdW  Elec       q    Type
REMARK                         _______ _______ _______ _____ _____    ______ ____
ROOT
ATOM      1  C   UNL     1       2.403   0.379  -4.230  0.00  0.00    +0.102 C 
ATOM      2  C   UNL     1       3.872   0.066  -4.342  0.00  0.00    +0.054 A 
ATOM      3  C   UNL     1       4.918   0.407  -3.479  0.00  0.00    +0.100 A 
ATOM      4  N   UNL     1       6.035  -0.083  -3.982  0.00  0.00    -0.171 NA
ATOM      5  N   UNL     1       5.728  -0.747  -5.179  0.00  0.00    -0.246 N 
ATOM      6  H   UNL     1       6.360  -1.201  -5.758  0.00  0.00    +0.192 HD
ATOM      7  C   UNL     1       4.398  -0.644  -5.383  0.00  0.00    +0.223 A 
ATOM      8  O   UNL     1       3.639  -1.122  -6.400  0.00  0.00    -0.423 OA
ATOM      9  C   UNL     1       2.380  -0.652  -6.515  0.00  0.00    +0.200 C 
ATOM     10  C   UNL     1       1.749   0.053  -5.550  0.00  0.00    +0.098 C 
ENDROOT
BRANCH   1  13
ATOM     11  C   UNL     1       0.606  -0.608  -1.056  0.00  0.00    +0.162 A 
ATOM     12  C   UNL     1       1.173   0.159  -2.062  0.00  0.00    +0.054 A 
ATOM     13  C   UNL     1       1.787  -0.456  -3.137  0.00  0.00    -0.031 A 
ATOM     14  C   UNL     1       1.837  -1.836  -3.212  0.00  0.00    +0.008 A 
ATOM     15  C   UNL     1       1.273  -2.606  -2.212  0.00  0.00    +0.050 A 
ATOM     16  C   UNL     1       0.662  -1.996  -1.129  0.00  0.00    +0.163 A 
BRANCH  11  18
ATOM     17  C   UNL     1      -0.017   1.425   0.010  0.00  0.00    +0.277 C 
ATOM     18  O   UNL     1       0.002  -0.004   0.002  0.00  0.00    -0.491 OA
ENDBRANCH  11  18
BRANCH  16  19
ATOM     19  O   UNL     1       0.112  -2.753  -0.142  0.00  0.00    -0.479 OA
BRANCH  19  20
ATOM     20  C   UNL     1       0.206  -4.171  -0.283  0.00  0.00    +0.324 C 
BRANCH  20  21
ATOM     21  C   UNL     1      -0.453  -4.838   0.897  0.00  0.00    +0.248 C 
ATOM     22  O   UNL     1      -0.954  -4.165   1.772  0.00  0.00    -0.272 OA
ATOM     23  N   UNL     1      -0.485  -6.183   0.979  0.00  0.00    -0.327 N 
ATOM     24  H   UNL     1      -0.084  -6.722   0.279  0.00  0.00    +0.145 HD
ATOM     25  H   UNL     1      -0.910  -6.613   1.738  0.00  0.00    +0.145 HD
ENDBRANCH  20  21
ENDBRANCH  19  20
ENDBRANCH  16  19
ENDBRANCH   1  13
BRANCH   3  26
ATOM     26  C   UNL     1       4.793   1.183  -2.220  0.00  0.00    +0.003 A 
ATOM     27  C   UNL     1       3.856   2.209  -2.121  0.00  0.00    +0.010 A 
ATOM     28  C   UNL     1       3.745   2.928  -0.948  0.00  0.00    +0.001 A 
ATOM     29  C   UNL     1       4.561   2.630   0.128  0.00  0.00    +0.000 A 
ATOM     30  C   UNL     1       5.493   1.612   0.035  0.00  0.00    +0.001 A 
ATOM     31  C   UNL     1       5.609   0.884  -1.131  0.00  0.00    +0.010 A 
ENDBRANCH   3  26
BRANCH   9  32
ATOM     32  N   UNL     1       1.701  -0.902  -7.681  0.00  0.00    -0.328 N 
ATOM     33  H   UNL     1       2.127  -1.405  -8.393  0.00  0.00    +0.145 HD
ATOM     34  H   UNL     1       0.794  -0.577  -7.794  0.00  0.00    +0.145 HD
ENDBRANCH   9  32
BRANCH  10  35
ATOM     35  C   UNL     1       0.411   0.506  -5.787  0.00  0.00    +0.101 C 
ATOM     36  N   UNL     1      -0.650   0.866  -5.976  0.00  0.00    -0.191 NA
ENDBRANCH  10  35
TORSDOF 8
