REMARK  Name = ZINC63502972
REMARK  7 active torsions:
REMARK  status: ('A' for Active; 'I' for Inactive)
REMARK    1  A    between atoms: C_1  and  C_2
REMARK    2  A    between atoms: C_12  and  C_32
REMARK    3  A    between atoms: N_14  and  C_17
REMARK    4  A    between atoms: C_17  and  C_18
REMARK    5  A    between atoms: N_20  and  C_21
REMARK    6  A    between atoms: C_21  and  C_22
REMARK    7  A    between atoms: C_22  and  C_23
REMARK                            x       y       z     vdW  Elec       q    Type
REMARK                         _______ _______ _______ _____ _____    ______ ____
ROOT
ATOM      1  C   UNL     1       2.716  -7.002   1.518  0.00  0.00    +0.230 C 
ENDROOT
BRANCH   1  14
ATOM      2  C   UNL     1      -0.018   1.503   0.010  0.00  0.00    +0.044 C 
ATOM      3  C   UNL     1       0.002  -0.004   0.002  0.00  0.00    -0.050 A 
ATOM      4  C   UNL     1       0.006  -0.691  -1.198  0.00  0.00    +0.005 A 
ATOM      5  C   UNL     1       0.037  -2.069  -1.209  0.00  0.00    +0.024 A 
ATOM      6  C   UNL     1       0.055  -2.785  -0.010  0.00  0.00    +0.039 A 
ATOM      7  C   UNL     1       0.032  -2.084   1.190  0.00  0.00    -0.023 A 
ATOM      8  C   UNL     1       0.023  -0.704   1.194  0.00  0.00    +0.009 A 
ATOM      9  C   UNL     1      -0.002  -3.081   2.329  0.00  0.00    +0.069 C 
ATOM     10  C   UNL     1      -0.108  -4.445   1.640  0.00  0.00    +0.172 C 
ATOM     11  N   UNL     1       0.132  -4.153   0.212  0.00  0.00    -0.275 N 
ATOM     12  C   UNL     1       0.459  -5.163  -0.684  0.00  0.00    +0.118 C 
ATOM     13  N   UNL     1       1.173  -6.141  -0.203  0.00  0.00    -0.166 NA
ATOM     14  N   UNL     1       1.598  -6.138   1.129  0.00  0.00    -0.181 N 
ATOM     15  C   UNL     1       0.999  -5.371   2.087  0.00  0.00    +0.256 C 
ATOM     16  O   UNL     1       1.346  -5.414   3.250  0.00  0.00    -0.272 OA
ATOM     17  C   UNL     1       0.014  -5.129  -2.123  0.00  0.00    +0.085 C 
ENDBRANCH   1  14
BRANCH   1  18
ATOM     18  C   UNL     1       2.186  -8.347   1.945  0.00  0.00    +0.232 C 
ATOM     19  O   UNL     1       0.993  -8.562   1.926  0.00  0.00    -0.274 OA
ATOM     20  N   UNL     1       3.038  -9.310   2.347  0.00  0.00    -0.314 N 
ATOM     21  H   UNL     1       3.993  -9.138   2.362  0.00  0.00    +0.149 HD
BRANCH  20  22
ATOM     22  C   UNL     1       2.523 -10.617   2.763  0.00  0.00    +0.108 C 
BRANCH  22  23
ATOM     23  C   UNL     1       3.690 -11.520   3.169  0.00  0.00    +0.052 C 
BRANCH  23  24
ATOM     24  C   UNL     1       3.160 -12.864   3.596  0.00  0.00    -0.040 C 
ATOM     25  C   UNL     1       3.047 -13.974   2.831  0.00  0.00    -0.001 A 
ATOM     26  C   UNL     1       3.369 -14.251   1.426  0.00  0.00    +0.010 A 
ATOM     27  C   UNL     1       3.138 -15.488   0.931  0.00  0.00    +0.001 A 
ATOM     28  C   UNL     1       2.600 -16.510   1.725  0.00  0.00    +0.002 A 
ATOM     29  C   UNL     1       2.278 -16.333   3.023  0.00  0.00    +0.026 A 
ATOM     30  C   UNL     1       2.479 -15.071   3.648  0.00  0.00    +0.043 A 
ATOM     31  N   UNL     1       2.251 -14.655   4.870  0.00  0.00    -0.380 N 
ATOM     32  C   UNL     1       2.654 -13.248   4.968  0.00  0.00    +0.144 C 
ATOM     33  H   UNL     1       1.881 -15.190   5.590  0.00  0.00    +0.160 HD
ENDBRANCH  23  24
ENDBRANCH  22  23
ENDBRANCH  20  22
ENDBRANCH   1  18
TORSDOF 5
