REMARK  Name = ZINC15956657
REMARK  5 active torsions:
REMARK  status: ('A' for Active; 'I' for Inactive)
REMARK    1  A    between atoms: C_5  and  C_7
REMARK    2  A    between atoms: C_7  and  N_8
REMARK    3  A    between atoms: C_13  and  C_30
REMARK    4  A    between atoms: C_30  and  C_31
REMARK    5  A    between atoms: C_31  and  C_32
REMARK                            x       y       z     vdW  Elec       q    Type
REMARK                         _______ _______ _______ _____ _____    ______ ____
ROOT
ATOM      1  N   UNL     1       1.370  -2.677   1.351  0.00  0.00    -0.237 N 
ATOM      2  C   UNL     1       2.559  -2.868   1.933  0.00  0.00    +0.227 C 
ATOM      3  O   UNL     1       3.635  -2.662   1.413  0.00  0.00    -0.275 OA
ATOM      4  C   UNL     1       2.354  -3.380   3.340  0.00  0.00    +0.107 C 
ATOM      5  C   UNL     1       2.812  -2.305   4.348  0.00  0.00    +0.068 C 
ATOM      6  N   UNL     1       1.622  -1.436   4.546  0.00  0.00    -0.295 NA
ATOM      7  C   UNL     1       0.486  -2.376   4.552  0.00  0.00    +0.136 C 
ATOM      8  C   UNL     1       0.807  -3.444   3.477  0.00  0.00    +0.122 C 
ATOM      9  C   UNL     1       0.319  -2.966   2.128  0.00  0.00    +0.229 C 
ATOM     10  O   UNL     1      -0.843  -2.864   1.800  0.00  0.00    -0.275 OA
ATOM     11  C   UNL     1      -0.812  -1.676   4.269  0.00  0.00    +0.003 A 
ATOM     12  C   UNL     1      -1.275  -0.927   3.209  0.00  0.00    +0.008 A 
ATOM     13  C   UNL     1      -2.552  -0.397   3.242  0.00  0.00    +0.000 A 
ATOM     14  C   UNL     1      -3.362  -0.620   4.340  0.00  0.00    +0.002 A 
ATOM     15  C   UNL     1      -2.904  -1.370   5.403  0.00  0.00    +0.023 A 
ATOM     16  C   UNL     1      -1.619  -1.908   5.378  0.00  0.00    +0.039 A 
ATOM     17  N   UNL     1      -0.939  -2.688   6.316  0.00  0.00    -0.283 N 
ATOM     18  C   UNL     1       0.304  -3.007   5.905  0.00  0.00    +0.243 C 
ATOM     19  O   UNL     1       1.117  -3.673   6.510  0.00  0.00    -0.273 OA
ATOM     20  H   UNL     1       1.681  -0.935   5.421  0.00  0.00    +0.123 HD
ATOM     21  H   UNL     1      -1.318  -2.969   7.163  0.00  0.00    +0.155 HD
ENDROOT
BRANCH   1  22
ATOM     22  C   UNL     1       1.229  -2.186  -0.022  0.00  0.00    +0.153 C 
BRANCH  22  27
ATOM     23  C   UNL     1       2.705  -4.672  -2.450  0.00  0.00    +0.000 A 
ATOM     24  C   UNL     1       1.604  -5.453  -2.749  0.00  0.00    +0.001 A 
ATOM     25  C   UNL     1       0.382  -5.177  -2.167  0.00  0.00    +0.020 A 
ATOM     26  C   UNL     1       0.259  -4.120  -1.284  0.00  0.00    +0.046 A 
ATOM     27  C   UNL     1       1.361  -3.338  -0.984  0.00  0.00    -0.011 A 
ATOM     28  C   UNL     1       2.583  -3.615  -1.567  0.00  0.00    +0.006 A 
ATOM     29 CL   UNL     1      -1.276  -3.772  -0.552  0.00  0.00    -0.083 Cl
ENDBRANCH  22  27
ENDBRANCH   1  22
BRANCH   5  30
ATOM     30  C   UNL     1       3.975  -1.496   3.771  0.00  0.00    +0.028 C 
BRANCH  30  31
ATOM     31  C   UNL     1       4.494  -0.522   4.831  0.00  0.00    +0.097 C 
BRANCH  31  32
ATOM     32  C   UNL     1       5.640   0.275   4.262  0.00  0.00    +0.211 C 
ATOM     33  O   UNL     1       6.005   0.083   3.122  0.00  0.00    -0.276 OA
ATOM     34  N   UNL     1       6.258   1.202   5.021  0.00  0.00    -0.329 N 
ATOM     35  H   UNL     1       5.966   1.355   5.933  0.00  0.00    +0.145 HD
ATOM     36  H   UNL     1       6.996   1.715   4.655  0.00  0.00    +0.145 HD
ENDBRANCH  31  32
ENDBRANCH  30  31
ENDBRANCH   5  30
TORSDOF 5
