REMARK  Name = ZINC39324492
REMARK  9 active torsions:
REMARK  status: ('A' for Active; 'I' for Inactive)
REMARK    1  A    between atoms: C_1  and  C_2
REMARK    2  A    between atoms: C_6  and  C_7
REMARK    3  A    between atoms: C_11  and  O_13
REMARK    4  A    between atoms: O_13  and  C_14
REMARK    5  A    between atoms: C_18  and  C_26
REMARK    6  A    between atoms: C_20  and  C_24
REMARK    7  A    between atoms: C_21  and  N_23
REMARK    8  A    between atoms: C_30  and  O_32
REMARK    9  A    between atoms: O_32  and  C_33
REMARK                            x       y       z     vdW  Elec       q    Type
REMARK                         _______ _______ _______ _____ _____    ______ ____
ROOT
ATOM      1  C   UNL     1      -0.301   1.351   0.238  0.00  0.00    +0.008 C 
ATOM      2  C   UNL     1      -0.060  -0.158   0.157  0.00  0.00    -0.006 C 
ATOM      3  C   UNL     1       0.550  -0.509  -1.208  0.00  0.00    +0.042 C 
ATOM      4  C   UNL     1       0.713  -2.013  -1.243  0.00  0.00    -0.004 C 
ATOM      5  C   UNL     1       0.416  -2.714  -2.352  0.00  0.00    +0.015 C 
ATOM      6  C   UNL     1       1.206  -2.691  -0.027  0.00  0.00    +0.133 C 
ATOM      7  C   UNL     1       1.295  -2.032   1.128  0.00  0.00    -0.014 C 
ATOM      8  C   UNL     1       0.911  -0.580   1.255  0.00  0.00    +0.039 C 
ATOM      9  C   UNL     1       1.791  -2.737   2.369  0.00  0.00    +0.094 C 
ATOM     10  C   UNL     1       2.543  -3.984   2.001  0.00  0.00    +0.098 C 
ATOM     11  C   UNL     1       2.389  -4.545   0.775  0.00  0.00    +0.199 C 
ATOM     12  O   UNL     1       1.561  -3.997  -0.131  0.00  0.00    -0.441 OA
ENDROOT
BRANCH   5  13
ATOM     13  C   UNL     1       0.090  -2.009  -3.603  0.00  0.00    -0.021 A 
ATOM     14  C   UNL     1       0.697  -0.785  -3.899  0.00  0.00    +0.008 A 
ATOM     15  C   UNL     1       0.389  -0.128  -5.072  0.00  0.00    +0.004 A 
ATOM     16  C   UNL     1      -0.521  -0.676  -5.958  0.00  0.00    +0.045 A 
ATOM     17  C   UNL     1      -1.130  -1.891  -5.674  0.00  0.00    +0.121 A 
ATOM     18  C   UNL     1      -0.824  -2.563  -4.503  0.00  0.00    +0.053 A 
BRANCH  17  19
ATOM     19  O   UNL     1      -2.023  -2.424  -6.549  0.00  0.00    -0.495 OA
ATOM     20  C   UNL     1      -2.288  -1.680  -7.740  0.00  0.00    +0.277 C 
ENDBRANCH  17  19
ENDBRANCH   5  13
BRANCH   9  21
ATOM     21  C   UNL     1       0.615  -3.108   3.236  0.00  0.00    -0.032 A 
ATOM     22  C   UNL     1      -0.366  -3.950   2.745  0.00  0.00    +0.005 A 
ATOM     23  C   UNL     1      -1.446  -4.292   3.537  0.00  0.00    +0.004 A 
ATOM     24  C   UNL     1      -1.549  -3.792   4.821  0.00  0.00    +0.045 A 
ATOM     25  C   UNL     1      -0.566  -2.947   5.316  0.00  0.00    +0.120 A 
ATOM     26  C   UNL     1       0.520  -2.611   4.521  0.00  0.00    +0.050 A 
BRANCH  25  27
ATOM     27  O   UNL     1      -0.664  -2.455   6.578  0.00  0.00    -0.495 OA
ATOM     28  C   UNL     1      -1.807  -2.848   7.341  0.00  0.00    +0.277 C 
ENDBRANCH  25  27
ENDBRANCH   9  21
BRANCH  11  29
ATOM     29  N   UNL     1       3.087  -5.683   0.456  0.00  0.00    -0.328 N 
ATOM     30  H   UNL     1       3.686  -6.082   1.106  0.00  0.00    +0.145 HD
ATOM     31  H   UNL     1       2.980  -6.088  -0.419  0.00  0.00    +0.145 HD
ENDBRANCH  11  29
BRANCH  10  32
ATOM     32  C   UNL     1       3.430  -4.585   2.950  0.00  0.00    +0.101 C 
ATOM     33  N   UNL     1       4.134  -5.062   3.704  0.00  0.00    -0.191 NA
ENDBRANCH  10  32
TORSDOF 6
