REMARK  Name = ZINC48024988
REMARK  10 active torsions:
REMARK  status: ('A' for Active; 'I' for Inactive)
REMARK    1  A    between atoms: C_1  and  C_2
REMARK    2  A    between atoms: C_6  and  C_25
REMARK    3  A    between atoms: C_8  and  O_11
REMARK    4  A    between atoms: O_11  and  C_12
REMARK    5  A    between atoms: C_12  and  C_14
REMARK    6  A    between atoms: C_14  and  N_15
REMARK    7  A    between atoms: C_18  and  C_21
REMARK    8  A    between atoms: C_21  and  C_22
REMARK    9  A    between atoms: C_25  and  C_26
REMARK   10  A    between atoms: C_25  and  C_27
REMARK                            x       y       z     vdW  Elec       q    Type
REMARK                         _______ _______ _______ _____ _____    ______ ____
ROOT
ATOM      1  C   UNL     1       3.536  -0.152   4.750  0.00  0.00    +0.044 C 
ENDROOT
BRANCH   1   2
ATOM      2  N   UNL     1       3.324   0.844   5.809  0.00  0.00    +0.387 N 
ATOM      3  C   UNL     1       1.899   0.890   6.157  0.00  0.00    -0.078 C 
ATOM      4  C   UNL     1       1.659   1.983   7.201  0.00  0.00    -0.015 C 
ATOM      5  C   UNL     1       2.483   1.672   8.454  0.00  0.00    -0.006 C 
ATOM      6  C   UNL     1       3.959   1.553   8.067  0.00  0.00    -0.015 C 
ATOM      7  C   UNL     1       4.113   0.476   6.990  0.00  0.00    -0.078 C 
ATOM      8  H   UNL     1       3.617   1.752   5.479  0.00  0.00    -0.081 HD
BRANCH   5   9
ATOM      9  C   UNL     1       2.310   2.801   9.472  0.00  0.00    +0.099 C 
BRANCH   9  10
ATOM     10  C   UNL     1       3.020   2.438  10.751  0.00  0.00    +0.211 C 
ATOM     11  O   UNL     1       3.607   1.380  10.839  0.00  0.00    -0.276 OA
ATOM     12  N   UNL     1       3.004   3.288  11.796  0.00  0.00    -0.329 N 
ATOM     13  H   UNL     1       2.535   4.135  11.725  0.00  0.00    +0.145 HD
ATOM     14  H   UNL     1       3.461   3.054  12.619  0.00  0.00    +0.145 HD
ENDBRANCH   9  10
ENDBRANCH   5   9
ENDBRANCH   1   2
BRANCH   1  15
ATOM     15  C   UNL     1       2.825   0.288   3.497  0.00  0.00    +0.291 C 
ATOM     16  O   UNL     1       2.205   1.325   3.486  0.00  0.00    -0.253 OA
BRANCH  15  17
ATOM     17  O   UNL     1       2.881  -0.473   2.392  0.00  0.00    -0.462 OA
BRANCH  17  23
ATOM     18  C   UNL     1      -0.023   1.513   0.037  0.00  0.00    +0.007 C 
ATOM     19  C   UNL     1       0.003  -0.017   0.020  0.00  0.00    -0.011 C 
ATOM     20  C   UNL     1       0.715  -0.501  -1.244  0.00  0.00    +0.004 C 
ATOM     21  C   UNL     1       2.148   0.033  -1.258  0.00  0.00    +0.007 C 
ATOM     22  C   UNL     1       2.895  -0.479  -0.025  0.00  0.00    +0.032 C 
ATOM     23  C   UNL     1       2.183   0.005   1.240  0.00  0.00    +0.180 C 
ATOM     24  C   UNL     1       0.749  -0.529   1.254  0.00  0.00    +0.048 C 
BRANCH  22  25
ATOM     25  C   UNL     1       4.329   0.055  -0.039  0.00  0.00    -0.011 C 
ATOM     26  C   UNL     1       5.082  -0.538  -1.231  0.00  0.00    +0.007 C 
ATOM     27  C   UNL     1       4.304   1.580  -0.159  0.00  0.00    +0.007 C 
ENDBRANCH  22  25
ENDBRANCH  17  23
ENDBRANCH  15  17
ENDBRANCH   1  15
TORSDOF 7
