REMARK  Name = ZINC66746463
REMARK  6 active torsions:
REMARK  status: ('A' for Active; 'I' for Inactive)
REMARK    1  A    between atoms: C_1  and  O_2
REMARK    2  A    between atoms: O_2  and  C_3
REMARK    3  A    between atoms: N_5  and  C_6
REMARK    4  A    between atoms: C_8  and  N_13
REMARK    5  A    between atoms: C_14  and  C_16
REMARK    6  A    between atoms: C_16  and  C_17
REMARK                            x       y       z     vdW  Elec       q    Type
REMARK                         _______ _______ _______ _____ _____    ______ ____
ROOT
ATOM      1  N   UNL     1      -6.010  -1.900   0.265  0.00  0.00    -0.285 N 
ATOM      2  C   UNL     1      -7.164  -2.564   0.474  0.00  0.00    +0.219 C 
ATOM      3  O   UNL     1      -7.163  -3.775   0.542  0.00  0.00    -0.275 OA
ATOM      4  H   UNL     1      -6.021  -0.940   0.126  0.00  0.00    +0.155 HD
ENDROOT
BRANCH   1   7
ATOM      5  C   UNL     1      -2.514  -2.784  -0.478  0.00  0.00    +0.073 A 
ATOM      6  C   UNL     1      -3.716  -2.093  -0.465  0.00  0.00    +0.049 A 
ATOM      7  C   UNL     1      -4.795  -2.596   0.249  0.00  0.00    +0.035 A 
ATOM      8  C   UNL     1      -4.668  -3.790   0.947  0.00  0.00    +0.026 A 
ATOM      9  C   UNL     1      -3.470  -4.477   0.933  0.00  0.00    +0.042 A 
ATOM     10  C   UNL     1      -2.394  -3.981   0.218  0.00  0.00    +0.145 A 
ATOM     11  F   UNL     1      -1.225  -4.658   0.201  0.00  0.00    -0.204 F 
BRANCH   5  14
ATOM     12  C   UNL     1      -1.227  -0.948  -1.279  0.00  0.00    +0.404 C 
ATOM     13  O   UNL     1      -2.042  -0.184  -0.800  0.00  0.00    -0.226 OA
ATOM     14  N   UNL     1      -1.423  -2.279  -1.198  0.00  0.00    -0.248 N 
ATOM     15  H   UNL     1      -0.808  -2.887  -1.637  0.00  0.00    +0.158 HD
BRANCH  12  17
ATOM     16  C   UNL     1       0.014   0.956  -1.939  0.00  0.00    +0.282 C 
ATOM     17  O   UNL     1      -0.129  -0.465  -1.890  0.00  0.00    -0.453 OA
ENDBRANCH  12  17
ENDBRANCH   5  14
ENDBRANCH   1   7
BRANCH   2  18
ATOM     18  C   UNL     1      -8.456  -1.802   0.623  0.00  0.00    +0.120 C 
BRANCH  18  19
ATOM     19  C   UNL     1      -9.605  -2.786   0.849  0.00  0.00    +0.146 C 
ATOM     20  C   UNL     1     -10.879  -2.026   1.110  0.00  0.00    +0.231 C 
ATOM     21  O   UNL     1     -11.235  -1.874   2.260  0.00  0.00    -0.274 OA
ATOM     22  N   UNL     1     -11.631  -1.512   0.142  0.00  0.00    -0.284 N 
ATOM     23  C   UNL     1     -11.451  -1.680  -1.227  0.00  0.00    +0.047 A 
ATOM     24  C   UNL     1     -12.095  -0.816  -2.108  0.00  0.00    +0.024 A 
ATOM     25  C   UNL     1     -11.924  -0.956  -3.471  0.00  0.00    +0.002 A 
ATOM     26  C   UNL     1     -11.112  -1.954  -3.977  0.00  0.00    +0.001 A 
ATOM     27  C   UNL     1     -10.469  -2.822  -3.114  0.00  0.00    +0.016 A 
ATOM     28  C   UNL     1     -10.640  -2.689  -1.746  0.00  0.00    +0.030 A 
ATOM     29  S   UNL     1      -9.834  -3.811  -0.636  0.00  0.00    -0.110 S 
ATOM     30  H   UNL     1     -12.382  -0.964   0.419  0.00  0.00    +0.155 HD
ENDBRANCH  18  19
ENDBRANCH   2  18
TORSDOF 5
