REMARK  Name = ZINC21528808
REMARK  10 active torsions:
REMARK  status: ('A' for Active; 'I' for Inactive)
REMARK    1  A    between atoms: C_1  and  C_2
REMARK    2  A    between atoms: C_2  and  C_3
REMARK    3  A    between atoms: C_2  and  C_4
REMARK    4  A    between atoms: C_7  and  N_10
REMARK    5  A    between atoms: N_14  and  S_28
REMARK    6  A    between atoms: C_16  and  C_17
REMARK    7  A    between atoms: C_16  and  C_18
REMARK    8  A    between atoms: N_20  and  C_21
REMARK    9  A    between atoms: C_21  and  C_22
REMARK   10  A    between atoms: S_28  and  C_31
REMARK                            x       y       z     vdW  Elec       q    Type
REMARK                         _______ _______ _______ _____ _____    ______ ____
ROOT
ATOM      1  N   UNL     1       1.017  -0.058   0.862  0.00  0.00    -0.255 N 
ATOM      2  C   UNL     1       1.937   0.757   1.380  0.00  0.00    +0.236 C 
ATOM      3  O   UNL     1       2.904   0.267   1.924  0.00  0.00    -0.274 OA
ATOM      4  C   UNL     1       1.830   2.257   1.321  0.00  0.00    +0.205 C 
ATOM      5  N   UNL     1       0.767   2.621   0.372  0.00  0.00    -0.170 NA
ATOM      6  C   UNL     1      -0.481   1.841   0.424  0.00  0.00    +0.145 C 
ATOM      7  C   UNL     1      -0.146   0.383   0.104  0.00  0.00    +0.129 C 
ATOM      8  C   UNL     1       0.148   0.250  -1.391  0.00  0.00    +0.043 C 
ENDROOT
BRANCH   1  12
ATOM      9  C   UNL     1       1.504  -4.153   1.451  0.00  0.00    -0.045 A 
ATOM     10  C   UNL     1       1.174  -3.337   2.517  0.00  0.00    +0.006 A 
ATOM     11  C   UNL     1       1.011  -1.979   2.325  0.00  0.00    +0.024 A 
ATOM     12  C   UNL     1       1.181  -1.433   1.060  0.00  0.00    +0.037 A 
ATOM     13  C   UNL     1       1.508  -2.256  -0.010  0.00  0.00    +0.024 A 
ATOM     14  C   UNL     1       1.674  -3.613   0.190  0.00  0.00    +0.006 A 
BRANCH   9  16
ATOM     15  C   UNL     1       0.734  -6.399   0.735  0.00  0.00    +0.012 C 
ATOM     16  C   UNL     1       1.680  -5.635   1.664  0.00  0.00    +0.013 C 
ATOM     17  C   UNL     1       3.126  -6.027   1.355  0.00  0.00    +0.012 C 
ENDBRANCH   9  16
ENDBRANCH   1  12
BRANCH   7  18
ATOM     18  C   UNL     1      -1.326  -0.485   0.457  0.00  0.00    +0.238 C 
ATOM     19  O   UNL     1      -2.091  -0.851  -0.410  0.00  0.00    -0.273 OA
ATOM     20  N   UNL     1      -1.532  -0.856   1.736  0.00  0.00    -0.309 N 
ATOM     21  H   UNL     1      -0.889  -0.457   2.535  0.00  0.00    +0.149 HD
BRANCH  20  22
ATOM     22  C   UNL     1      -2.612  -1.790   2.064  0.00  0.00    +0.139 C 
BRANCH  22  23
ATOM     23  C   UNL     1      -2.666  -1.992   3.557  0.00  0.00    -0.030 A 
ATOM     24  C   UNL     1      -1.984  -3.046   4.136  0.00  0.00    +0.005 A 
ATOM     25  C   UNL     1      -2.030  -3.228   5.506  0.00  0.00    +0.000 A 
ATOM     26  C   UNL     1      -2.764  -2.363   6.295  0.00  0.00    +0.000 A 
ATOM     27  C   UNL     1      -3.450  -1.312   5.714  0.00  0.00    +0.000 A 
ATOM     28  C   UNL     1      -3.401  -1.127   4.345  0.00  0.00    +0.005 A 
ENDBRANCH  22  23
ENDBRANCH  20  22
ENDBRANCH   7  18
BRANCH   5  29
ATOM     29  S   UNL     1       0.966   3.858  -0.711  0.00  0.00    +0.029 S 
ATOM     30  O   UNL     1       2.371   3.945  -0.909  0.00  0.00    -0.158 OA
ATOM     31  O   UNL     1       0.101   3.537  -1.791  0.00  0.00    -0.158 OA
ATOM     32  C   UNL     1       0.365   5.336   0.153  0.00  0.00    +0.215 C 
ENDBRANCH   5  29
TORSDOF 6
