REMARK  Name = ZINC42016565
REMARK  5 active torsions:
REMARK  status: ('A' for Active; 'I' for Inactive)
REMARK    1  A    between atoms: C_1  and  C_2
REMARK    2  A    between atoms: C_7  and  N_12
REMARK    3  A    between atoms: C_9  and  C_11
REMARK    4  A    between atoms: C_13  and  C_17
REMARK    5  A    between atoms: C_19  and  N_24
REMARK                            x       y       z     vdW  Elec       q    Type
REMARK                         _______ _______ _______ _____ _____    ______ ____
ROOT
ATOM      1  N   UNL     1       1.481  -2.561   2.401  0.00  0.00    -0.222 N 
ATOM      2  C   UNL     1       0.959  -3.247   3.448  0.00  0.00    +0.184 A 
ATOM      3  N   UNL     1       1.934  -3.433   4.312  0.00  0.00    -0.108 NA
ATOM      4  N   UNL     1       3.024  -2.911   3.879  0.00  0.00    -0.023 NA
ATOM      5  N   UNL     1       2.835  -2.368   2.725  0.00  0.00    -0.043 NA
ENDROOT
BRANCH   1  11
ATOM      6  C   UNL     1       0.455   1.352  -0.442  0.00  0.00    +0.008 C 
ATOM      7  C   UNL     1       0.256  -0.153  -0.258  0.00  0.00    -0.009 C 
ATOM      8  C   UNL     1       0.823  -0.895  -1.471  0.00  0.00    +0.004 C 
ATOM      9  C   UNL     1       0.623  -2.400  -1.287  0.00  0.00    +0.002 C 
ATOM     10  C   UNL     1       1.351  -2.861  -0.022  0.00  0.00    +0.027 C 
ATOM     11  C   UNL     1       0.784  -2.120   1.190  0.00  0.00    +0.114 C 
ATOM     12  C   UNL     1       0.984  -0.614   1.007  0.00  0.00    +0.013 C 
ATOM     13  C   UNL     1       0.417   0.127   2.219  0.00  0.00    +0.010 C 
ENDBRANCH   1  11
BRANCH   2  14
ATOM     14  C   UNL     1      -0.442  -3.702   3.591  0.00  0.00    +0.041 A 
ATOM     15  C   UNL     1      -1.073  -4.367   2.541  0.00  0.00    +0.035 A 
ATOM     16  C   UNL     1      -2.385  -4.791   2.682  0.00  0.00    +0.025 A 
ATOM     17  C   UNL     1      -3.069  -4.551   3.868  0.00  0.00    +0.024 A 
ATOM     18  C   UNL     1      -2.445  -3.892   4.910  0.00  0.00    +0.022 A 
ATOM     19  C   UNL     1      -1.135  -3.471   4.780  0.00  0.00    +0.052 A 
ATOM     20 CL   UNL     1      -0.354  -2.648   6.095  0.00  0.00    -0.083 Cl
BRANCH  16  21
ATOM     21  N   UNL     1      -3.021  -5.458   1.631  0.00  0.00    -0.358 N 
ATOM     22  H   UNL     1      -2.544  -5.625   0.803  0.00  0.00    +0.142 HD
ATOM     23  H   UNL     1      -3.939  -5.754   1.730  0.00  0.00    +0.142 HD
ENDBRANCH  16  21
ENDBRANCH   2  14
TORSDOF 3
