REMARK  Name = ZINC32116544
REMARK  9 active torsions:
REMARK  status: ('A' for Active; 'I' for Inactive)
REMARK    1  A    between atoms: C_1  and  C_2
REMARK    2  A    between atoms: C_6  and  O_8
REMARK    3  A    between atoms: O_8  and  C_9
REMARK    4  A    between atoms: C_9  and  C_10
REMARK    5  A    between atoms: N_12  and  C_13
REMARK    6  A    between atoms: C_13  and  N_15
REMARK    7  A    between atoms: N_15  and  C_16
REMARK    8  A    between atoms: C_23  and  C_25
REMARK    9  A    between atoms: C_28  and  O_32
REMARK                            x       y       z     vdW  Elec       q    Type
REMARK                         _______ _______ _______ _____ _____    ______ ____
ROOT
ATOM      1  C   UNL     1       0.251  -8.529   6.524  0.00  0.00    +0.035 A 
ATOM      2  C   UNL     1      -0.766  -8.335   7.456  0.00  0.00    +0.027 A 
ATOM      3  C   UNL     1      -0.661  -8.864   8.725  0.00  0.00    +0.050 A 
ATOM      4  C   UNL     1       0.462  -9.595   9.080  0.00  0.00    +0.156 A 
ATOM      5  C   UNL     1       1.492  -9.796   8.146  0.00  0.00    +0.112 A 
ATOM      6  C   UNL     1       1.375  -9.261   6.861  0.00  0.00    +0.054 A 
ATOM      7  N   UNL     1       2.445 -10.536   8.769  0.00  0.00    -0.209 NA
ATOM      8  C   UNL     1       2.052 -10.784   9.993  0.00  0.00    +0.228 A 
ATOM      9  O   UNL     1       0.848 -10.224  10.214  0.00  0.00    -0.435 OA
ENDROOT
BRANCH   8  10
ATOM     10  C   UNL     1       2.818 -11.563  10.987  0.00  0.00    +0.038 A 
ATOM     11  C   UNL     1       4.065 -12.096  10.649  0.00  0.00    +0.017 A 
ATOM     12  C   UNL     1       4.777 -12.822  11.579  0.00  0.00    +0.047 A 
ATOM     13  C   UNL     1       4.256 -13.026  12.850  0.00  0.00    +0.131 A 
ATOM     14  C   UNL     1       3.016 -12.499  13.191  0.00  0.00    +0.060 A 
ATOM     15  C   UNL     1       2.301 -11.765  12.268  0.00  0.00    +0.032 A 
ATOM     16 BR   UNL     1       2.313 -12.780  14.923  0.00  0.00    -0.047 Br
BRANCH  13  17
ATOM     17  O   UNL     1       4.961 -13.743  13.763  0.00  0.00    -0.506 OA
ATOM     18  H   UNL     1       5.557 -13.210  14.307  0.00  0.00    +0.292 HD
ENDBRANCH  13  17
ENDBRANCH   8  10
BRANCH   1  19
ATOM     19  N   UNL     1       0.132  -7.986   5.239  0.00  0.00    -0.297 N 
ATOM     20  H   UNL     1       0.345  -8.526   4.462  0.00  0.00    +0.154 HD
BRANCH  19  21
ATOM     21  C   UNL     1      -0.278  -6.711   5.081  0.00  0.00    +0.141 C 
ATOM     22  S   UNL     1      -0.757  -5.792   6.443  0.00  0.00    -0.018 S 
BRANCH  21  25
ATOM     23  C   UNL     1      -0.721  -4.887   3.693  0.00  0.00    +0.256 C 
ATOM     24  O   UNL     1      -1.060  -4.236   4.658  0.00  0.00    -0.272 OA
ATOM     25  N   UNL     1      -0.310  -6.161   3.851  0.00  0.00    -0.265 N 
ATOM     26  H   UNL     1      -0.039  -6.683   3.079  0.00  0.00    +0.157 HD
BRANCH  23  27
ATOM     27  C   UNL     1      -0.757  -4.272   2.318  0.00  0.00    +0.324 C 
BRANCH  27  28
ATOM     28  O   UNL     1      -1.223  -2.925   2.411  0.00  0.00    -0.483 OA
BRANCH  28  34
ATOM     29  C   UNL     1      -2.339   1.230   0.105  0.00  0.00    +0.044 C 
ATOM     30  C   UNL     1      -1.855  -0.197   0.088  0.00  0.00    -0.047 A 
ATOM     31  C   UNL     1      -1.505  -0.793  -1.110  0.00  0.00    +0.003 A 
ATOM     32  C   UNL     1      -1.061  -2.102  -1.129  0.00  0.00    +0.004 A 
ATOM     33  C   UNL     1      -0.966  -2.818   0.048  0.00  0.00    +0.045 A 
ATOM     34  C   UNL     1      -1.316  -2.222   1.251  0.00  0.00    +0.121 A 
ATOM     35  C   UNL     1      -1.756  -0.906   1.269  0.00  0.00    +0.049 A 
ENDBRANCH  28  34
ENDBRANCH  27  28
ENDBRANCH  23  27
ENDBRANCH  21  25
ENDBRANCH  19  21
ENDBRANCH   1  19
TORSDOF 8
