REMARK  Name = ZINC57345260
REMARK  8 active torsions:
REMARK  status: ('A' for Active; 'I' for Inactive)
REMARK    1  A    between atoms: C_1  and  C_2
REMARK    2  A    between atoms: C_9  and  C_11
REMARK    3  A    between atoms: C_14  and  N_18
REMARK    4  A    between atoms: C_16  and  O_17
REMARK    5  A    between atoms: C_19  and  C_21
REMARK    6  A    between atoms: C_21  and  C_23
REMARK    7  A    between atoms: C_21  and  O_30
REMARK    8  A    between atoms: O_30  and  C_31
REMARK                            x       y       z     vdW  Elec       q    Type
REMARK                         _______ _______ _______ _____ _____    ______ ____
ROOT
ATOM      1  C   UNL     1       0.106  -5.515   2.305  0.00  0.00    +0.078 A 
ATOM      2  C   UNL     1       0.286  -5.544   3.690  0.00  0.00    +0.018 A 
ATOM      3  C   UNL     1       0.299  -6.749   4.357  0.00  0.00    +0.024 A 
ATOM      4  C   UNL     1       0.133  -7.939   3.656  0.00  0.00    +0.037 A 
ATOM      5  C   UNL     1      -0.047  -7.920   2.279  0.00  0.00    +0.069 A 
ATOM      6  C   UNL     1      -0.067  -6.715   1.600  0.00  0.00    +0.131 A 
ENDROOT
BRANCH   1  15
ATOM      7  C   UNL     1       0.246   1.505   0.014  0.00  0.00    +0.044 C 
ATOM      8  C   UNL     1       0.149   0.001   0.011  0.00  0.00    -0.047 A 
ATOM      9  C   UNL     1      -0.057  -0.673  -1.184  0.00  0.00    +0.005 A 
ATOM     10  C   UNL     1      -0.148  -2.046  -1.203  0.00  0.00    +0.032 A 
ATOM     11  C   UNL     1      -0.032  -2.765  -0.010  0.00  0.00    +0.110 A 
ATOM     12  C   UNL     1       0.176  -2.078   1.197  0.00  0.00    +0.156 A 
ATOM     13  C   UNL     1       0.271  -0.695   1.196  0.00  0.00    +0.052 A 
ATOM     14  O   UNL     1       0.247  -3.019   2.165  0.00  0.00    -0.435 OA
ATOM     15  C   UNL     1       0.091  -4.226   1.588  0.00  0.00    +0.232 A 
ATOM     16  N   UNL     1      -0.076  -4.087   0.296  0.00  0.00    -0.209 NA
ENDBRANCH   1  15
BRANCH   4  17
ATOM     17  N   UNL     1       0.148  -9.157   4.338  0.00  0.00    -0.283 N 
ATOM     18  C   UNL     1      -0.343  -9.233   5.591  0.00  0.00    +0.251 C 
ATOM     19  O   UNL     1      -0.884  -8.269   6.090  0.00  0.00    -0.272 OA
ATOM     20  H   UNL     1       0.511  -9.949   3.911  0.00  0.00    +0.155 HD
BRANCH  18  21
ATOM     21  C   UNL     1      -0.220 -10.516   6.373  0.00  0.00    +0.234 C 
BRANCH  21  22
ATOM     22  C   UNL     1       1.236 -10.806   6.636  0.00  0.00    -0.010 A 
ATOM     23  C   UNL     1       1.866 -10.241   7.729  0.00  0.00    +0.009 A 
ATOM     24  C   UNL     1       3.200 -10.507   7.971  0.00  0.00    +0.039 A 
ATOM     25  C   UNL     1       3.906 -11.339   7.119  0.00  0.00    +0.123 A 
ATOM     26  C   UNL     1       3.274 -11.904   6.024  0.00  0.00    +0.039 A 
ATOM     27  C   UNL     1       1.938 -11.641   5.787  0.00  0.00    +0.009 A 
ATOM     28  F   UNL     1       5.210 -11.599   7.355  0.00  0.00    -0.205 F 
ENDBRANCH  21  22
BRANCH  21  29
ATOM     29  O   UNL     1      -0.912 -10.385   7.616  0.00  0.00    -0.366 OA
ATOM     30  C   UNL     1      -1.447 -11.613   8.115  0.00  0.00    +0.195 C 
ENDBRANCH  21  29
ENDBRANCH  18  21
ENDBRANCH   4  17
BRANCH   6  31
ATOM     31  O   UNL     1      -0.249  -6.693   0.255  0.00  0.00    -0.506 OA
ATOM     32  H   UNL     1       0.572  -6.743  -0.254  0.00  0.00    +0.292 HD
ENDBRANCH   6  31
TORSDOF 6
