REMARK  Name = ZINC39531556
REMARK  8 active torsions:
REMARK  status: ('A' for Active; 'I' for Inactive)
REMARK    1  A    between atoms: C_1  and  C_2
REMARK    2  A    between atoms: C_5  and  C_8
REMARK    3  A    between atoms: C_8  and  C_10
REMARK    4  A    between atoms: C_8  and  N_13
REMARK    5  A    between atoms: C_10  and  N_11
REMARK    6  A    between atoms: N_11  and  O_12
REMARK    7  A    between atoms: C_17  and  C_20
REMARK    8  A    between atoms: C_25  and  O_26
REMARK                            x       y       z     vdW  Elec       q    Type
REMARK                         _______ _______ _______ _____ _____    ______ ____
ROOT
ATOM      1  N   UNL     1      -0.759  -4.789   1.017  0.00  0.00    -0.297 NA
ATOM      2  C   UNL     1      -0.320  -4.250   2.312  0.00  0.00    +0.066 C 
ATOM      3  C   UNL     1      -1.263  -4.743   3.412  0.00  0.00    -0.066 C 
ATOM      4  N   UNL     1      -1.253  -6.211   3.445  0.00  0.00    +0.385 N 
ATOM      5  C   UNL     1      -1.717  -6.734   2.153  0.00  0.00    -0.023 C 
ATOM      6  C   UNL     1      -0.778  -6.258   1.042  0.00  0.00    +0.074 C 
ATOM      7  H   UNL     1      -0.315  -6.537   3.622  0.00  0.00    -0.085 HD
ATOM      8  H   UNL     1      -1.865  -6.535   4.178  0.00  0.00    -0.085 HD
ENDROOT
BRANCH   5   9
ATOM      9  C   UNL     1      -1.723  -8.241   2.194  0.00  0.00    -0.019 A 
ATOM     10  C   UNL     1      -0.970  -8.910   3.140  0.00  0.00    +0.005 A 
ATOM     11  C   UNL     1      -0.974 -10.292   3.178  0.00  0.00    +0.000 A 
ATOM     12  C   UNL     1      -1.733 -11.008   2.271  0.00  0.00    +0.004 A 
ATOM     13  C   UNL     1      -2.489 -10.344   1.324  0.00  0.00    +0.045 A 
ATOM     14  C   UNL     1      -2.490  -8.957   1.287  0.00  0.00    +0.118 A 
BRANCH  14  15
ATOM     15  O   UNL     1      -3.236  -8.302   0.360  0.00  0.00    -0.507 OA
ATOM     16  H   UNL     1      -2.771  -8.130  -0.470  0.00  0.00    +0.292 HD
ENDBRANCH  14  15
ENDBRANCH   5   9
BRANCH   1  17
ATOM     17  C   UNL     1       0.089  -4.292  -0.075  0.00  0.00    +0.103 C 
BRANCH  17  22
ATOM     18  C   UNL     1      -1.846   0.866  -1.820  0.00  0.00    +0.044 C 
ATOM     19  C   UNL     1      -1.341  -0.479  -1.365  0.00  0.00    -0.050 A 
ATOM     20  C   UNL     1      -0.522  -1.226  -2.191  0.00  0.00    +0.003 A 
ATOM     21  C   UNL     1      -0.060  -2.460  -1.774  0.00  0.00    +0.005 A 
ATOM     22  C   UNL     1      -0.415  -2.947  -0.530  0.00  0.00    -0.029 A 
ATOM     23  C   UNL     1      -1.233  -2.199   0.297  0.00  0.00    +0.005 A 
ATOM     24  C   UNL     1      -1.692  -0.964  -0.119  0.00  0.00    +0.003 A 
ENDBRANCH  17  22
BRANCH  17  25
ATOM     25  C   UNL     1       1.530  -4.156   0.421  0.00  0.00    +0.134 C 
BRANCH  25  26
ATOM     26  N   UNL     1       2.023  -5.469   0.859  0.00  0.00    -0.202 NA
ATOM     27  H   UNL     1       1.492  -5.810   1.647  0.00  0.00    +0.154 HD
BRANCH  26  28
ATOM     28  O   UNL     1       3.451  -5.415   1.173  0.00  0.00    -0.315 OA
ATOM     29  H   UNL     1       3.821  -6.258   1.467  0.00  0.00    +0.236 HD
ENDBRANCH  26  28
ENDBRANCH  25  26
ENDBRANCH  17  25
ENDBRANCH   1  17
TORSDOF 7
