REMARK  Name = ZINC06601030
REMARK  15 active torsions:
REMARK  status: ('A' for Active; 'I' for Inactive)
REMARK    1  A    between atoms: C_1  and  C_2
REMARK    2  A    between atoms: C_2  and  O_3
REMARK    3  A    between atoms: O_3  and  C_4
REMARK    4  A    between atoms: C_7  and  N_10
REMARK    5  A    between atoms: N_10  and  C_11
REMARK    6  A    between atoms: C_11  and  C_13
REMARK    7  A    between atoms: C_11  and  C_20
REMARK    8  A    between atoms: C_16  and  C_19
REMARK    9  A    between atoms: N_22  and  C_23
REMARK   10  A    between atoms: C_23  and  C_24
REMARK   11  A    between atoms: C_23  and  C_25
REMARK   12  A    between atoms: C_23  and  C_26
REMARK   13  A    between atoms: C_27  and  C_29
REMARK   14  A    between atoms: C_30  and  N_37
REMARK   15  A    between atoms: C_31  and  C_34
REMARK                            x       y       z     vdW  Elec       q    Type
REMARK                         _______ _______ _______ _____ _____    ______ ____
ROOT
ATOM      1  N   UNL     1      -1.248   3.283   1.050  0.00  0.00    -0.251 N 
ATOM      2  C   UNL     1      -1.893   3.226   2.232  0.00  0.00    +0.262 C 
ATOM      3  O   UNL     1      -1.745   4.114   3.051  0.00  0.00    -0.269 OA
ENDROOT
BRANCH   1   7
ATOM      4  C   UNL     1       1.534   6.306   0.341  0.00  0.00    +0.121 A 
ATOM      5  C   UNL     1       0.187   6.617   0.453  0.00  0.00    +0.047 A 
ATOM      6  C   UNL     1      -0.735   5.616   0.688  0.00  0.00    +0.027 A 
ATOM      7  C   UNL     1      -0.313   4.299   0.812  0.00  0.00    +0.038 A 
ATOM      8  C   UNL     1       1.036   3.990   0.705  0.00  0.00    +0.027 A 
ATOM      9  C   UNL     1       1.956   4.991   0.465  0.00  0.00    +0.047 A 
BRANCH   4  10
ATOM     10  O   UNL     1       2.442   7.293   0.109  0.00  0.00    -0.492 OA
BRANCH  10  12
ATOM     11  C   UNL     1       4.676   8.137  -0.255  0.00  0.00    +0.048 C 
ATOM     12  C   UNL     1       3.812   6.901   0.004  0.00  0.00    +0.225 C 
ENDBRANCH  10  12
ENDBRANCH   4  10
ENDBRANCH   1   7
BRANCH   2  13
ATOM     13  C   UNL     1      -2.773   2.094   2.531  0.00  0.00    +0.116 A 
ATOM     14  C   UNL     1      -3.640   1.908   3.610  0.00  0.00    +0.076 A 
ATOM     15  C   UNL     1      -4.319   0.691   3.545  0.00  0.00    +0.155 A 
ATOM     16  N   UNL     1      -4.086  -0.123   2.540  0.00  0.00    -0.203 NA
ATOM     17  S   UNL     1      -3.018   0.584   1.621  0.00  0.00    +0.019 S 
BRANCH  15  18
ATOM     18  C   UNL     1      -5.283   0.320   4.597  0.00  0.00    +0.262 C 
ATOM     19  O   UNL     1      -5.493   1.078   5.524  0.00  0.00    -0.269 OA
ATOM     20  N   UNL     1      -5.932  -0.860   4.530  0.00  0.00    -0.324 N 
ATOM     21  H   UNL     1      -5.764  -1.464   3.790  0.00  0.00    +0.145 HD
ATOM     22  H   UNL     1      -6.566  -1.104   5.222  0.00  0.00    +0.145 HD
ENDBRANCH  15  18
BRANCH  14  23
ATOM     23  N   UNL     1      -3.810   2.833   4.631  0.00  0.00    -0.355 N 
ATOM     24  H   UNL     1      -3.311   3.665   4.620  0.00  0.00    +0.142 HD
ATOM     25  H   UNL     1      -4.428   2.648   5.356  0.00  0.00    +0.142 HD
ENDBRANCH  14  23
ENDBRANCH   2  13
BRANCH   1  26
ATOM     26  C   UNL     1      -1.524   2.284   0.015  0.00  0.00    +0.197 C 
BRANCH  26  27
ATOM     27  C   UNL     1      -0.587   2.492  -1.146  0.00  0.00    -0.018 A 
ATOM     28  C   UNL     1      -0.530   3.720  -1.778  0.00  0.00    +0.006 A 
ATOM     29  C   UNL     1       0.324   3.909  -2.848  0.00  0.00    +0.004 A 
ATOM     30  C   UNL     1       1.124   2.870  -3.285  0.00  0.00    -0.050 A 
ATOM     31  C   UNL     1       1.068   1.642  -2.654  0.00  0.00    +0.004 A 
ATOM     32  C   UNL     1       0.213   1.453  -1.584  0.00  0.00    +0.006 A 
ATOM     33  C   UNL     1       2.056   3.076  -4.452  0.00  0.00    +0.044 C 
ENDBRANCH  26  27
BRANCH  26  34
ATOM     34  C   UNL     1      -2.948   2.429  -0.456  0.00  0.00    +0.239 C 
ATOM     35  O   UNL     1      -3.546   3.467  -0.268  0.00  0.00    -0.273 OA
ATOM     36  N   UNL     1      -3.556   1.405  -1.087  0.00  0.00    -0.309 N 
ATOM     37  H   UNL     1      -3.078   0.575  -1.237  0.00  0.00    +0.149 HD
BRANCH  36  38
ATOM     38  C   UNL     1      -4.941   1.546  -1.545  0.00  0.00    +0.026 C 
ATOM     39  C   UNL     1      -5.032   2.702  -2.543  0.00  0.00    +0.031 C 
ATOM     40  C   UNL     1      -5.388   0.250  -2.223  0.00  0.00    +0.031 C 
ATOM     41  C   UNL     1      -5.848   1.834  -0.347  0.00  0.00    +0.031 C 
ENDBRANCH  36  38
ENDBRANCH  26  34
ENDBRANCH   1  26
TORSDOF 10
