REMARK  Name = ZINC44784518
REMARK  6 active torsions:
REMARK  status: ('A' for Active; 'I' for Inactive)
REMARK    1  A    between atoms: C_1  and  C_2
REMARK    2  A    between atoms: C_6  and  C_20
REMARK    3  A    between atoms: C_7  and  N_8
REMARK    4  A    between atoms: C_9  and  C_11
REMARK    5  A    between atoms: C_11  and  C_16
REMARK    6  A    between atoms: N_17  and  O_18
REMARK                            x       y       z     vdW  Elec       q    Type
REMARK                         _______ _______ _______ _____ _____    ______ ____
ROOT
ATOM      1  N   UNL     1      -0.160  -0.069   2.383  0.00  0.00    -0.284 N 
ATOM      2  C   UNL     1      -0.309  -0.731   3.547  0.00  0.00    +0.231 C 
ATOM      3  O   UNL     1      -0.352  -1.943   3.554  0.00  0.00    -0.274 OA
ATOM      4  H   UNL     1      -0.178   0.901   2.371  0.00  0.00    +0.155 HD
ENDROOT
BRANCH   1  11
ATOM      5  C   UNL     1       1.966  -1.956   2.255  0.00  0.00    +0.045 C 
ATOM      6  C   UNL     1       1.047  -1.711   1.087  0.00  0.00    -0.029 A 
ATOM      7  C   UNL     1       1.220  -2.416  -0.089  0.00  0.00    +0.005 A 
ATOM      8  C   UNL     1       0.377  -2.191  -1.162  0.00  0.00    +0.001 A 
ATOM      9  C   UNL     1      -0.641  -1.260  -1.062  0.00  0.00    +0.005 A 
ATOM     10  C   UNL     1      -0.819  -0.552   0.110  0.00  0.00    -0.029 A 
ATOM     11  C   UNL     1       0.022  -0.780   1.192  0.00  0.00    +0.039 A 
ATOM     12  C   UNL     1      -1.929   0.462   0.218  0.00  0.00    +0.045 C 
ENDBRANCH   1  11
BRANCH   2  13
ATOM     13  C   UNL     1      -0.422   0.034   4.840  0.00  0.00    +0.105 C 
ATOM     14  C   UNL     1      -1.698   0.903   4.830  0.00  0.00    +0.024 C 
ATOM     15  C   UNL     1      -2.752   0.038   5.564  0.00  0.00    +0.001 C 
ATOM     16  C   UNL     1      -1.922  -0.634   6.686  0.00  0.00    +0.001 C 
ATOM     17  C   UNL     1      -0.565  -0.943   6.020  0.00  0.00    +0.024 C 
BRANCH  13  18
ATOM     18  C   UNL     1       0.793   0.903   5.034  0.00  0.00    +0.147 C 
ATOM     19  N   UNL     1       1.602   0.673   6.015  0.00  0.00    -0.076 NA
ATOM     20  N   UNL     1       1.043   1.942   4.165  0.00  0.00    -0.343 N 
ATOM     21  H   UNL     1       0.380   2.188   3.500  0.00  0.00    +0.144 HD
ATOM     22  H   UNL     1       1.881   2.428   4.217  0.00  0.00    +0.144 HD
BRANCH  19  23
ATOM     23  O   UNL     1       2.745   1.490   6.196  0.00  0.00    -0.408 OA
ATOM     24  H   UNL     1       3.289   1.241   6.956  0.00  0.00    +0.328 HD
ENDBRANCH  19  23
ENDBRANCH  13  18
ENDBRANCH   2  13
TORSDOF 4
