REMARK  Name = ZINC09360822
REMARK  5 active torsions:
REMARK  status: ('A' for Active; 'I' for Inactive)
REMARK    1  A    between atoms: C_1  and  C_2
REMARK    2  A    between atoms: C_7  and  C_12
REMARK    3  A    between atoms: C_12  and  C_14
REMARK    4  A    between atoms: C_19  and  C_21
REMARK    5  A    between atoms: C_24  and  O_27
REMARK                            x       y       z     vdW  Elec       q    Type
REMARK                         _______ _______ _______ _____ _____    ______ ____
ROOT
ATOM      1  C   UNL     1       2.048   7.607  -3.158  0.00  0.00    +0.077 C 
ATOM      2  C   UNL     1       2.678   8.730  -3.577  0.00  0.00    +0.250 C 
ATOM      3  C   UNL     1       1.823   9.429  -4.557  0.00  0.00    +0.293 C 
ATOM      4  O   UNL     1       2.109  10.470  -5.116  0.00  0.00    -0.266 OA
ATOM      5  N   UNL     1       0.678   8.745  -4.740  0.00  0.00    -0.232 N 
ATOM      6  C   UNL     1       0.726   7.551  -3.888  0.00  0.00    +0.152 C 
ATOM      7  C   UNL     1      -0.358   9.102  -5.585  0.00  0.00    +0.169 A 
ATOM      8  N   UNL     1      -1.490   8.476  -5.808  0.00  0.00    -0.224 NA
ATOM      9  C   UNL     1      -2.422   8.947  -6.665  0.00  0.00    +0.080 A 
ATOM     10  C   UNL     1      -3.676   8.378  -6.989  0.00  0.00    +0.030 A 
ATOM     11  C   UNL     1      -4.508   8.986  -7.893  0.00  0.00    +0.022 A 
ATOM     12  C   UNL     1      -4.156  10.175  -8.518  0.00  0.00    +0.042 A 
ATOM     13  C   UNL     1      -2.937  10.759  -8.223  0.00  0.00    +0.037 A 
ATOM     14  C   UNL     1      -2.097  10.157  -7.320  0.00  0.00    +0.042 A 
ATOM     15  S   UNL     1      -0.492  10.527  -6.655  0.00  0.00    -0.052 S 
ATOM     16 CL   UNL     1      -5.234  10.920  -9.656  0.00  0.00    -0.084 Cl
ATOM     17  O   UNL     1       3.897   9.146  -3.164  0.00  0.00    -0.282 OA
ENDROOT
BRANCH   6  18
ATOM     18  C   UNL     1       0.653   6.305  -4.733  0.00  0.00    -0.022 A 
ATOM     19  C   UNL     1       1.381   6.223  -5.905  0.00  0.00    +0.009 A 
ATOM     20  C   UNL     1       1.321   5.080  -6.679  0.00  0.00    +0.046 A 
ATOM     21  C   UNL     1       0.519   4.019  -6.284  0.00  0.00    +0.117 A 
ATOM     22  C   UNL     1      -0.214   4.106  -5.110  0.00  0.00    +0.046 A 
ATOM     23  C   UNL     1      -0.146   5.249  -4.337  0.00  0.00    +0.009 A 
BRANCH  21  24
ATOM     24  O   UNL     1       0.453   2.895  -7.046  0.00  0.00    -0.507 OA
ATOM     25  H   UNL     1      -0.183   2.054  -6.732  0.00  0.00    +0.292 HD
ENDBRANCH  21  24
ENDBRANCH   6  18
BRANCH   1  26
ATOM     26  C   UNL     1       2.554   6.631  -2.188  0.00  0.00    +0.195 C 
ATOM     27  O   UNL     1       3.534   5.961  -2.454  0.00  0.00    -0.287 OA
BRANCH  26  33
ATOM     28  C   UNL     1       0.424   4.007   4.401  0.00  0.00    +0.052 C 
ATOM     29  C   UNL     1       1.084   5.059   3.507  0.00  0.00    +0.175 C 
ATOM     30  C   UNL     1       1.899   4.384   2.379  0.00  0.00    +0.083 C 
ATOM     31  C   UNL     1       1.667   5.331   1.216  0.00  0.00    -0.002 A 
ATOM     32  C   UNL     1       2.305   5.481   0.010  0.00  0.00    +0.019 A 
ATOM     33  C   UNL     1       1.874   6.462  -0.889  0.00  0.00    +0.023 A 
ATOM     34  C   UNL     1       0.793   7.281  -0.546  0.00  0.00    +0.015 A 
ATOM     35  C   UNL     1       0.160   7.120   0.662  0.00  0.00    +0.046 A 
ATOM     36  C   UNL     1       0.586   6.139   1.560  0.00  0.00    +0.124 A 
ATOM     37  O   UNL     1       0.093   5.806   2.782  0.00  0.00    -0.488 OA
ENDBRANCH  26  33
ENDBRANCH   1  26
TORSDOF 4
