REMARK  Name = ZINC24843214
REMARK  6 active torsions:
REMARK  status: ('A' for Active; 'I' for Inactive)
REMARK    1  A    between atoms: C_1  and  C_2
REMARK    2  A    between atoms: C_9  and  C_16
REMARK    3  A    between atoms: C_11  and  O_12
REMARK    4  A    between atoms: C_16  and  O_17
REMARK    5  A    between atoms: O_17  and  C_18
REMARK    6  A    between atoms: C_18  and  C_20
REMARK                            x       y       z     vdW  Elec       q    Type
REMARK                         _______ _______ _______ _____ _____    ______ ____
ROOT
ATOM      1  C   UNL     1      -0.706   1.507  -2.167  0.00  0.00    +0.109 C 
ATOM      2  C   UNL     1      -0.690  -0.000  -2.169  0.00  0.00    +0.214 C 
ATOM      3  O   UNL     1      -1.233  -0.611  -3.064  0.00  0.00    -0.276 OA
ATOM      4  N   UNL     1      -0.072  -0.669  -1.175  0.00  0.00    -0.286 N 
ATOM      5  C   UNL     1      -0.135  -2.062  -1.126  0.00  0.00    +0.037 A 
ATOM      6  C   UNL     1      -0.191  -2.709   0.108  0.00  0.00    +0.024 A 
ATOM      7  C   UNL     1      -0.260  -4.071   0.171  0.00  0.00    +0.014 A 
ATOM      8  C   UNL     1      -0.262  -4.823  -1.009  0.00  0.00    +0.024 A 
ATOM      9  C   UNL     1      -0.329  -6.285  -0.971  0.00  0.00    +0.007 A 
ATOM     10  C   UNL     1      -0.328  -6.959  -2.150  0.00  0.00    +0.095 A 
ATOM     11  C   UNL     1      -0.263  -6.247  -3.365  0.00  0.00    +0.285 A 
ATOM     12  O   UNL     1      -0.202  -4.906  -3.394  0.00  0.00    -0.425 OA
ATOM     13  C   UNL     1      -0.200  -4.176  -2.258  0.00  0.00    +0.141 A 
ATOM     14  C   UNL     1      -0.136  -2.792  -2.305  0.00  0.00    +0.070 A 
ATOM     15  H   UNL     1       0.483  -0.116  -0.402  0.00  0.00    +0.155 HD
ENDROOT
BRANCH  11  16
ATOM     16  O   UNL     1      -0.263  -6.863  -4.415  0.00  0.00    -0.480 OA
ATOM     17  H   UNL     1      -0.213  -6.321  -5.371  0.00  0.00    +0.295 HD
ENDBRANCH  11  16
BRANCH   9  18
ATOM     18  C   UNL     1      -0.398  -7.022   0.342  0.00  0.00    +0.269 C 
BRANCH  18  19
ATOM     19  O   UNL     1      -0.457  -8.451   0.092  0.00  0.00    -0.455 OA
BRANCH  19  20
ATOM     20  C   UNL     1      -0.523  -9.259   1.169  0.00  0.00    +0.361 C 
ATOM     21  O   UNL     1      -0.531  -8.781   2.286  0.00  0.00    -0.243 OA
BRANCH  20  22
ATOM     22  C   UNL     1      -0.585 -10.723   0.991  0.00  0.00    +0.187 A 
ATOM     23  C   UNL     1      -0.767 -11.562   2.103  0.00  0.00    +0.149 A 
ATOM     24  N   UNL     1      -0.822 -12.878   1.931  0.00  0.00    -0.237 NA
ATOM     25  C   UNL     1      -0.704 -13.391   0.720  0.00  0.00    +0.132 A 
ATOM     26  C   UNL     1      -0.524 -12.561  -0.378  0.00  0.00    +0.131 A 
ATOM     27  N   UNL     1      -0.474 -11.254  -0.224  0.00  0.00    -0.244 NA
ATOM     28  N   UNL     1      -0.889 -11.021   3.369  0.00  0.00    -0.341 N 
ATOM     29  H   UNL     1      -1.032 -11.680   4.238  0.00  0.00    +0.144 HD
ATOM     30  H   UNL     1      -0.843  -9.931   3.508  0.00  0.00    +0.144 HD
ENDBRANCH  20  22
ENDBRANCH  19  20
ENDBRANCH  18  19
ENDBRANCH   9  18
TORSDOF 5
