REMARK  Name = ZINC42085332
REMARK  10 active torsions:
REMARK  status: ('A' for Active; 'I' for Inactive)
REMARK    1  A    between atoms: C_1  and  C_2
REMARK    2  A    between atoms: C_5  and  C_9
REMARK    3  A    between atoms: C_7  and  C_8
REMARK    4  A    between atoms: N_11  and  C_12
REMARK    5  A    between atoms: C_12  and  C_13
REMARK    6  A    between atoms: N_15  and  N_16
REMARK    7  A    between atoms: N_16  and  C_17
REMARK    8  A    between atoms: C_17  and  N_19
REMARK    9  A    between atoms: N_19  and  C_20
REMARK   10  A    between atoms: C_26  and  C_28
REMARK                            x       y       z     vdW  Elec       q    Type
REMARK                         _______ _______ _______ _____ _____    ______ ____
ROOT
ATOM      1  C   UNL     1       0.083  -6.878  -2.624  0.00  0.00    +0.246 C 
ATOM      2  O   UNL     1       0.068  -6.085  -3.541  0.00  0.00    -0.273 OA
ATOM      3  N   UNL     1       0.100  -8.202  -2.877  0.00  0.00    -0.234 N 
ATOM      4  H   UNL     1       0.112  -8.836  -2.144  0.00  0.00    +0.173 HD
ENDROOT
BRANCH   3   5
ATOM      5  N   UNL     1       0.099  -8.662  -4.201  0.00  0.00    -0.246 N 
ATOM      6  H   UNL     1       0.087  -8.027  -4.935  0.00  0.00    +0.172 HD
BRANCH   5   7
ATOM      7  C   UNL     1       0.116  -9.985  -4.454  0.00  0.00    +0.147 C 
ATOM      8  S   UNL     1       0.116 -10.547  -6.072  0.00  0.00    -0.017 S 
BRANCH   7   9
ATOM      9  N   UNL     1       0.133 -10.866  -3.435  0.00  0.00    -0.322 N 
ATOM     10  H   UNL     1       0.134 -10.548  -2.519  0.00  0.00    +0.148 HD
BRANCH   9  11
ATOM     11  C   UNL     1       0.151 -12.305  -3.711  0.00  0.00    +0.075 C 
ATOM     12  C   UNL     1       1.594 -12.763  -3.937  0.00  0.00    +0.022 C 
ATOM     13  C   UNL     1       2.424 -12.473  -2.685  0.00  0.00    +0.002 C 
ATOM     14  C   UNL     1       1.830 -13.228  -1.494  0.00  0.00    +0.000 C 
ATOM     15  C   UNL     1       0.388 -12.770  -1.267  0.00  0.00    +0.005 C 
ATOM     16  C   UNL     1      -0.442 -13.060  -2.519  0.00  0.00    +0.006 C 
ATOM     17  C   UNL     1      -1.884 -12.602  -2.293  0.00  0.00    +0.009 C 
ENDBRANCH   9  11
ENDBRANCH   7   9
ENDBRANCH   5   7
ENDBRANCH   3   5
BRANCH   1  18
ATOM     18  C   UNL     1       0.084  -6.384  -1.200  0.00  0.00    +0.202 C 
BRANCH  18  21
ATOM     19  C   UNL     1       0.061  -4.251  -0.021  0.00  0.00    +0.244 C 
ATOM     20  O   UNL     1       0.074  -4.865   1.028  0.00  0.00    -0.270 OA
ATOM     21  N   UNL     1       0.064  -4.919  -1.192  0.00  0.00    -0.303 N 
ATOM     22  H   UNL     1       0.053  -4.429  -2.030  0.00  0.00    +0.150 HD
BRANCH  19  27
ATOM     23  C   UNL     1      -0.018   1.503   0.010  0.00  0.00    +0.044 C 
ATOM     24  C   UNL     1       0.002  -0.004   0.002  0.00  0.00    -0.047 A 
ATOM     25  C   UNL     1       0.006  -0.686  -1.202  0.00  0.00    +0.004 A 
ATOM     26  C   UNL     1       0.025  -2.066  -1.216  0.00  0.00    +0.013 A 
ATOM     27  C   UNL     1       0.041  -2.773  -0.013  0.00  0.00    +0.037 A 
ATOM     28  C   UNL     1       0.037  -2.079   1.197  0.00  0.00    +0.016 A 
ATOM     29  C   UNL     1       0.023  -0.699   1.198  0.00  0.00    -0.047 A 
ATOM     30  C   UNL     1       0.025   0.052   2.504  0.00  0.00    +0.044 C 
ENDBRANCH  19  27
ENDBRANCH  18  21
ENDBRANCH   1  18
TORSDOF 7
