REMARK  Name = ZINC31297566
REMARK  7 active torsions:
REMARK  status: ('A' for Active; 'I' for Inactive)
REMARK    1  A    between atoms: C_1  and  N_2
REMARK    2  A    between atoms: N_2  and  C_3
REMARK    3  A    between atoms: N_2  and  C_15
REMARK    4  A    between atoms: C_3  and  C_4
REMARK    5  A    between atoms: N_6  and  C_7
REMARK    6  A    between atoms: C_15  and  C_17
REMARK    7  A    between atoms: C_15  and  C_23
REMARK                            x       y       z     vdW  Elec       q    Type
REMARK                         _______ _______ _______ _____ _____    ______ ____
ROOT
ATOM      1  C   UNL     1      -1.872   1.899   1.502  0.00  0.00    +0.174 C 
ENDROOT
BRANCH   1   2
ATOM      2  C   UNL     1      -0.602   1.272   2.017  0.00  0.00    +0.242 C 
ATOM      3  O   UNL     1      -0.604   0.120   2.394  0.00  0.00    -0.273 OA
ATOM      4  N   UNL     1       0.537   1.991   2.055  0.00  0.00    -0.239 N 
ATOM      5  C   UNL     1       1.674   1.429   2.511  0.00  0.00    +0.303 C 
ATOM      6  O   UNL     1       1.672   0.274   2.888  0.00  0.00    -0.253 OA
ATOM      7  N   UNL     1       2.813   2.149   2.549  0.00  0.00    -0.313 N 
ATOM      8  H   UNL     1       0.539   3.037   1.714  0.00  0.00    +0.159 HD
ATOM      9  H   UNL     1       3.741   1.690   2.921  0.00  0.00    +0.146 HD
ATOM     10  H   UNL     1       2.815   3.194   2.207  0.00  0.00    +0.146 HD
ENDBRANCH   1   2
BRANCH   1  11
ATOM     11  C   UNL     1      -2.227   3.089   2.355  0.00  0.00    -0.021 A 
ATOM     12  C   UNL     1      -2.251   2.970   3.732  0.00  0.00    +0.005 A 
ATOM     13  C   UNL     1      -2.572   4.064   4.514  0.00  0.00    +0.000 A 
ATOM     14  C   UNL     1      -2.879   5.273   3.920  0.00  0.00    +0.000 A 
ATOM     15  C   UNL     1      -2.861   5.390   2.542  0.00  0.00    +0.000 A 
ATOM     16  C   UNL     1      -2.535   4.298   1.760  0.00  0.00    +0.005 A 
ENDBRANCH   1  11
BRANCH   1  18
ATOM     17  C   UNL     1      -3.326   0.611   2.947  0.00  0.00    +0.106 C 
ATOM     18  N   UNL     1      -2.961   0.914   1.557  0.00  0.00    -0.282 NA
BRANCH  18  19
ATOM     19  C   UNL     1      -4.128   1.378   0.795  0.00  0.00    +0.181 C 
BRANCH  19  20
ATOM     20  C   UNL     1      -5.123   0.253   0.667  0.00  0.00    +0.231 C 
ATOM     21  O   UNL     1      -4.883  -0.828   1.162  0.00  0.00    -0.274 OA
ATOM     22  N   UNL     1      -6.280   0.448   0.003  0.00  0.00    -0.282 N 
ATOM     23  H   UNL     1      -6.524   1.444  -0.396  0.00  0.00    +0.155 HD
BRANCH  22  24
ATOM     24  C   UNL     1      -7.170  -0.616  -0.180  0.00  0.00    +0.070 A 
ATOM     25  C   UNL     1      -6.691  -1.873  -0.530  0.00  0.00    +0.064 A 
ATOM     26  C   UNL     1      -7.574  -2.923  -0.705  0.00  0.00    +0.022 A 
ATOM     27  C   UNL     1      -8.932  -2.721  -0.543  0.00  0.00    +0.003 A 
ATOM     28  C   UNL     1      -9.413  -1.471  -0.201  0.00  0.00    +0.022 A 
ATOM     29  C   UNL     1      -8.536  -0.417  -0.019  0.00  0.00    +0.064 A 
ATOM     30 CL   UNL     1      -9.141   1.152   0.410  0.00  0.00    -0.082 Cl
ATOM     31 CL   UNL     1      -4.987  -2.126  -0.739  0.00  0.00    -0.082 Cl
ENDBRANCH  22  24
ENDBRANCH  19  20
ENDBRANCH  18  19
ENDBRANCH   1  18
TORSDOF 6
