REMARK  Name = ZINC45141960
REMARK  6 active torsions:
REMARK  status: ('A' for Active; 'I' for Inactive)
REMARK    1  A    between atoms: C_1  and  C_2
REMARK    2  A    between atoms: C_8  and  C_9
REMARK    3  A    between atoms: C_8  and  N_12
REMARK    4  A    between atoms: N_12  and  C_13
REMARK    5  A    between atoms: C_16  and  C_17
REMARK    6  A    between atoms: C_16  and  C_18
REMARK                            x       y       z     vdW  Elec       q    Type
REMARK                         _______ _______ _______ _____ _____    ______ ____
ROOT
ATOM      1  C   UNL     1      -0.019   1.526   0.010  0.00  0.00    +0.006 C 
ATOM      2  C   UNL     1       0.002  -0.004   0.002  0.00  0.00    -0.014 C 
ATOM      3  C   UNL     1       0.718  -0.497  -1.257  0.00  0.00    +0.002 C 
ATOM      4  C   UNL     1       2.154   0.032  -1.268  0.00  0.00    +0.000 C 
ATOM      5  C   UNL     1       2.894  -0.475  -0.028  0.00  0.00    -0.001 C 
ATOM      6  C   UNL     1       2.178   0.019   1.231  0.00  0.00    -0.001 C 
ATOM      7  C   UNL     1       0.742  -0.511   1.242  0.00  0.00    +0.038 C 
ENDROOT
BRANCH   7   8
ATOM      8  C   UNL     1       0.037  -0.025   2.481  0.00  0.00    +0.346 C 
ATOM      9  O   UNL     1      -0.408  -0.828   3.284  0.00  0.00    -0.248 OA
ATOM     10  O   UNL     1      -0.089   1.171   2.682  0.00  0.00    -0.248 OA
ENDBRANCH   7   8
BRANCH   7  11
ATOM     11  N   UNL     1       0.762  -1.980   1.234  0.00  0.00    +0.392 N 
ATOM     12  H   UNL     1      -0.185  -2.329   1.241  0.00  0.00    -0.084 HD
ATOM     13  H   UNL     1       1.234  -2.305   0.403  0.00  0.00    -0.084 HD
BRANCH  11  14
ATOM     14  C   UNL     1       1.472  -2.466   2.424  0.00  0.00    -0.064 C 
ATOM     15  C   UNL     1       2.768  -3.249   2.202  0.00  0.00    -0.011 C 
ATOM     16  C   UNL     1       1.502  -3.978   2.660  0.00  0.00    -0.049 C 
ATOM     17  C   UNL     1       1.454  -4.467   4.109  0.00  0.00    +0.009 C 
ATOM     18  C   UNL     1       0.790  -4.867   1.638  0.00  0.00    +0.009 C 
ENDBRANCH  11  14
ENDBRANCH   7  11
TORSDOF 3
