REMARK  Name = ZINC54894003
REMARK  8 active torsions:
REMARK  status: ('A' for Active; 'I' for Inactive)
REMARK    1  A    between atoms: C_1  and  N_2
REMARK    2  A    between atoms: C_3  and  C_5
REMARK    3  A    between atoms: C_5  and  O_6
REMARK    4  A    between atoms: O_6  and  C_7
REMARK    5  A    between atoms: C_10  and  C_13
REMARK    6  A    between atoms: C_13  and  N_14
REMARK    7  A    between atoms: C_15  and  C_16
REMARK    8  A    between atoms: C_25  and  O_26
REMARK                            x       y       z     vdW  Elec       q    Type
REMARK                         _______ _______ _______ _____ _____    ______ ____
ROOT
ATOM      1  N   UNL     1      -3.185  -8.794   1.361  0.00  0.00    -0.386 N 
ATOM      2  C   UNL     1      -4.276  -9.322   1.823  0.00  0.00    +0.090 C 
ATOM      3  H   UNL     1      -2.402  -8.724   1.929  0.00  0.00    +0.159 HD
ENDROOT
BRANCH   2   4
ATOM      4  C   UNL     1      -4.293  -9.913   3.167  0.00  0.00    +0.040 A 
ATOM      5  C   UNL     1      -5.473 -10.628   3.653  0.00  0.00    -0.006 A 
ATOM      6  C   UNL     1      -6.617 -10.774   2.860  0.00  0.00    +0.009 A 
ATOM      7  C   UNL     1      -7.695 -11.448   3.350  0.00  0.00    +0.001 A 
ATOM      8  C   UNL     1      -7.675 -11.995   4.631  0.00  0.00    +0.001 A 
ATOM      9  C   UNL     1      -6.578 -11.872   5.428  0.00  0.00    +0.008 A 
ATOM     10  C   UNL     1      -5.448 -11.184   4.955  0.00  0.00    -0.017 A 
ATOM     11  C   UNL     1      -4.297 -11.037   5.751  0.00  0.00    +0.012 A 
ATOM     12  C   UNL     1      -3.210 -10.370   5.285  0.00  0.00    +0.046 A 
ATOM     13  C   UNL     1      -3.183  -9.810   4.007  0.00  0.00    +0.126 A 
BRANCH  13  14
ATOM     14  O   UNL     1      -2.074  -9.157   3.579  0.00  0.00    -0.506 OA
ATOM     15  H   UNL     1      -2.071  -8.212   3.784  0.00  0.00    +0.292 HD
ENDBRANCH  13  14
ENDBRANCH   2   4
BRANCH   1  16
ATOM     16  C   UNL     1      -3.135  -8.303  -0.018  0.00  0.00    +0.147 C 
BRANCH  16  20
ATOM     17  C   UNL     1      -2.580  -4.066  -0.003  0.00  0.00    +0.121 A 
ATOM     18  C   UNL     1      -1.480  -4.910  -0.018  0.00  0.00    +0.046 A 
ATOM     19  C   UNL     1      -1.662  -6.280  -0.023  0.00  0.00    +0.009 A 
ATOM     20  C   UNL     1      -2.939  -6.808  -0.013  0.00  0.00    -0.028 A 
ATOM     21  C   UNL     1      -4.038  -5.968   0.002  0.00  0.00    +0.009 A 
ATOM     22  C   UNL     1      -3.861  -4.598   0.013  0.00  0.00    +0.046 A 
BRANCH  17  23
ATOM     23  O   UNL     1      -2.403  -2.718   0.002  0.00  0.00    -0.483 OA
BRANCH  23  24
ATOM     24  C   UNL     1      -1.057  -2.240  -0.016  0.00  0.00    +0.324 C 
BRANCH  24  27
ATOM     25  C   UNL     1       0.107   1.407  -0.013  0.00  0.00    +0.128 C 
ATOM     26  N   UNL     1       0.108  -0.058  -0.021  0.00  0.00    -0.316 N 
ATOM     27  C   UNL     1      -1.058  -0.733  -0.007  0.00  0.00    +0.250 C 
ATOM     28  O   UNL     1      -2.109  -0.128   0.012  0.00  0.00    -0.272 OA
ATOM     29  H   UNL     1       0.949  -0.542  -0.036  0.00  0.00    +0.148 HD
ENDBRANCH  24  27
ENDBRANCH  23  24
ENDBRANCH  17  23
ENDBRANCH  16  20
ENDBRANCH   1  16
TORSDOF 7
