REMARK  Name = ZINC05484674
REMARK  6 active torsions:
REMARK  status: ('A' for Active; 'I' for Inactive)
REMARK    1  A    between atoms: C_4  and  O_7
REMARK    2  A    between atoms: O_7  and  C_8
REMARK    3  A    between atoms: C_8  and  C_9
REMARK    4  A    between atoms: N_11  and  N_12
REMARK    5  A    between atoms: C_13  and  C_15
REMARK    6  A    between atoms: C_24  and  O_25
REMARK                            x       y       z     vdW  Elec       q    Type
REMARK                         _______ _______ _______ _____ _____    ______ ____
ROOT
ATOM      1  N   UNL     1      -3.754   3.417   0.060  0.00  0.00    -0.230 N 
ATOM      2  C   UNL     1      -3.721   2.070   0.052  0.00  0.00    +0.264 C 
ATOM      3  O   UNL     1      -4.758   1.436   0.059  0.00  0.00    -0.269 OA
ATOM      4  H   UNL     1      -2.926   3.923   0.054  0.00  0.00    +0.173 HD
ENDROOT
BRANCH   2   5
ATOM      5  C   UNL     1      -2.425   1.364   0.034  0.00  0.00    +0.080 A 
ATOM      6  C   UNL     1      -1.245   2.091   0.031  0.00  0.00    +0.025 A 
ATOM      7  C   UNL     1      -0.017   1.415   0.010  0.00  0.00    -0.017 A 
ATOM      8  C   UNL     1       1.200   2.121   0.002  0.00  0.00    +0.008 A 
ATOM      9  C   UNL     1       2.376   1.436  -0.013  0.00  0.00    +0.001 A 
ATOM     10  C   UNL     1       2.394   0.042  -0.021  0.00  0.00    +0.001 A 
ATOM     11  C   UNL     1       1.238  -0.675  -0.013  0.00  0.00    +0.008 A 
ATOM     12  C   UNL     1       0.002  -0.004   0.002  0.00  0.00    -0.014 A 
ATOM     13  C   UNL     1      -1.208  -0.718   0.010  0.00  0.00    +0.054 A 
ATOM     14  C   UNL     1      -2.395  -0.046   0.026  0.00  0.00    +0.130 A 
BRANCH  14  15
ATOM     15  O   UNL     1      -3.560  -0.743   0.033  0.00  0.00    -0.506 OA
ATOM     16  H   UNL     1      -3.889  -0.949   0.919  0.00  0.00    +0.292 HD
ENDBRANCH  14  15
ENDBRANCH   2   5
BRANCH   1  19
ATOM     17  C   UNL     1      -5.018   5.435   0.084  0.00  0.00    +0.267 C 
ATOM     18  O   UNL     1      -3.983   6.067   0.077  0.00  0.00    -0.271 OA
ATOM     19  N   UNL     1      -4.984   4.087   0.076  0.00  0.00    -0.231 N 
ATOM     20  H   UNL     1      -5.812   3.582   0.082  0.00  0.00    +0.173 HD
BRANCH  17  21
ATOM     21  C   UNL     1      -6.341   6.155   0.102  0.00  0.00    +0.326 C 
BRANCH  21  22
ATOM     22  O   UNL     1      -6.115   7.566   0.108  0.00  0.00    -0.483 OA
BRANCH  22  26
ATOM     23  C   UNL     1      -9.448   9.997   0.157  0.00  0.00    +0.000 A 
ATOM     24  C   UNL     1      -8.184  10.559   0.147  0.00  0.00    +0.004 A 
ATOM     25  C   UNL     1      -7.067   9.747   0.130  0.00  0.00    +0.045 A 
ATOM     26  C   UNL     1      -7.213   8.367   0.124  0.00  0.00    +0.121 A 
ATOM     27  C   UNL     1      -8.482   7.807   0.129  0.00  0.00    +0.045 A 
ATOM     28  C   UNL     1      -9.596   8.623   0.150  0.00  0.00    +0.004 A 
ENDBRANCH  22  26
ENDBRANCH  21  22
ENDBRANCH  17  21
ENDBRANCH   1  19
TORSDOF 6
