REMARK  Name = ZINC04236695
REMARK  14 active torsions:
REMARK  status: ('A' for Active; 'I' for Inactive)
REMARK    1  A    between atoms: C_1  and  C_2
REMARK    2  A    between atoms: C_2  and  C_3
REMARK    3  A    between atoms: C_3  and  N_4
REMARK    4  A    between atoms: C_5  and  O_7
REMARK    5  A    between atoms: O_7  and  C_8
REMARK    6  A    between atoms: C_12  and  C_38
REMARK    7  A    between atoms: C_15  and  C_16
REMARK    8  A    between atoms: C_15  and  C_17
REMARK    9  A    between atoms: C_17  and  O_18
REMARK   10  A    between atoms: C_21  and  O_37
REMARK   11  A    between atoms: C_23  and  C_25
REMARK   12  A    between atoms: C_25  and  C_26
REMARK   13  A    between atoms: N_28  and  C_29
REMARK   14  A    between atoms: C_29  and  C_30
REMARK                            x       y       z     vdW  Elec       q    Type
REMARK                         _______ _______ _______ _____ _____    ______ ____
ROOT
ATOM      1  C   UNL     1      -0.164  -0.242   0.131  0.00  0.00    +0.186 C 
ATOM      2  C   UNL     1      -0.144  -0.698  -1.329  0.00  0.00    +0.046 C 
ATOM      3  C   UNL     1      -0.097  -2.227  -1.385  0.00  0.00    +0.011 C 
ATOM      4  C   UNL     1      -1.331  -2.801  -0.687  0.00  0.00    -0.023 C 
ATOM      5  C   UNL     1      -1.350  -2.345   0.773  0.00  0.00    +0.007 C 
ATOM      6  C   UNL     1      -1.398  -0.816   0.829  0.00  0.00    +0.031 C 
ATOM      7  C   UNL     1      -1.417  -0.359   2.289  0.00  0.00    +0.017 C 
ATOM      8  C   UNL     1      -2.585  -2.919   1.471  0.00  0.00    +0.007 C 
ATOM      9  C   UNL     1      -2.537  -4.447   1.416  0.00  0.00    +0.032 C 
ATOM     10  C   UNL     1      -2.517  -4.904  -0.044  0.00  0.00    +0.119 C 
ATOM     11  C   UNL     1      -1.283  -4.330  -0.742  0.00  0.00    +0.032 C 
ATOM     12  C   UNL     1      -2.594  -2.304  -1.393  0.00  0.00    +0.012 C 
ENDROOT
BRANCH  10  13
ATOM     13  O   UNL     1      -3.697  -4.440  -0.704  0.00  0.00    -0.391 OA
ATOM     14  H   UNL     1      -4.520  -4.766  -0.315  0.00  0.00    +0.210 HD
ENDBRANCH  10  13
BRANCH   1  15
ATOM     15  O   UNL     1      -0.209   1.209   0.184  0.00  0.00    -0.446 OA
BRANCH  15  17
ATOM     16  N   UNL     1       0.999   3.203   0.260  0.00  0.00    -0.281 N 
ATOM     17  C   UNL     1       0.971   1.857   0.210  0.00  0.00    +0.401 C 
ATOM     18  O   UNL     1       2.010   1.227   0.190  0.00  0.00    -0.226 OA
ATOM     19  H   UNL     1       0.170   3.706   0.276  0.00  0.00    +0.152 HD
BRANCH  16  20
ATOM     20  C   UNL     1       2.283   3.908   0.288  0.00  0.00    +0.107 C 
BRANCH  20  22
ATOM     21  C   UNL     1       3.376   6.153   0.373  0.00  0.00    +0.005 C 
ATOM     22  C   UNL     1       2.035   5.417   0.343  0.00  0.00    +0.015 C 
ENDBRANCH  20  22
ENDBRANCH  16  20
ENDBRANCH  15  17
ENDBRANCH   1  15
BRANCH   6  23
ATOM     23  C   UNL     1      -2.661  -0.319   0.122  0.00  0.00    +0.166 C 
BRANCH  23  24
ATOM     24  O   UNL     1      -2.809   1.085   0.343  0.00  0.00    -0.394 OA
ATOM     25  H   UNL     1      -3.591   1.469  -0.078  0.00  0.00    +0.209 HD
ENDBRANCH  23  24
ENDBRANCH   6  23
BRANCH  11  26
ATOM     26  C   UNL     1      -1.264  -4.786  -2.203  0.00  0.00    +0.102 C 
BRANCH  26  27
ATOM     27  C   UNL     1      -1.093  -6.282  -2.259  0.00  0.00    +0.214 C 
ATOM     28  O   UNL     1      -0.996  -6.921  -1.232  0.00  0.00    -0.276 OA
ATOM     29  N   UNL     1      -1.048  -6.912  -3.450  0.00  0.00    -0.311 N 
ATOM     30  H   UNL     1      -1.125  -6.401  -4.271  0.00  0.00    +0.149 HD
BRANCH  29  31
ATOM     31  C   UNL     1      -0.882  -8.366  -3.504  0.00  0.00    +0.139 C 
BRANCH  31  32
ATOM     32  C   UNL     1      -0.863  -8.816  -4.942  0.00  0.00    -0.030 A 
ATOM     33  C   UNL     1      -2.043  -9.164  -5.573  0.00  0.00    +0.008 A 
ATOM     34  C   UNL     1      -2.027  -9.572  -6.893  0.00  0.00    +0.038 A 
ATOM     35  C   UNL     1      -0.828  -9.643  -7.581  0.00  0.00    +0.123 A 
ATOM     36  C   UNL     1       0.354  -9.298  -6.947  0.00  0.00    +0.038 A 
ATOM     37  C   UNL     1       0.335  -8.886  -5.628  0.00  0.00    +0.008 A 
ATOM     38  F   UNL     1      -0.811 -10.046  -8.870  0.00  0.00    -0.205 F 
ENDBRANCH  31  32
ENDBRANCH  29  31
ENDBRANCH  26  27
ENDBRANCH  11  26
TORSDOF 11
