REMARK  Name = ZINC08748678
REMARK  6 active torsions:
REMARK  status: ('A' for Active; 'I' for Inactive)
REMARK    1  A    between atoms: C_12  and  C_20
REMARK    2  A    between atoms: C_14  and  C_18
REMARK    3  A    between atoms: C_15  and  N_17
REMARK    4  A    between atoms: C_24  and  O_26
REMARK    5  A    between atoms: O_26  and  C_27
REMARK    6  A    between atoms: C_27  and  C_28
REMARK                            x       y       z     vdW  Elec       q    Type
REMARK                         _______ _______ _______ _____ _____    ______ ____
ROOT
ATOM      1  C   UNL     1       6.068   5.890  -3.038  0.00  0.00    +0.001 A 
ATOM      2  C   UNL     1       5.583   6.050  -4.329  0.00  0.00    +0.001 A 
ATOM      3  C   UNL     1       4.275   5.707  -4.621  0.00  0.00    +0.016 A 
ATOM      4  C   UNL     1       3.477   5.209  -3.614  0.00  0.00    +0.026 A 
ATOM      5  C   UNL     1       3.949   5.039  -2.301  0.00  0.00    +0.032 A 
ATOM      6  C   UNL     1       5.284   5.398  -2.038  0.00  0.00    +0.012 A 
ATOM      7  C   UNL     1       3.126   4.511  -1.204  0.00  0.00    +0.147 A 
ATOM      8  C   UNL     1       1.839   4.113  -1.238  0.00  0.00    +0.062 A 
ATOM      9  C   UNL     1       1.010   4.131  -2.399  0.00  0.00    +0.225 A 
ATOM     10  O   UNL     1      -0.152   3.757  -2.378  0.00  0.00    -0.280 OA
ATOM     11  S   UNL     1       1.788   4.738  -3.883  0.00  0.00    -0.047 S 
ATOM     12  C   UNL     1       1.151   3.596   0.010  0.00  0.00    +0.102 C 
ATOM     13  C   UNL     1       1.855   4.095   1.238  0.00  0.00    +0.098 C 
ATOM     14  C   UNL     1       3.151   4.492   1.152  0.00  0.00    +0.199 C 
ATOM     15  O   UNL     1       3.803   4.431  -0.015  0.00  0.00    -0.440 OA
ENDROOT
BRANCH  12  16
ATOM     16  C   UNL     1       1.171   2.089   0.002  0.00  0.00    -0.031 A 
ATOM     17  C   UNL     1       2.377   1.414  -0.013  0.00  0.00    +0.005 A 
ATOM     18  C   UNL     1       2.399   0.032  -0.021  0.00  0.00    +0.004 A 
ATOM     19  C   UNL     1       1.214  -0.679  -0.013  0.00  0.00    +0.045 A 
ATOM     20  C   UNL     1       0.002  -0.004   0.002  0.00  0.00    +0.121 A 
ATOM     21  C   UNL     1      -0.017   1.383   0.010  0.00  0.00    +0.050 A 
BRANCH  20  22
ATOM     22  O   UNL     1      -1.165  -0.701   0.009  0.00  0.00    -0.483 OA
BRANCH  22  23
ATOM     23  C   UNL     1      -1.069  -2.126   0.000  0.00  0.00    +0.324 C 
BRANCH  23  24
ATOM     24  C   UNL     1      -2.453  -2.723   0.010  0.00  0.00    +0.248 C 
ATOM     25  O   UNL     1      -3.426  -1.998   0.023  0.00  0.00    -0.272 OA
ATOM     26  N   UNL     1      -2.610  -4.061   0.004  0.00  0.00    -0.327 N 
ATOM     27  H   UNL     1      -1.833  -4.641  -0.006  0.00  0.00    +0.145 HD
ATOM     28  H   UNL     1      -3.501  -4.445   0.010  0.00  0.00    +0.145 HD
ENDBRANCH  23  24
ENDBRANCH  22  23
ENDBRANCH  20  22
ENDBRANCH  12  16
BRANCH  14  29
ATOM     29  N   UNL     1       3.796   4.959   2.270  0.00  0.00    -0.328 N 
ATOM     30  H   UNL     1       3.326   5.004   3.118  0.00  0.00    +0.145 HD
ATOM     31  H   UNL     1       4.721   5.243   2.213  0.00  0.00    +0.145 HD
ENDBRANCH  14  29
BRANCH  13  32
ATOM     32  C   UNL     1       1.166   4.152   2.492  0.00  0.00    +0.101 C 
ATOM     33  N   UNL     1       0.619   4.197   3.486  0.00  0.00    -0.191 NA
ENDBRANCH  13  32
TORSDOF 6
