REMARK  Name = ZINC22735139
REMARK  8 active torsions:
REMARK  status: ('A' for Active; 'I' for Inactive)
REMARK    1  A    between atoms: C_1  and  N_2
REMARK    2  A    between atoms: N_5  and  C_8
REMARK    3  A    between atoms: C_8  and  C_10
REMARK    4  A    between atoms: C_8  and  C_25
REMARK    5  A    between atoms: C_10  and  N_11
REMARK    6  A    between atoms: C_12  and  C_14
REMARK    7  A    between atoms: N_16  and  C_17
REMARK    8  A    between atoms: N_34  and  C_35
REMARK                            x       y       z     vdW  Elec       q    Type
REMARK                         _______ _______ _______ _____ _____    ______ ____
ROOT
ATOM      1  C   UNL     1       3.118  -1.857   3.970  0.00  0.00    +0.104 C 
ENDROOT
BRANCH   1   2
ATOM      2  C   UNL     1       2.384  -1.177   2.843  0.00  0.00    -0.028 A 
ATOM      3  C   UNL     1       1.511  -1.899   2.049  0.00  0.00    +0.007 A 
ATOM      4  C   UNL     1       0.843  -1.275   1.017  0.00  0.00    +0.024 A 
ATOM      5  C   UNL     1       1.042   0.084   0.766  0.00  0.00    +0.033 A 
ATOM      6  C   UNL     1       1.911   0.802   1.567  0.00  0.00    -0.026 A 
ATOM      7  C   UNL     1       2.581   0.168   2.601  0.00  0.00    +0.010 A 
ATOM      8  C   UNL     1       2.157   2.276   1.359  0.00  0.00    +0.038 C 
ATOM      9  C   UNL     1       1.647   2.693  -0.023  0.00  0.00    +0.024 C 
ATOM     10  C   UNL     1       0.239   2.111  -0.202  0.00  0.00    +0.105 C 
ATOM     11  N   UNL     1       0.343   0.654  -0.297  0.00  0.00    -0.333 N 
ATOM     12  C   UNL     1      -0.984   0.041  -0.444  0.00  0.00    +0.129 C 
ENDBRANCH   1   2
BRANCH   1  17
ATOM     13  C   UNL     1      -0.223  -4.722   7.509  0.00  0.00    -0.096 C 
ATOM     14  N   UNL     1       0.681  -3.782   6.833  0.00  0.00    +0.379 N 
ATOM     15  C   UNL     1       1.927  -4.448   6.431  0.00  0.00    -0.064 C 
ATOM     16  C   UNL     1       2.872  -3.420   5.803  0.00  0.00    +0.066 C 
ATOM     17  N   UNL     1       2.214  -2.797   4.646  0.00  0.00    -0.297 NA
ATOM     18  C   UNL     1       0.967  -2.131   5.048  0.00  0.00    +0.066 C 
ATOM     19  C   UNL     1       0.023  -3.159   5.676  0.00  0.00    -0.064 C 
ATOM     20  H   UNL     1       0.936  -2.986   7.548  0.00  0.00    -0.082 HD
ENDBRANCH   1  17
BRANCH   1  21
ATOM     21  C   UNL     1       4.319  -2.619   3.408  0.00  0.00    +0.128 C 
BRANCH  21  22
ATOM     22  N   UNL     1       5.261  -1.672   2.806  0.00  0.00    -0.306 N 
ATOM     23  C   UNL     1       6.445  -2.108   2.333  0.00  0.00    +0.299 C 
ATOM     24  O   UNL     1       6.732  -3.285   2.406  0.00  0.00    -0.265 OA
ATOM     25  H   UNL     1       5.001  -0.606   2.739  0.00  0.00    +0.149 HD
BRANCH  23  26
ATOM     26  C   UNL     1       7.405  -1.142   1.719  0.00  0.00    +0.303 C 
ATOM     27  O   UNL     1       7.118   0.035   1.645  0.00  0.00    -0.265 OA
ATOM     28  N   UNL     1       8.590  -1.578   1.246  0.00  0.00    -0.275 N 
ATOM     29  H   UNL     1       8.817  -2.654   1.239  0.00  0.00    +0.155 HD
BRANCH  28  30
ATOM     30  C   UNL     1       9.530  -0.662   0.765  0.00  0.00    +0.072 A 
ATOM     31  C   UNL     1       9.623   0.602   1.331  0.00  0.00    +0.064 A 
ATOM     32  C   UNL     1      10.557   1.505   0.855  0.00  0.00    +0.125 A 
ATOM     33  C   UNL     1      11.392   1.151  -0.192  0.00  0.00    +0.041 A 
ATOM     34  C   UNL     1      11.299  -0.105  -0.761  0.00  0.00    +0.043 A 
ATOM     35  C   UNL     1      10.370  -1.013  -0.287  0.00  0.00    +0.145 A 
ATOM     36  F   UNL     1      10.280  -2.241  -0.844  0.00  0.00    -0.204 F 
ATOM     37  F   UNL     1      10.651   2.733   1.409  0.00  0.00    -0.205 F 
ENDBRANCH  28  30
ENDBRANCH  23  26
ENDBRANCH  21  22
ENDBRANCH   1  21
TORSDOF 6
