REMARK  Name = ZINC30681929
REMARK  6 active torsions:
REMARK  status: ('A' for Active; 'I' for Inactive)
REMARK    1  A    between atoms: C_1  and  C_2
REMARK    2  A    between atoms: C_12  and  C_16
REMARK    3  A    between atoms: N_18  and  C_19
REMARK    4  A    between atoms: C_19  and  C_20
REMARK    5  A    between atoms: C_20  and  C_21
REMARK    6  A    between atoms: C_21  and  N_22
REMARK                            x       y       z     vdW  Elec       q    Type
REMARK                         _______ _______ _______ _____ _____    ______ ____
ROOT
ATOM      1  C   UNL     1      -4.385  -3.037  -3.042  0.00  0.00    +0.246 C 
ATOM      2  O   UNL     1      -5.023  -3.495  -2.115  0.00  0.00    -0.270 OA
ATOM      3  N   UNL     1      -3.296  -2.279  -2.803  0.00  0.00    -0.311 N 
ATOM      4  H   UNL     1      -2.719  -1.864  -3.642  0.00  0.00    +0.149 HD
ENDROOT
BRANCH   1  15
ATOM      5  C   UNL     1     -10.425  -7.010  -7.584  0.00  0.00    +0.008 C 
ATOM      6  C   UNL     1      -9.681  -6.205  -6.517  0.00  0.00    -0.009 C 
ATOM      7  C   UNL     1      -9.449  -7.082  -5.284  0.00  0.00    +0.009 C 
ATOM      8  C   UNL     1      -8.932  -6.216  -4.130  0.00  0.00    +0.054 C 
ATOM      9  C   UNL     1      -7.770  -5.390  -4.633  0.00  0.00    +0.020 A 
ATOM     10  C   UNL     1      -7.509  -5.188  -5.939  0.00  0.00    -0.019 A 
ATOM     11  C   UNL     1      -6.315  -4.351  -6.017  0.00  0.00    +0.004 A 
ATOM     12  C   UNL     1      -5.567  -3.815  -7.067  0.00  0.00    +0.010 A 
ATOM     13  C   UNL     1      -4.457  -3.042  -6.801  0.00  0.00    +0.001 A 
ATOM     14  C   UNL     1      -4.075  -2.784  -5.497  0.00  0.00    +0.015 A 
ATOM     15  C   UNL     1      -4.801  -3.312  -4.431  0.00  0.00    +0.061 A 
ATOM     16  C   UNL     1      -5.934  -4.102  -4.685  0.00  0.00    +0.059 A 
ATOM     17  N   UNL     1      -6.836  -4.744  -3.874  0.00  0.00    -0.357 N 
ATOM     18  H   UNL     1      -6.888  -4.793  -2.776  0.00  0.00    +0.166 HD
ATOM     19  C   UNL     1      -8.327  -5.745  -7.074  0.00  0.00    +0.040 C 
ENDBRANCH   1  15
BRANCH   3  20
ATOM     20  C   UNL     1      -2.883  -2.006  -1.424  0.00  0.00    +0.106 C 
BRANCH  20  21
ATOM     21  C   UNL     1      -1.630  -1.129  -1.431  0.00  0.00    +0.038 C 
BRANCH  21  22
ATOM     22  C   UNL     1      -1.198  -0.844   0.009  0.00  0.00    +0.119 C 
BRANCH  22  23
ATOM     23  N   UNL     1       0.002  -0.004   0.002  0.00  0.00    -0.224 N 
ATOM     24  C   UNL     1      -0.016   1.346   0.009  0.00  0.00    +0.246 C 
ATOM     25  O   UNL     1      -0.990   2.069   0.018  0.00  0.00    -0.273 OA
ATOM     26  C   UNL     1       1.432   1.764  -0.002  0.00  0.00    +0.113 C 
ATOM     27  C   UNL     1       1.776   2.597   1.240  0.00  0.00    +0.035 C 
ATOM     28  C   UNL     1       2.812   3.628   0.724  0.00  0.00    +0.003 C 
ATOM     29  C   UNL     1       2.288   3.964  -0.695  0.00  0.00    +0.003 C 
ATOM     30  C   UNL     1       1.755   2.617  -1.231  0.00  0.00    +0.035 C 
ATOM     31  N   UNL     1       2.177   0.503  -0.016  0.00  0.00    -0.285 N 
ATOM     32  C   UNL     1       1.254  -0.480  -0.013  0.00  0.00    +0.309 C 
ATOM     33  O   UNL     1       1.527  -1.664  -0.022  0.00  0.00    -0.252 OA
ATOM     34  H   UNL     1       3.277   0.514  -0.026  0.00  0.00    +0.151 HD
ENDBRANCH  22  23
ENDBRANCH  21  22
ENDBRANCH  20  21
ENDBRANCH   3  20
TORSDOF 5
