REMARK  Name = ZINC56947110
REMARK  9 active torsions:
REMARK  status: ('A' for Active; 'I' for Inactive)
REMARK    1  A    between atoms: C_1  and  C_2
REMARK    2  A    between atoms: C_5  and  C_31
REMARK    3  A    between atoms: N_8  and  C_10
REMARK    4  A    between atoms: C_10  and  C_11
REMARK    5  A    between atoms: C_11  and  C_13
REMARK    6  A    between atoms: C_11  and  N_14
REMARK    7  A    between atoms: N_17  and  C_18
REMARK    8  A    between atoms: C_18  and  C_19
REMARK    9  A    between atoms: N_23  and  C_25
REMARK                            x       y       z     vdW  Elec       q    Type
REMARK                         _______ _______ _______ _____ _____    ______ ____
ROOT
ATOM      1  N   UNL     1       2.811  -0.157   2.272  0.00  0.00    -0.299 N 
ATOM      2  C   UNL     1       3.852   0.578   1.833  0.00  0.00    +0.300 C 
ATOM      3  O   UNL     1       4.300   1.473   2.525  0.00  0.00    -0.253 OA
ATOM      4  N   UNL     1       4.398   0.322   0.627  0.00  0.00    -0.299 N 
ATOM      5  H   UNL     1       2.454  -0.870   1.720  0.00  0.00    +0.150 HD
ATOM      6  H   UNL     1       4.041  -0.391   0.075  0.00  0.00    +0.150 HD
ENDROOT
BRANCH   1   7
ATOM      7  C   UNL     1       2.219   0.122   3.582  0.00  0.00    +0.055 C 
ATOM      8  C   UNL     1       2.982  -0.649   4.661  0.00  0.00    +0.026 C 
BRANCH   7   9
ATOM      9  C   UNL     1       0.753  -0.316   3.583  0.00  0.00    -0.057 C 
BRANCH   9  15
ATOM     10  C   UNL     1      -1.275   0.115  -0.093  0.00  0.00    +0.005 C 
ATOM     11  C   UNL     1      -2.038   0.444   1.192  0.00  0.00    -0.031 C 
ATOM     12  C   UNL     1      -2.095   1.963   1.379  0.00  0.00    +0.003 C 
ATOM     13  C   UNL     1      -0.670   2.499   1.549  0.00  0.00    -0.031 C 
ATOM     14  C   UNL     1      -0.004   1.794   2.732  0.00  0.00    -0.076 C 
ATOM     15  N   UNL     1       0.043   0.348   2.481  0.00  0.00    +0.381 N 
ATOM     16  C   UNL     1      -1.322  -0.186   2.388  0.00  0.00    -0.076 C 
ATOM     17  C   UNL     1      -0.720   4.005   1.814  0.00  0.00    +0.005 C 
ATOM     18  H   UNL     1       0.531   0.174   1.616  0.00  0.00    -0.082 HD
ENDBRANCH   9  15
ENDBRANCH   7   9
ENDBRANCH   1   7
BRANCH   4  19
ATOM     19  C   UNL     1       5.529   1.121   0.150  0.00  0.00    +0.110 C 
BRANCH  19  20
ATOM     20  C   UNL     1       5.954   0.628  -1.234  0.00  0.00    +0.025 C 
ATOM     21  C   UNL     1       6.605  -0.778  -1.149  0.00  0.00    +0.025 C 
ATOM     22  C   UNL     1       7.534  -0.804  -2.381  0.00  0.00    +0.105 C 
ATOM     23  N   UNL     1       7.810   0.593  -2.749  0.00  0.00    -0.330 N 
ATOM     24  C   UNL     1       7.121   1.479  -1.793  0.00  0.00    +0.110 C 
BRANCH  23  25
ATOM     25  C   UNL     1       8.597   1.011  -3.825  0.00  0.00    +0.030 A 
ATOM     26  C   UNL     1       8.787   2.366  -4.063  0.00  0.00    +0.023 A 
ATOM     27  C   UNL     1       9.565   2.776  -5.128  0.00  0.00    +0.002 A 
ATOM     28  C   UNL     1      10.154   1.839  -5.957  0.00  0.00    +0.000 A 
ATOM     29  C   UNL     1       9.967   0.489  -5.722  0.00  0.00    +0.002 A 
ATOM     30  C   UNL     1       9.195   0.072  -4.656  0.00  0.00    +0.023 A 
ENDBRANCH  23  25
ENDBRANCH  19  20
ENDBRANCH   4  19
TORSDOF 6
