REMARK  Name = ZINC25537172
REMARK  10 active torsions:
REMARK  status: ('A' for Active; 'I' for Inactive)
REMARK    1  A    between atoms: C_1  and  C_2
REMARK    2  A    between atoms: C_2  and  C_3
REMARK    3  A    between atoms: C_3  and  C_4
REMARK    4  A    between atoms: C_4  and  C_6
REMARK    5  A    between atoms: C_4  and  N_23
REMARK    6  A    between atoms: N_8  and  C_9
REMARK    7  A    between atoms: N_12  and  C_15
REMARK    8  A    between atoms: C_15  and  C_16
REMARK    9  A    between atoms: N_26  and  C_27
REMARK   10  A    between atoms: C_27  and  C_28
REMARK                            x       y       z     vdW  Elec       q    Type
REMARK                         _______ _______ _______ _____ _____    ______ ____
ROOT
ATOM      1  C   UNL     1       3.116   5.640   6.026  0.00  0.00    +0.234 C 
ATOM      2  O   UNL     1       4.191   5.225   5.646  0.00  0.00    -0.274 OA
ATOM      3  N   UNL     1       2.081   5.714   5.167  0.00  0.00    -0.311 N 
ATOM      4  H   UNL     1       1.106   6.090   5.511  0.00  0.00    +0.149 HD
ENDROOT
BRANCH   3   5
ATOM      5  C   UNL     1       2.253   5.294   3.774  0.00  0.00    +0.069 C 
ATOM      6  C   UNL     1       1.230   6.014   2.892  0.00  0.00    +0.003 C 
ATOM      7  C   UNL     1       1.374   5.526   1.449  0.00  0.00    -0.077 C 
ATOM      8  N   UNL     1       1.156   4.075   1.397  0.00  0.00    +0.382 N 
ATOM      9  C   UNL     1       2.156   3.359   2.199  0.00  0.00    -0.077 C 
ATOM     10  C   UNL     1       2.035   3.783   3.665  0.00  0.00    +0.003 C 
ATOM     11  H   UNL     1       0.167   3.869   1.833  0.00  0.00    -0.081 HD
BRANCH   8  12
ATOM     12  C   UNL     1       1.150   3.592   0.010  0.00  0.00    -0.043 C 
BRANCH  12  13
ATOM     13  C   UNL     1       1.171   2.086   0.002  0.00  0.00    -0.064 A 
ATOM     14  C   UNL     1      -0.017   1.378   0.010  0.00  0.00    +0.003 A 
ATOM     15  C   UNL     1       0.002  -0.004   0.002  0.00  0.00    +0.020 A 
ATOM     16  C   UNL     1       1.210  -0.679  -0.013  0.00  0.00    +0.041 A 
ATOM     17  C   UNL     1       2.398   0.030  -0.021  0.00  0.00    +0.020 A 
ATOM     18  C   UNL     1       2.378   1.412  -0.013  0.00  0.00    +0.003 A 
ATOM     19 CL   UNL     1       1.234  -2.415  -0.022  0.00  0.00    -0.084 Cl
ENDBRANCH  12  13
ENDBRANCH   8  12
ENDBRANCH   3   5
BRANCH   1  20
ATOM     20  C   UNL     1       2.939   6.072   7.459  0.00  0.00    +0.160 C 
BRANCH  20  21
ATOM     21  N   UNL     1       4.201   5.896   8.182  0.00  0.00    -0.288 N 
ATOM     22  C   UNL     1       4.194   5.723   9.518  0.00  0.00    +0.300 C 
ATOM     23  O   UNL     1       3.139   5.713  10.124  0.00  0.00    -0.253 OA
ATOM     24  N   UNL     1       5.354   5.560  10.184  0.00  0.00    -0.295 N 
ATOM     25  H   UNL     1       5.155   5.905   7.634  0.00  0.00    +0.151 HD
ATOM     26  H   UNL     1       6.308   5.569   9.636  0.00  0.00    +0.151 HD
BRANCH  24  27
ATOM     27  C   UNL     1       5.346   5.372  11.636  0.00  0.00    +0.141 C 
BRANCH  27  28
ATOM     28  C   UNL     1       6.761   5.215  12.131  0.00  0.00    -0.030 A 
ATOM     29  C   UNL     1       7.330   3.958  12.209  0.00  0.00    +0.008 A 
ATOM     30  C   UNL     1       8.629   3.813  12.657  0.00  0.00    +0.038 A 
ATOM     31  C   UNL     1       9.357   4.927  13.039  0.00  0.00    +0.123 A 
ATOM     32  C   UNL     1       8.785   6.186  12.965  0.00  0.00    +0.038 A 
ATOM     33  C   UNL     1       7.487   6.328  12.511  0.00  0.00    +0.008 A 
ATOM     34  F   UNL     1      10.626   4.787  13.482  0.00  0.00    -0.205 F 
ENDBRANCH  27  28
ENDBRANCH  24  27
ENDBRANCH  20  21
BRANCH  20  35
ATOM     35  C   UNL     1       2.530   7.546   7.500  0.00  0.00    +0.031 C 
BRANCH  35  37
ATOM     36  C   UNL     1       1.819   9.425   8.986  0.00  0.00    +0.004 C 
ATOM     37  C   UNL     1       2.229   7.951   8.944  0.00  0.00    -0.001 C 
ENDBRANCH  35  37
ENDBRANCH  20  35
ENDBRANCH   1  20
TORSDOF 9
