REMARK  Name = ZINC10309584
REMARK  4 active torsions:
REMARK  status: ('A' for Active; 'I' for Inactive)
REMARK    1  A    between atoms: N_5  and  S_8
REMARK    2  A    between atoms: S_8  and  N_11
REMARK    3  A    between atoms: C_16  and  C_17
REMARK    4  A    between atoms: C_16  and  N_51
REMARK                            x       y       z     vdW  Elec       q    Type
REMARK                         _______ _______ _______ _____ _____    ______ ____
ROOT
ATOM      1  N   UNL     1      -2.025   1.549  -3.646  0.00  0.00    -0.170 NA
ATOM      2  C   UNL     1      -0.627   2.002  -3.591  0.00  0.00    +0.092 C 
ATOM      3  C   UNL     1       0.059   1.323  -2.401  0.00  0.00    -0.061 C 
ATOM      4  C   UNL     1      -2.062   0.976  -1.276  0.00  0.00    -0.061 C 
ATOM      5  C   UNL     1      -2.834   1.641  -2.421  0.00  0.00    +0.092 C 
ATOM      6  N   UNL     1      -0.726   1.603  -1.178  0.00  0.00    +0.386 N 
ATOM      7  H   UNL     1      -0.841   2.618  -1.082  0.00  0.00    -0.081 HD
ENDROOT
BRANCH   1   8
ATOM      8  S   UNL     1      -2.671   0.953  -5.049  0.00  0.00    +0.099 S 
ATOM      9  O   UNL     1      -4.078   1.136  -4.958  0.00  0.00    -0.141 OA
ATOM     10  O   UNL     1      -1.900   1.493  -6.113  0.00  0.00    -0.141 OA
BRANCH   8  15
ATOM     11  C   UNL     1      -2.276  -2.626  -7.341  0.00  0.00    +0.001 C 
ATOM     12  C   UNL     1      -3.683  -2.467  -6.772  0.00  0.00    +0.001 C 
ATOM     13  C   UNL     1      -3.673  -2.825  -5.307  0.00  0.00    +0.017 C 
ATOM     14  C   UNL     1      -3.426  -1.566  -4.456  0.00  0.00    +0.110 C 
ATOM     15  N   UNL     1      -2.406  -0.682  -5.054  0.00  0.00    -0.166 NA
ATOM     16  C   UNL     1      -1.189  -1.184  -5.650  0.00  0.00    +0.110 C 
ATOM     17  C   UNL     1      -1.410  -1.451  -7.154  0.00  0.00    +0.017 C 
ENDBRANCH   8  15
ENDBRANCH   1   8
BRANCH   6  18
ATOM     18  C   UNL     1      -0.013   1.086   0.008  0.00  0.00    -0.001 C 
BRANCH  18  19
ATOM     19  C   UNL     1      -0.718   1.572   1.248  0.00  0.00    +0.120 A 
ATOM     20  N   UNL     1      -0.374   2.726   1.792  0.00  0.00    -0.202 NA
ATOM     21  C   UNL     1      -0.998   3.161   2.885  0.00  0.00    +0.217 A 
ATOM     22  N   UNL     1      -1.961   2.428   3.434  0.00  0.00    -0.181 NA
ATOM     23  C   UNL     1      -2.300   1.266   2.887  0.00  0.00    +0.217 A 
ATOM     24  N   UNL     1      -1.675   0.840   1.791  0.00  0.00    -0.202 NA
ATOM     25  N   UNL     1      -3.299   0.501   3.454  0.00  0.00    -0.327 N 
ATOM     26  N   UNL     1      -0.642   4.369   3.449  0.00  0.00    -0.327 N 
ATOM     27  H   UNL     1      -3.546  -0.348   3.054  0.00  0.00    +0.145 HD
ATOM     28  H   UNL     1      -3.754   0.812   4.252  0.00  0.00    +0.145 HD
ATOM     29  H   UNL     1      -1.094   4.683   4.247  0.00  0.00    +0.145 HD
ATOM     30  H   UNL     1       0.061   4.903   3.048  0.00  0.00    +0.145 HD
ENDBRANCH  18  19
ENDBRANCH   6  18
TORSDOF 4
