REMARK  Name = ZINC41092528
REMARK  2 active torsions:
REMARK  status: ('A' for Active; 'I' for Inactive)
REMARK    1  A    between atoms: C_5  and  N_8
REMARK    2  A    between atoms: N_8  and  C_9
REMARK                            x       y       z     vdW  Elec       q    Type
REMARK                         _______ _______ _______ _____ _____    ______ ____
ROOT
ATOM      1  C   UNL     1      -0.027   1.367  -0.259  0.00  0.00    +0.048 A 
ATOM      2  C   UNL     1       1.160   2.068  -0.400  0.00  0.00    +0.077 A 
ATOM      3  C   UNL     1       2.376   1.388  -0.416  0.00  0.00    +0.144 A 
ATOM      4  C   UNL     1       2.399   0.010  -0.290  0.00  0.00    +0.072 A 
ATOM      5  C   UNL     1       1.209  -0.691  -0.148  0.00  0.00    +0.050 A 
ATOM      6  C   UNL     1      -0.003  -0.010  -0.133  0.00  0.00    +0.064 A 
ATOM      7 CL   UNL     1      -1.489  -0.890   0.045  0.00  0.00    -0.082 Cl
ATOM      8  O   UNL     1       3.533   2.089  -0.558  0.00  0.00    -0.481 OA
ATOM      9  C   UNL     1       3.474   3.270  -1.363  0.00  0.00    +0.325 C 
ATOM     10  C   UNL     1       2.268   4.087  -0.976  0.00  0.00    +0.255 C 
ATOM     11  O   UNL     1       2.297   5.296  -1.067  0.00  0.00    -0.272 OA
ATOM     12  N   UNL     1       1.154   3.467  -0.528  0.00  0.00    -0.280 N 
ATOM     13  H   UNL     1       0.363   3.979  -0.299  0.00  0.00    +0.155 HD
ENDROOT
BRANCH   5  14
ATOM     14  N   UNL     1       1.229  -2.084  -0.020  0.00  0.00    -0.339 N 
ATOM     15  H   UNL     1       0.398  -2.574   0.079  0.00  0.00    +0.146 HD
BRANCH  14  16
ATOM     16  C   UNL     1       2.506  -2.803  -0.036  0.00  0.00    +0.074 C 
ATOM     17  C   UNL     1       2.339  -4.211   0.579  0.00  0.00    +0.026 C 
ATOM     18  C   UNL     1       2.712  -5.191  -0.575  0.00  0.00    -0.009 C 
ATOM     19  C   UNL     1       1.527  -5.079  -1.581  0.00  0.00    +0.004 C 
ATOM     20  C   UNL     1       1.673  -3.671  -2.202  0.00  0.00    +0.005 C 
ATOM     21  C   UNL     1       2.966  -3.062  -1.503  0.00  0.00    +0.009 C 
ATOM     22  C   UNL     1       3.824  -4.363  -1.311  0.00  0.00    +0.009 C 
ENDBRANCH  14  16
ENDBRANCH   5  14
TORSDOF 2
