REMARK  Name = ZINC57292271
REMARK  4 active torsions:
REMARK  status: ('A' for Active; 'I' for Inactive)
REMARK    1  A    between atoms: C_1  and  C_2
REMARK    2  A    between atoms: N_4  and  N_5
REMARK    3  A    between atoms: C_6  and  C_8
REMARK    4  A    between atoms: C_11  and  C_13
REMARK                            x       y       z     vdW  Elec       q    Type
REMARK                         _______ _______ _______ _____ _____    ______ ____
ROOT
ATOM      1  C   UNL     1      -2.275  -4.257   0.001  0.00  0.00    +0.135 A 
ATOM      2  C   UNL     1      -3.445  -4.966   0.003  0.00  0.00    +0.080 A 
ATOM      3  S   UNL     1      -2.906  -6.561  -0.009  0.00  0.00    -0.074 S 
ATOM      4  C   UNL     1      -1.152  -6.237  -0.017  0.00  0.00    +0.116 A 
ATOM      5  N   UNL     1      -1.122  -4.914  -0.014  0.00  0.00    -0.234 NA
ENDROOT
BRANCH   4   6
ATOM      6  C   UNL     1      -0.032  -7.191  -0.028  0.00  0.00    +0.046 A 
ATOM      7  C   UNL     1      -0.065  -8.562  -0.042  0.00  0.00    +0.019 A 
ATOM      8  C   UNL     1       1.126  -9.252  -0.051  0.00  0.00    +0.028 A 
ATOM      9  C   UNL     1       2.294  -8.556  -0.046  0.00  0.00    +0.079 A 
ATOM     10  S   UNL     1       1.723  -6.865  -0.035  0.00  0.00    -0.075 S 
ATOM     11 CL   UNL     1       3.923  -9.158  -0.056  0.00  0.00    -0.076 Cl
ENDBRANCH   4   6
BRANCH   1  13
ATOM     12  N   UNL     1      -1.137  -2.095   0.002  0.00  0.00    -0.229 N 
ATOM     13  C   UNL     1      -2.295  -2.784   0.009  0.00  0.00    +0.279 C 
ATOM     14  O   UNL     1      -3.356  -2.191   0.022  0.00  0.00    -0.267 OA
ATOM     15  H   UNL     1      -0.290  -2.568  -0.009  0.00  0.00    +0.173 HD
BRANCH  12  19
ATOM     16  C   UNL     1      -0.018   1.503   0.010  0.00  0.00    +0.110 C 
ATOM     17  C   UNL     1       0.002  -0.004   0.002  0.00  0.00    +0.226 C 
ATOM     18  O   UNL     1       1.060  -0.596  -0.011  0.00  0.00    -0.275 OA
ATOM     19  N   UNL     1      -1.156  -0.694   0.009  0.00  0.00    -0.234 N 
ATOM     20  H   UNL     1      -2.002  -0.220   0.020  0.00  0.00    +0.173 HD
ENDBRANCH  12  19
ENDBRANCH   1  13
TORSDOF 3
