REMARK  Name = ZINC08194687
REMARK  5 active torsions:
REMARK  status: ('A' for Active; 'I' for Inactive)
REMARK    1  A    between atoms: N_9  and  C_24
REMARK    2  A    between atoms: C_10  and  C_13
REMARK    3  A    between atoms: C_16  and  O_19
REMARK    4  A    between atoms: O_19  and  C_20
REMARK    5  A    between atoms: C_20  and  C_21
REMARK                            x       y       z     vdW  Elec       q    Type
REMARK                         _______ _______ _______ _____ _____    ______ ____
ROOT
ATOM      1  C   UNL     1       1.118   5.755   4.904  0.00  0.00    +0.001 A 
ATOM      2  C   UNL     1       2.322   5.818   4.220  0.00  0.00    +0.002 A 
ATOM      3  C   UNL     1       2.343   5.989   2.849  0.00  0.00    +0.024 A 
ATOM      4  C   UNL     1       1.150   6.098   2.153  0.00  0.00    +0.041 A 
ATOM      5  C   UNL     1      -0.073   6.027   2.842  0.00  0.00    +0.058 A 
ATOM      6  C   UNL     1      -0.079   5.859   4.225  0.00  0.00    +0.015 A 
ATOM      7  C   UNL     1      -1.324   6.128   2.071  0.00  0.00    +0.254 C 
ATOM      8  O   UNL     1      -2.391   6.243   2.644  0.00  0.00    -0.270 OA
ATOM      9  N   UNL     1      -1.274   6.093   0.728  0.00  0.00    -0.244 N 
ATOM     10  C   UNL     1      -0.033   5.778   0.020  0.00  0.00    +0.198 C 
ATOM     11  N   UNL     1       1.121   6.280   0.775  0.00  0.00    -0.321 N 
ATOM     12  H   UNL     1       1.850   6.730   0.321  0.00  0.00    +0.148 HD
ENDROOT
BRANCH   9  13
ATOM     13  C   UNL     1      -2.436   6.362  -0.006  0.00  0.00    +0.042 A 
ATOM     14  C   UNL     1      -3.573   5.590   0.186  0.00  0.00    +0.027 A 
ATOM     15  C   UNL     1      -4.722   5.857  -0.534  0.00  0.00    +0.051 A 
ATOM     16  C   UNL     1      -4.738   6.889  -1.458  0.00  0.00    +0.166 A 
ATOM     17  C   UNL     1      -3.597   7.663  -1.657  0.00  0.00    +0.168 A 
ATOM     18  C   UNL     1      -2.448   7.397  -0.931  0.00  0.00    +0.073 A 
ATOM     19  O   UNL     1      -3.868   8.604  -2.608  0.00  0.00    -0.453 OA
ATOM     20  C   UNL     1      -5.304   8.662  -2.694  0.00  0.00    +0.466 C 
ATOM     21  O   UNL     1      -5.724   7.347  -2.285  0.00  0.00    -0.453 OA
ENDBRANCH   9  13
BRANCH  10  22
ATOM     22  C   UNL     1       0.086   4.284  -0.138  0.00  0.00    -0.009 A 
ATOM     23  C   UNL     1       1.335   3.692  -0.188  0.00  0.00    +0.010 A 
ATOM     24  C   UNL     1       1.447   2.323  -0.334  0.00  0.00    +0.046 A 
ATOM     25  C   UNL     1       0.305   1.542  -0.430  0.00  0.00    +0.121 A 
ATOM     26  C   UNL     1      -0.947   2.138  -0.385  0.00  0.00    +0.046 A 
ATOM     27  C   UNL     1      -1.054   3.507  -0.234  0.00  0.00    +0.010 A 
BRANCH  25  28
ATOM     28  O   UNL     1       0.412   0.194  -0.573  0.00  0.00    -0.483 OA
BRANCH  28  29
ATOM     29  C   UNL     1      -0.806  -0.547  -0.666  0.00  0.00    +0.324 C 
BRANCH  29  30
ATOM     30  C   UNL     1      -0.491  -2.013  -0.820  0.00  0.00    +0.248 C 
ATOM     31  O   UNL     1       0.662  -2.386  -0.848  0.00  0.00    -0.272 OA
ATOM     32  N   UNL     1      -1.492  -2.909  -0.927  0.00  0.00    -0.327 N 
ATOM     33  H   UNL     1      -2.415  -2.611  -0.904  0.00  0.00    +0.145 HD
ATOM     34  H   UNL     1      -1.290  -3.853  -1.026  0.00  0.00    +0.145 HD
ENDBRANCH  29  30
ENDBRANCH  28  29
ENDBRANCH  25  28
ENDBRANCH  10  22
TORSDOF 5
