REMARK  Name = ZINC11997761
REMARK  10 active torsions:
REMARK  status: ('A' for Active; 'I' for Inactive)
REMARK    1  A    between atoms: C_1  and  C_2
REMARK    2  A    between atoms: C_5  and  N_22
REMARK    3  A    between atoms: C_7  and  S_8
REMARK    4  A    between atoms: S_8  and  N_11
REMARK    5  A    between atoms: N_11  and  C_12
REMARK    6  A    between atoms: C_12  and  C_13
REMARK    7  A    between atoms: C_13  and  C_15
REMARK    8  A    between atoms: C_13  and  N_52
REMARK    9  A    between atoms: C_20  and  N_52
REMARK   10  A    between atoms: C_21  and  N_52
REMARK                            x       y       z     vdW  Elec       q    Type
REMARK                         _______ _______ _______ _____ _____    ______ ____
ROOT
ATOM      1  S   UNL     1       2.293   5.402   0.349  0.00  0.00    +0.059 S 
ATOM      2  O   UNL     1       1.918   5.905   1.623  0.00  0.00    -0.153 OA
ATOM      3  O   UNL     1       3.479   5.818  -0.316  0.00  0.00    -0.153 OA
ENDROOT
BRANCH   1  10
ATOM      4  C   UNL     1       2.940   3.525  -1.931  0.00  0.00    +0.046 C 
ATOM      5  C   UNL     1       2.696   2.873  -0.594  0.00  0.00    -0.024 A 
ATOM      6  C   UNL     1       2.781   1.498  -0.472  0.00  0.00    +0.007 A 
ATOM      7  C   UNL     1       2.553   0.896   0.750  0.00  0.00    +0.025 A 
ATOM      8  C   UNL     1       2.248   1.675   1.859  0.00  0.00    +0.061 A 
ATOM      9  C   UNL     1       2.169   3.055   1.734  0.00  0.00    +0.054 A 
ATOM     10  C   UNL     1       2.393   3.650   0.508  0.00  0.00    +0.110 A 
BRANCH   8  11
ATOM     11  N   UNL     1       2.021   1.069   3.100  0.00  0.00    -0.144 N 
ATOM     12  C   UNL     1       1.294   1.578   4.106  0.00  0.00    +0.240 C 
ATOM     13  O   UNL     1       0.731   2.646   3.985  0.00  0.00    -0.274 OA
ATOM     14  C   UNL     1       1.190   0.796   5.380  0.00  0.00    +0.122 C 
ATOM     15  C   UNL     1       1.579  -0.678   5.093  0.00  0.00    +0.198 C 
ATOM     16  S   UNL     1       2.613  -0.417   3.594  0.00  0.00    +0.052 S 
ATOM     17  O   UNL     1       2.258  -1.333   2.567  0.00  0.00    -0.155 OA
ATOM     18  O   UNL     1       3.971  -0.192   3.946  0.00  0.00    -0.155 OA
ENDBRANCH   8  11
ENDBRANCH   1  10
BRANCH   1  19
ATOM     19  N   UNL     1       1.036   5.729  -0.678  0.00  0.00    -0.191 NA
ATOM     20  H   UNL     1       1.202   6.177  -1.522  0.00  0.00    +0.148 HD
BRANCH  19  21
ATOM     21  C   UNL     1      -0.329   5.342  -0.311  0.00  0.00    +0.098 C 
BRANCH  21  22
ATOM     22  C   UNL     1      -1.325   6.061  -1.223  0.00  0.00    +0.014 C 
BRANCH  22  23
ATOM     23  C   UNL     1      -2.730   5.759  -0.768  0.00  0.00    +0.093 A 
ATOM     24  C   UNL     1      -3.621   4.994  -1.423  0.00  0.00    +0.043 A 
ATOM     25  C   UNL     1      -4.801   4.982  -0.644  0.00  0.00    +0.041 A 
ATOM     26  C   UNL     1      -4.561   5.742   0.440  0.00  0.00    +0.195 A 
ATOM     27  O   UNL     1      -3.302   6.205   0.362  0.00  0.00    -0.469 OA
ENDBRANCH  22  23
BRANCH  22  30
ATOM     28  C   UNL     1      -2.043   8.235  -2.011  0.00  0.00    -0.096 C 
ATOM     29  C   UNL     1      -1.149   7.992   0.227  0.00  0.00    -0.096 C 
ATOM     30  N   UNL     1      -1.064   7.515  -1.170  0.00  0.00    +0.383 N 
ATOM     31  H   UNL     1      -0.119   7.697  -1.528  0.00  0.00    -0.082 HD
ENDBRANCH  22  30
ENDBRANCH  21  22
ENDBRANCH  19  21
ENDBRANCH   1  19
TORSDOF 7
