REMARK  Name = ZINC21051300
REMARK  6 active torsions:
REMARK  status: ('A' for Active; 'I' for Inactive)
REMARK    1  A    between atoms: C_1  and  C_2
REMARK    2  A    between atoms: C_3  and  C_14
REMARK    3  A    between atoms: C_4  and  C_13
REMARK    4  A    between atoms: N_5  and  C_7
REMARK    5  A    between atoms: C_15  and  C_16
REMARK    6  A    between atoms: C_16  and  N_18
REMARK                            x       y       z     vdW  Elec       q    Type
REMARK                         _______ _______ _______ _____ _____    ______ ____
ROOT
ATOM      1  C   UNL     1       0.087  -0.360  -2.603  0.00  0.00    +0.016 C 
ATOM      2  C   UNL     1      -0.802   0.543  -3.063  0.00  0.00    +0.070 C 
ENDROOT
BRANCH   1   5
ATOM      3  C   UNL     1      -0.129   1.491  -0.036  0.00  0.00    +0.068 C 
ATOM      4  C   UNL     1      -0.090  -0.015  -0.057  0.00  0.00    +0.068 A 
ATOM      5  C   UNL     1       0.007  -0.827  -1.211  0.00  0.00    +0.019 A 
ATOM      6  C   UNL     1       0.013  -2.142  -0.785  0.00  0.00    +0.049 A 
ATOM      7  N   UNL     1      -0.076  -2.129   0.559  0.00  0.00    -0.236 N 
ATOM      8  N   UNL     1      -0.133  -0.798   0.986  0.00  0.00    -0.171 NA
ATOM      9  C   UNL     1       0.101  -3.365  -1.662  0.00  0.00    +0.066 C 
BRANCH   7  10
ATOM     10  C   UNL     1      -0.103  -3.258   1.389  0.00  0.00    +0.066 A 
ATOM     11  C   UNL     1       0.753  -4.323   1.143  0.00  0.00    +0.028 A 
ATOM     12  C   UNL     1       0.725  -5.434   1.964  0.00  0.00    +0.002 A 
ATOM     13  C   UNL     1      -0.155  -5.486   3.029  0.00  0.00    +0.000 A 
ATOM     14  C   UNL     1      -1.009  -4.426   3.277  0.00  0.00    +0.002 A 
ATOM     15  C   UNL     1      -0.982  -3.311   2.463  0.00  0.00    +0.028 A 
ENDBRANCH   7  10
ENDBRANCH   1   5
BRANCH   2  16
ATOM     16  C   UNL     1      -0.723   1.009  -4.451  0.00  0.00    +0.263 C 
ATOM     17  O   UNL     1       0.148   0.579  -5.190  0.00  0.00    -0.269 OA
BRANCH  16  18
ATOM     18  N   UNL     1      -1.607   1.908  -4.909  0.00  0.00    -0.143 NA
ATOM     19  C   UNL     1      -1.598   2.255  -6.189  0.00  0.00    +0.199 A 
ATOM     20  N   UNL     1      -0.682   1.849  -7.110  0.00  0.00    -0.326 N 
ATOM     21  H   UNL     1       0.071   1.261  -6.942  0.00  0.00    +0.169 HD
ATOM     22  C   UNL     1      -1.011   2.422  -8.334  0.00  0.00    +0.065 A 
ATOM     23  C   UNL     1      -0.436   2.356  -9.595  0.00  0.00    +0.028 A 
ATOM     24  C   UNL     1      -1.001   3.051 -10.646  0.00  0.00    +0.002 A 
ATOM     25  C   UNL     1      -2.138   3.815 -10.447  0.00  0.00    +0.002 A 
ATOM     26  C   UNL     1      -2.718   3.888  -9.196  0.00  0.00    +0.028 A 
ATOM     27  C   UNL     1      -2.158   3.193  -8.133  0.00  0.00    +0.065 A 
ATOM     28  N   UNL     1      -2.507   3.068  -6.792  0.00  0.00    -0.326 N 
ATOM     29  H   UNL     1      -3.267   3.491  -6.361  0.00  0.00    +0.169 HD
ENDBRANCH  16  18
ENDBRANCH   2  16
TORSDOF 4
