REMARK  Name = ZINC39362346
REMARK  9 active torsions:
REMARK  status: ('A' for Active; 'I' for Inactive)
REMARK    1  A    between atoms: C_1  and  O_2
REMARK    2  A    between atoms: O_2  and  C_3
REMARK    3  A    between atoms: C_6  and  N_9
REMARK    4  A    between atoms: C_10  and  C_26
REMARK    5  A    between atoms: C_14  and  S_15
REMARK    6  A    between atoms: S_15  and  C_16
REMARK    7  A    between atoms: C_16  and  C_17
REMARK    8  A    between atoms: N_19  and  C_20
REMARK    9  A    between atoms: C_26  and  C_27
REMARK                            x       y       z     vdW  Elec       q    Type
REMARK                         _______ _______ _______ _____ _____    ______ ____
ROOT
ATOM      1  N   UNL     1       2.458  -2.457  -4.301  0.00  0.00    -0.258 N 
ATOM      2  C   UNL     1       2.680  -3.902  -4.482  0.00  0.00    +0.187 C 
ATOM      3  N   UNL     1       3.363  -3.995  -5.784  0.00  0.00    -0.246 N 
ATOM      4  N   UNL     1       3.490  -2.681  -6.252  0.00  0.00    -0.162 NA
ATOM      5  C   UNL     1       2.979  -1.833  -5.425  0.00  0.00    +0.180 C 
ATOM      6  H   UNL     1       3.665  -4.803  -6.227  0.00  0.00    +0.170 HD
ENDROOT
BRANCH   1  10
ATOM      7  C   UNL     1       0.607  -0.608  -1.056  0.00  0.00    +0.120 A 
ATOM      8  C   UNL     1       0.004  -0.583  -2.305  0.00  0.00    +0.047 A 
ATOM      9  C   UNL     1       0.616  -1.195  -3.380  0.00  0.00    +0.027 A 
ATOM     10  C   UNL     1       1.836  -1.836  -3.212  0.00  0.00    +0.038 A 
ATOM     11  C   UNL     1       2.439  -1.861  -1.961  0.00  0.00    +0.027 A 
ATOM     12  C   UNL     1       1.828  -1.244  -0.887  0.00  0.00    +0.047 A 
BRANCH   7  14
ATOM     13  C   UNL     1      -1.254   0.630  -0.242  0.00  0.00    +0.277 C 
ATOM     14  O   UNL     1       0.003  -0.005   0.003  0.00  0.00    -0.495 OA
ENDBRANCH   7  14
ENDBRANCH   1  10
BRANCH   5  15
ATOM     15  S   UNL     1       2.953  -0.091  -5.688  0.00  0.00    -0.079 S 
BRANCH  15  16
ATOM     16  C   UNL     1       3.763   0.122  -7.297  0.00  0.00    +0.172 C 
BRANCH  16  17
ATOM     17  C   UNL     1       3.807   1.587  -7.647  0.00  0.00    +0.224 C 
ATOM     18  O   UNL     1       3.338   2.407  -6.886  0.00  0.00    -0.275 OA
ATOM     19  N   UNL     1       4.368   1.987  -8.806  0.00  0.00    -0.312 N 
ATOM     20  H   UNL     1       4.743   1.331  -9.414  0.00  0.00    +0.149 HD
BRANCH  19  21
ATOM     21  C   UNL     1       4.410   3.411  -9.146  0.00  0.00    +0.073 C 
ATOM     22  C   UNL     1       3.095   3.815  -9.814  0.00  0.00    +0.022 C 
ATOM     23  C   UNL     1       3.139   5.303 -10.169  0.00  0.00    +0.002 C 
ATOM     24  C   UNL     1       4.300   5.563 -11.131  0.00  0.00    +0.000 C 
ATOM     25  C   UNL     1       5.616   5.158 -10.464  0.00  0.00    +0.002 C 
ATOM     26  C   UNL     1       5.571   3.671 -10.108  0.00  0.00    +0.022 C 
ENDBRANCH  19  21
ENDBRANCH  16  17
ENDBRANCH  15  16
ENDBRANCH   5  15
BRANCH   2  27
ATOM     27  C   UNL     1       1.345  -4.650  -4.519  0.00  0.00    +0.097 C 
BRANCH  27  28
ATOM     28  C   UNL     1       1.603  -6.133  -4.581  0.00  0.00    +0.029 A 
ATOM     29  N   UNL     1       1.831  -6.742  -5.785  0.00  0.00    -0.311 N 
ATOM     30  C   UNL     1       2.062  -8.065  -5.851  0.00  0.00    +0.327 A 
ATOM     31  O   UNL     1       2.263  -8.585  -6.931  0.00  0.00    -0.247 OA
ATOM     32  N   UNL     1       2.075  -8.822  -4.738  0.00  0.00    -0.275 N 
ATOM     33  C   UNL     1       1.854  -8.261  -3.532  0.00  0.00    +0.254 A 
ATOM     34  O   UNL     1       1.865  -8.944  -2.525  0.00  0.00    -0.268 OA
ATOM     35  C   UNL     1       1.614  -6.868  -3.448  0.00  0.00    +0.091 A 
ATOM     36  H   UNL     1       2.243  -9.775  -4.804  0.00  0.00    +0.173 HD
ATOM     37  H   UNL     1       1.827  -6.213  -6.598  0.00  0.00    +0.170 HD
ENDBRANCH  27  28
ENDBRANCH   2  27
TORSDOF 8
