REMARK  Name = ZINC66591939
REMARK  11 active torsions:
REMARK  status: ('A' for Active; 'I' for Inactive)
REMARK    1  A    between atoms: C_1  and  C_2
REMARK    2  A    between atoms: C_2  and  S_3
REMARK    3  A    between atoms: S_3  and  C_4
REMARK    4  A    between atoms: C_4  and  C_6
REMARK    5  A    between atoms: C_4  and  C_9
REMARK    6  A    between atoms: C_6  and  C_7
REMARK    7  A    between atoms: C_6  and  C_8
REMARK    8  A    between atoms: N_11  and  N_12
REMARK    9  A    between atoms: C_13  and  C_15
REMARK   10  A    between atoms: C_19  and  S_21
REMARK   11  A    between atoms: S_21  and  N_24
REMARK                            x       y       z     vdW  Elec       q    Type
REMARK                         _______ _______ _______ _____ _____    ______ ____
ROOT
ATOM      1  N   UNL     1       1.916  -4.678  -3.967  0.00  0.00    -0.230 N 
ATOM      2  C   UNL     1       1.696  -5.937  -4.395  0.00  0.00    +0.260 C 
ATOM      3  O   UNL     1       0.886  -6.640  -3.824  0.00  0.00    -0.269 OA
ATOM      4  H   UNL     1       2.563  -4.117  -4.423  0.00  0.00    +0.173 HD
ENDROOT
BRANCH   2   5
ATOM      5  C   UNL     1       2.441  -6.462  -5.559  0.00  0.00    +0.040 A 
ATOM      6  C   UNL     1       3.377  -5.659  -6.213  0.00  0.00    +0.014 A 
ATOM      7  C   UNL     1       4.068  -6.154  -7.298  0.00  0.00    +0.023 A 
ATOM      8  C   UNL     1       3.835  -7.447  -7.740  0.00  0.00    +0.067 A 
ATOM      9  C   UNL     1       2.908  -8.248  -7.095  0.00  0.00    +0.124 A 
ATOM     10  C   UNL     1       2.215  -7.766  -6.004  0.00  0.00    +0.043 A 
ATOM     11 CL   UNL     1       4.709  -8.064  -9.107  0.00  0.00    -0.082 Cl
BRANCH   9  12
ATOM     12  S   UNL     1       2.618  -9.890  -7.664  0.00  0.00    +0.057 S 
ATOM     13  O   UNL     1       3.894 -10.498  -7.818  0.00  0.00    -0.153 OA
ATOM     14  O   UNL     1       1.609 -10.438  -6.827  0.00  0.00    -0.153 OA
BRANCH  12  15
ATOM     15  N   UNL     1       1.964  -9.774  -9.181  0.00  0.00    -0.203 NA
ATOM     16  H   UNL     1       1.814  -8.902  -9.579  0.00  0.00    +0.144 HD
ATOM     17  H   UNL     1       1.730 -10.578  -9.671  0.00  0.00    +0.144 HD
ENDBRANCH  12  15
ENDBRANCH   9  12
ENDBRANCH   2   5
BRANCH   1  20
ATOM     18  C   UNL     1       1.430  -2.921  -2.436  0.00  0.00    +0.242 C 
ATOM     19  O   UNL     1       2.239  -2.219  -3.006  0.00  0.00    -0.273 OA
ATOM     20  N   UNL     1       1.210  -4.180  -2.864  0.00  0.00    -0.233 N 
ATOM     21  H   UNL     1       0.564  -4.741  -2.408  0.00  0.00    +0.173 HD
BRANCH  18  22
ATOM     22  C   UNL     1       0.671  -2.385  -1.250  0.00  0.00    +0.136 C 
BRANCH  22  23
ATOM     23  C   UNL     1       1.387  -2.792   0.040  0.00  0.00    +0.005 C 
ATOM     24  C   UNL     1       0.612  -2.255   1.245  0.00  0.00    +0.009 C 
ATOM     25  C   UNL     1       1.463  -4.318   0.121  0.00  0.00    +0.009 C 
ENDBRANCH  22  23
BRANCH  22  26
ATOM     26  S   UNL     1       0.590  -0.576  -1.351  0.00  0.00    -0.148 S 
BRANCH  26  28
ATOM     27  C   UNL     1      -0.716   1.239  -2.927  0.00  0.00    +0.015 C 
ATOM     28  C   UNL     1      -0.459  -0.264  -2.798  0.00  0.00    +0.066 C 
ENDBRANCH  26  28
ENDBRANCH  22  26
ENDBRANCH  18  22
ENDBRANCH   1  20
TORSDOF 8
