REMARK  Name = ZINC05543658
REMARK  1 active torsions:
REMARK  status: ('A' for Active; 'I' for Inactive)
REMARK    1  A    between atoms: C_5  and  N_7
REMARK                            x       y       z     vdW  Elec       q    Type
REMARK                         _______ _______ _______ _____ _____    ______ ____
ROOT
ATOM      1  C   UNL     1       1.108   2.010   0.002  0.00  0.00    +0.224 A 
ATOM      2  N   UNL     1      -0.016   1.331   0.009  0.00  0.00    -0.230 NA
ATOM      3  C   UNL     1       0.002  -0.004   0.002  0.00  0.00    +0.134 A 
ATOM      4  C   UNL     1       1.246  -0.674  -0.013  0.00  0.00    +0.135 A 
ATOM      5  C   UNL     1       2.425   0.110  -0.020  0.00  0.00    +0.146 A 
ATOM      6  N   UNL     1       2.297   1.430  -0.011  0.00  0.00    -0.219 NA
ATOM      7  N   UNL     1       1.264  -2.009  -0.021  0.00  0.00    -0.212 NA
ATOM      8  C   UNL     1       0.139  -2.689  -0.015  0.00  0.00    +0.225 A 
ATOM      9  N   UNL     1      -1.052  -2.107  -0.000  0.00  0.00    -0.201 NA
ATOM     10  C   UNL     1      -1.178  -0.788   0.009  0.00  0.00    +0.147 A 
ATOM     11  N   UNL     1      -2.424  -0.195   0.023  0.00  0.00    -0.341 N 
ATOM     12 CL   UNL     1       0.216  -4.423  -0.026  0.00  0.00    -0.041 Cl
ATOM     13  H   UNL     1      -2.501   0.772   0.029  0.00  0.00    +0.144 HD
ATOM     14  H   UNL     1      -3.223  -0.745   0.027  0.00  0.00    +0.144 HD
ENDROOT
BRANCH   5  15
ATOM     15  N   UNL     1       3.671  -0.482  -0.035  0.00  0.00    -0.341 N 
ATOM     16  H   UNL     1       3.748  -1.449  -0.041  0.00  0.00    +0.144 HD
ATOM     17  H   UNL     1       4.470   0.068  -0.039  0.00  0.00    +0.144 HD
ENDBRANCH   5  15
TORSDOF 1
