REMARK  Name = ZINC00678756
REMARK  14 active torsions:
REMARK  status: ('A' for Active; 'I' for Inactive)
REMARK    1  A    between atoms: C_1  and  C_2
REMARK    2  A    between atoms: C_3  and  C_35
REMARK    3  A    between atoms: C_4  and  C_25
REMARK    4  A    between atoms: C_10  and  C_15
REMARK    5  A    between atoms: C_18  and  O_23
REMARK    6  A    between atoms: C_19  and  O_21
REMARK    7  A    between atoms: O_21  and  C_22
REMARK    8  A    between atoms: O_23  and  C_24
REMARK    9  A    between atoms: C_29  and  O_33
REMARK   10  A    between atoms: C_30  and  O_31
REMARK   11  A    between atoms: O_31  and  C_32
REMARK   12  A    between atoms: O_33  and  C_34
REMARK   13  A    between atoms: C_35  and  O_37
REMARK   14  A    between atoms: O_37  and  C_38
REMARK                            x       y       z     vdW  Elec       q    Type
REMARK                         _______ _______ _______ _____ _____    ______ ____
ROOT
ATOM      1  C   UNL     1       0.497   1.636  -0.916  0.00  0.00    +0.061 C 
ATOM      2  C   UNL     1       0.239   0.195  -0.558  0.00  0.00    +0.016 C 
ATOM      3  C   UNL     1      -1.022  -0.267  -0.519  0.00  0.00    +0.065 C 
ATOM      4  C   UNL     1      -1.316  -1.698  -0.174  0.00  0.00    +0.096 C 
ATOM      5  C   UNL     1      -0.135  -2.344   0.505  0.00  0.00    +0.024 C 
ATOM      6  C   UNL     1       1.095  -1.796   0.419  0.00  0.00    +0.016 C 
ATOM      7  N   UNL     1       1.290  -0.634  -0.281  0.00  0.00    -0.321 N 
ATOM      8  C   UNL     1       2.284  -2.447   1.081  0.00  0.00    +0.059 C 
ATOM      9  C   UNL     1       1.830  -3.187   2.340  0.00  0.00    +0.032 C 
ATOM     10  C   UNL     1       0.776  -4.226   1.941  0.00  0.00    +0.088 C 
ATOM     11  C   UNL     1      -0.352  -3.530   1.229  0.00  0.00    +0.162 C 
ATOM     12  O   UNL     1      -1.471  -4.001   1.280  0.00  0.00    -0.292 OA
ATOM     13  H   UNL     1       2.182  -0.395  -0.580  0.00  0.00    +0.152 HD
ENDROOT
BRANCH   9  14
ATOM     14  C   UNL     1       3.010  -3.876   2.976  0.00  0.00    -0.040 A 
ATOM     15  C   UNL     1       3.720  -4.825   2.265  0.00  0.00    +0.008 A 
ATOM     16  C   UNL     1       4.803  -5.460   2.844  0.00  0.00    +0.049 A 
ATOM     17  C   UNL     1       5.179  -5.145   4.140  0.00  0.00    +0.161 A 
ATOM     18  C   UNL     1       4.465  -4.189   4.856  0.00  0.00    +0.162 A 
ATOM     19  C   UNL     1       3.383  -3.553   4.268  0.00  0.00    +0.053 A 
BRANCH  18  20
ATOM     20  O   UNL     1       4.830  -3.877   6.128  0.00  0.00    -0.491 OA
ATOM     21  C   UNL     1       4.051  -2.886   6.802  0.00  0.00    +0.277 C 
ENDBRANCH  18  20
BRANCH  17  22
ATOM     22  O   UNL     1       6.244  -5.769   4.711  0.00  0.00    -0.491 OA
ATOM     23  C   UNL     1       6.930  -6.739   3.917  0.00  0.00    +0.277 C 
ENDBRANCH  17  22
ENDBRANCH   9  14
BRANCH   4  24
ATOM     24  C   UNL     1      -1.635  -2.456  -1.437  0.00  0.00    +0.010 A 
ATOM     25  C   UNL     1      -2.933  -2.859  -1.692  0.00  0.00    +0.008 A 
ATOM     26  C   UNL     1      -3.229  -3.554  -2.850  0.00  0.00    +0.004 A 
ATOM     27  C   UNL     1      -2.228  -3.850  -3.757  0.00  0.00    +0.049 A 
ATOM     28  C   UNL     1      -0.926  -3.449  -3.508  0.00  0.00    +0.162 A 
ATOM     29  C   UNL     1      -0.629  -2.744  -2.345  0.00  0.00    +0.166 A 
BRANCH  29  30
ATOM     30  O   UNL     1       0.647  -2.343  -2.098  0.00  0.00    -0.491 OA
ATOM     31  C   UNL     1       1.586  -3.356  -1.733  0.00  0.00    +0.277 C 
ENDBRANCH  29  30
BRANCH  28  32
ATOM     32  O   UNL     1       0.059  -3.739  -4.399  0.00  0.00    -0.491 OA
ATOM     33  C   UNL     1      -0.320  -4.461  -5.573  0.00  0.00    +0.277 C 
ENDBRANCH  28  32
ENDBRANCH   4  24
BRANCH   3  34
ATOM     34  C   UNL     1      -2.092   0.611  -0.808  0.00  0.00    +0.338 C 
ATOM     35  O   UNL     1      -1.877   1.795  -0.988  0.00  0.00    -0.245 OA
BRANCH  34  36
ATOM     36  O   UNL     1      -3.353   0.136  -0.884  0.00  0.00    -0.458 OA
BRANCH  36  37
ATOM     37  C   UNL     1      -4.370   1.056  -1.288  0.00  0.00    +0.177 C 
ATOM     38  C   UNL     1      -4.701   0.873  -2.790  0.00  0.00    +0.044 C 
ATOM     39  C   UNL     1      -6.137   1.444  -2.895  0.00  0.00    +0.004 C 
ATOM     40  C   UNL     1      -6.821   0.990  -1.589  0.00  0.00    +0.004 C 
ATOM     41  C   UNL     1      -5.698   0.743  -0.567  0.00  0.00    +0.044 C 
ENDBRANCH  36  37
ENDBRANCH  34  36
ENDBRANCH   3  34
TORSDOF 9
