REMARK  Name = ZINC45109083
REMARK  7 active torsions:
REMARK  status: ('A' for Active; 'I' for Inactive)
REMARK    1  A    between atoms: C_1  and  C_2
REMARK    2  A    between atoms: C_3  and  C_18
REMARK    3  A    between atoms: N_4  and  C_12
REMARK    4  A    between atoms: C_7  and  N_11
REMARK    5  A    between atoms: C_12  and  C_13
REMARK    6  A    between atoms: C_12  and  C_14
REMARK    7  A    between atoms: C_12  and  C_15
REMARK                            x       y       z     vdW  Elec       q    Type
REMARK                         _______ _______ _______ _____ _____    ______ ____
ROOT
ATOM      1  C   UNL     1       0.121   1.482   0.116  0.00  0.00    +0.046 C 
ATOM      2  C   UNL     1       0.050  -0.021   0.044  0.00  0.00    -0.017 A 
ATOM      3  C   UNL     1       0.194  -0.778  -1.056  0.00  0.00    +0.022 A 
ATOM      4  N   UNL     1       0.065  -2.103  -0.730  0.00  0.00    -0.315 N 
ATOM      5  C   UNL     1      -0.170  -2.234   0.612  0.00  0.00    +0.147 A 
ATOM      6  C   UNL     1      -0.184  -0.937   1.159  0.00  0.00    +0.062 A 
ATOM      7  C   UNL     1      -0.403  -0.791   2.537  0.00  0.00    +0.129 A 
ATOM      8  N   UNL     1      -0.584  -1.887   3.267  0.00  0.00    -0.220 NA
ATOM      9  C   UNL     1      -0.560  -3.086   2.713  0.00  0.00    +0.225 A 
ATOM     10  N   UNL     1      -0.367  -3.270   1.425  0.00  0.00    -0.218 NA
ATOM     11  C   UNL     1       0.459  -0.249  -2.442  0.00  0.00    +0.064 C 
ENDROOT
BRANCH   7  12
ATOM     12  N   UNL     1      -0.429   0.463   3.121  0.00  0.00    -0.343 N 
ATOM     13  H   UNL     1      -0.295   1.254   2.577  0.00  0.00    +0.144 HD
ATOM     14  H   UNL     1      -0.581   0.550   4.075  0.00  0.00    +0.144 HD
ENDBRANCH   7  12
BRANCH   4  15
ATOM     15  C   UNL     1       0.163  -3.216  -1.678  0.00  0.00    +0.117 C 
ATOM     16  C   UNL     1       1.490  -3.126  -2.433  0.00  0.00    +0.044 C 
ATOM     17  C   UNL     1       0.098  -4.541  -0.917  0.00  0.00    +0.044 C 
BRANCH  15  18
ATOM     18  C   UNL     1      -0.979  -3.143  -2.658  0.00  0.00    +0.236 C 
ATOM     19  O   UNL     1      -1.795  -2.249  -2.573  0.00  0.00    -0.273 OA
ATOM     20  N   UNL     1      -1.094  -4.070  -3.629  0.00  0.00    -0.327 N 
ATOM     21  H   UNL     1      -0.441  -4.785  -3.697  0.00  0.00    +0.145 HD
ATOM     22  H   UNL     1      -1.829  -4.023  -4.260  0.00  0.00    +0.145 HD
ENDBRANCH  15  18
ENDBRANCH   4  15
TORSDOF 3
