REMARK  Name = ZINC35982610
REMARK  10 active torsions:
REMARK  status: ('A' for Active; 'I' for Inactive)
REMARK    1  A    between atoms: C_1  and  C_2
REMARK    2  A    between atoms: C_2  and  C_3
REMARK    3  A    between atoms: C_3  and  C_4
REMARK    4  A    between atoms: C_4  and  N_5
REMARK    5  A    between atoms: C_6  and  N_37
REMARK    6  A    between atoms: C_7  and  N_14
REMARK    7  A    between atoms: N_14  and  C_15
REMARK    8  A    between atoms: C_20  and  C_22
REMARK    9  A    between atoms: C_22  and  N_23
REMARK   10  A    between atoms: C_29  and  C_31
REMARK                            x       y       z     vdW  Elec       q    Type
REMARK                         _______ _______ _______ _____ _____    ______ ____
ROOT
ATOM      1  N   UNL     1       4.370  -4.080   3.715  0.00  0.00    -0.260 N 
ATOM      2  C   UNL     1       5.274  -3.615   2.828  0.00  0.00    +0.234 C 
ATOM      3  O   UNL     1       4.902  -3.029   1.833  0.00  0.00    -0.274 OA
ENDROOT
BRANCH   1   6
ATOM      4  N   UNL     1       1.193  -2.250   3.478  0.00  0.00    -0.280 N 
ATOM      5  C   UNL     1       2.534  -2.499   3.652  0.00  0.00    +0.127 A 
ATOM      6  C   UNL     1       2.999  -3.793   3.542  0.00  0.00    +0.140 A 
ATOM      7  C   UNL     1       2.083  -4.822   3.252  0.00  0.00    +0.277 A 
ATOM      8  O   UNL     1       2.467  -5.975   3.150  0.00  0.00    -0.266 OA
ATOM      9  N   UNL     1       0.779  -4.524   3.091  0.00  0.00    -0.273 N 
ATOM     10  H   UNL     1       0.146  -5.232   2.892  0.00  0.00    +0.173 HD
ATOM     11  C   UNL     1       0.343  -3.257   3.208  0.00  0.00    +0.331 A 
ATOM     12  O   UNL     1      -0.840  -3.017   3.062  0.00  0.00    -0.246 OA
BRANCH   5  13
ATOM     13  N   UNL     1       3.401  -1.470   3.933  0.00  0.00    -0.343 N 
ATOM     14  H   UNL     1       3.083  -0.554   3.932  0.00  0.00    +0.144 HD
ATOM     15  H   UNL     1       4.331  -1.661   4.132  0.00  0.00    +0.144 HD
ENDBRANCH   5  13
BRANCH   4  16
ATOM     16  C   UNL     1       0.685  -0.880   3.593  0.00  0.00    +0.128 C 
BRANCH  16  17
ATOM     17  C   UNL     1       0.294  -0.601   5.045  0.00  0.00    +0.021 C 
BRANCH  17  19
ATOM     18  C   UNL     1      -0.627   1.108   6.618  0.00  0.00    +0.004 C 
ATOM     19  C   UNL     1      -0.236   0.829   5.165  0.00  0.00    -0.002 C 
ENDBRANCH  17  19
ENDBRANCH  16  17
ENDBRANCH   4  16
ENDBRANCH   1   6
BRANCH   1  20
ATOM     20  C   UNL     1       4.811  -4.885   4.857  0.00  0.00    +0.082 C 
ATOM     21  C   UNL     1       3.588  -5.394   5.648  0.00  0.00    +0.023 C 
ATOM     22  C   UNL     1       4.041  -5.330   7.128  0.00  0.00    +0.002 C 
ATOM     23  C   UNL     1       4.880  -4.029   7.173  0.00  0.00    +0.002 C 
ATOM     24  C   UNL     1       5.632  -4.017   5.827  0.00  0.00    +0.023 C 
ENDBRANCH   1  20
BRANCH   2  25
ATOM     25  C   UNL     1       6.746  -3.822   3.074  0.00  0.00    +0.181 C 
BRANCH  25  26
ATOM     26  N   UNL     1       7.515  -3.220   1.976  0.00  0.00    -0.291 NA
ATOM     27  C   UNL     1       7.263  -3.921   0.710  0.00  0.00    +0.104 C 
ATOM     28  C   UNL     1       7.936  -3.157  -0.435  0.00  0.00    +0.123 C 
ATOM     29  N   UNL     1       9.356  -2.970  -0.101  0.00  0.00    -0.295 N 
ATOM     30  C   UNL     1       9.692  -2.398   1.212  0.00  0.00    +0.123 C 
ATOM     31  C   UNL     1       8.950  -3.191   2.293  0.00  0.00    +0.104 C 
ATOM     32  C   UNL     1      10.324  -3.312  -0.974  0.00  0.00    +0.247 C 
ATOM     33  O   UNL     1      11.491  -3.249  -0.643  0.00  0.00    -0.270 OA
BRANCH  32  34
ATOM     34  C   UNL     1       9.965  -3.763  -2.336  0.00  0.00    +0.037 A 
ATOM     35  C   UNL     1       8.907  -3.160  -3.018  0.00  0.00    +0.013 A 
ATOM     36  C   UNL     1       8.577  -3.585  -4.288  0.00  0.00    +0.001 A 
ATOM     37  C   UNL     1       9.293  -4.607  -4.886  0.00  0.00    +0.000 A 
ATOM     38  C   UNL     1      10.342  -5.210  -4.215  0.00  0.00    +0.001 A 
ATOM     39  C   UNL     1      10.686  -4.790  -2.947  0.00  0.00    +0.013 A 
ENDBRANCH  32  34
ENDBRANCH  25  26
ENDBRANCH   2  25
TORSDOF 9
