REMARK  Name = ZINC24516380
REMARK  4 active torsions:
REMARK  status: ('A' for Active; 'I' for Inactive)
REMARK    1  A    between atoms: C_1  and  C_2
REMARK    2  A    between atoms: C_2  and  C_4
REMARK    3  A    between atoms: C_2  and  N_12
REMARK    4  A    between atoms: C_13  and  C_15
REMARK                            x       y       z     vdW  Elec       q    Type
REMARK                         _______ _______ _______ _____ _____    ______ ____
ROOT
ATOM      1  C   UNL     1      -5.359   1.591  -1.406  0.00  0.00    +0.033 C 
ATOM      2  C   UNL     1      -4.908   1.861   0.031  0.00  0.00    +0.101 C 
ENDROOT
BRANCH   2   3
ATOM      3  C   UNL     1      -5.785   2.924   0.641  0.00  0.00    -0.025 A 
ATOM      4  C   UNL     1      -5.551   4.258   0.359  0.00  0.00    +0.008 A 
ATOM      5  C   UNL     1      -6.356   5.234   0.914  0.00  0.00    +0.041 A 
ATOM      6  C   UNL     1      -7.392   4.879   1.760  0.00  0.00    +0.158 A 
ATOM      7  C   UNL     1      -7.623   3.542   2.047  0.00  0.00    +0.159 A 
ATOM      8  C   UNL     1      -6.818   2.566   1.486  0.00  0.00    +0.046 A 
ATOM      9  F   UNL     1      -8.633   3.193   2.874  0.00  0.00    -0.202 F 
ATOM     10  F   UNL     1      -8.176   5.833   2.307  0.00  0.00    -0.202 F 
ENDBRANCH   2   3
BRANCH   2  11
ATOM     11  N   UNL     1      -3.516   2.318   0.028  0.00  0.00    -0.302 N 
ATOM     12  C   UNL     1      -2.512   1.419   0.019  0.00  0.00    +0.280 C 
ATOM     13  O   UNL     1      -2.762   0.228   0.013  0.00  0.00    -0.267 OA
ATOM     14  H   UNL     1      -3.291   3.394   0.034  0.00  0.00    +0.150 HD
BRANCH  12  15
ATOM     15  C   UNL     1      -1.120   1.876   0.017  0.00  0.00    +0.191 A 
ATOM     16  C   UNL     1      -0.013   1.076   0.008  0.00  0.00    +0.056 A 
ATOM     17  C   UNL     1       1.101   1.928   0.002  0.00  0.00    +0.063 A 
ATOM     18  C   UNL     1       0.632   3.197   0.013  0.00  0.00    +0.195 A 
ATOM     19  O   UNL     1      -0.707   3.161   0.026  0.00  0.00    -0.439 OA
ATOM     20 CL   UNL     1       1.605   4.635   0.013  0.00  0.00    -0.043 Cl
ENDBRANCH  12  15
ENDBRANCH   2  11
TORSDOF 3
