REMARK  Name = ZINC05024564
REMARK  10 active torsions:
REMARK  status: ('A' for Active; 'I' for Inactive)
REMARK    1  A    between atoms: C_1  and  C_2
REMARK    2  A    between atoms: C_2  and  C_3
REMARK    3  A    between atoms: C_3  and  C_4
REMARK    4  A    between atoms: C_4  and  N_5
REMARK    5  A    between atoms: N_5  and  C_6
REMARK    6  A    between atoms: C_6  and  C_7
REMARK    7  A    between atoms: C_16  and  C_18
REMARK    8  A    between atoms: C_22  and  O_25
REMARK    9  A    between atoms: C_23  and  O_24
REMARK   10  A    between atoms: O_25  and  C_26
REMARK                            x       y       z     vdW  Elec       q    Type
REMARK                         _______ _______ _______ _____ _____    ______ ____
ROOT
ATOM      1  N   UNL     1      -2.787  -2.571   0.015  0.00  0.00    -0.315 N 
ATOM      2  C   UNL     1      -3.431  -2.789   1.214  0.00  0.00    +0.133 A 
ATOM      3  C   UNL     1      -4.724  -3.368   1.250  0.00  0.00    +0.040 A 
ATOM      4  C   UNL     1      -5.401  -3.742   0.085  0.00  0.00    +0.013 A 
ATOM      5  C   UNL     1      -6.645  -4.296   0.178  0.00  0.00    +0.001 A 
ATOM      6  C   UNL     1      -7.249  -4.493   1.417  0.00  0.00    +0.002 A 
ATOM      7  C   UNL     1      -6.616  -4.139   2.571  0.00  0.00    +0.028 A 
ATOM      8  C   UNL     1      -5.337  -3.568   2.512  0.00  0.00    +0.077 A 
ATOM      9  N   UNL     1      -4.672  -3.204   3.617  0.00  0.00    -0.227 NA
ATOM     10  C   UNL     1      -3.469  -2.668   3.528  0.00  0.00    +0.166 A 
ATOM     11  N   UNL     1      -2.855  -2.467   2.362  0.00  0.00    -0.212 NA
ENDROOT
BRANCH  10  12
ATOM     12  C   UNL     1      -2.770  -2.279   4.774  0.00  0.00    +0.064 A 
ATOM     13  C   UNL     1      -1.500  -1.705   4.716  0.00  0.00    +0.015 A 
ATOM     14  C   UNL     1      -0.851  -1.344   5.878  0.00  0.00    +0.004 A 
ATOM     15  C   UNL     1      -1.456  -1.548   7.107  0.00  0.00    +0.049 A 
ATOM     16  C   UNL     1      -2.716  -2.116   7.179  0.00  0.00    +0.162 A 
ATOM     17  C   UNL     1      -3.383  -2.480   6.014  0.00  0.00    +0.169 A 
BRANCH  17  18
ATOM     18  O   UNL     1      -4.622  -3.034   6.081  0.00  0.00    -0.503 OA
ATOM     19  H   UNL     1      -4.619  -3.998   6.149  0.00  0.00    +0.292 HD
ENDBRANCH  17  18
BRANCH  16  20
ATOM     20  O   UNL     1      -3.305  -2.314   8.390  0.00  0.00    -0.491 OA
ATOM     21  C   UNL     1      -2.565  -1.913   9.544  0.00  0.00    +0.277 C 
ENDBRANCH  16  20
ENDBRANCH  10  12
BRANCH   1  22
ATOM     22  C   UNL     1      -2.860  -1.256  -0.627  0.00  0.00    +0.103 C 
ATOM     23  C   UNL     1      -3.992  -1.252  -1.655  0.00  0.00    +0.024 C 
ENDBRANCH   1  22
BRANCH   1  24
ATOM     24  C   UNL     1      -2.030  -3.654  -0.618  0.00  0.00    +0.106 C 
BRANCH  24  25
ATOM     25  C   UNL     1      -0.582  -3.618  -0.127  0.00  0.00    +0.019 C 
BRANCH  25  27
ATOM     26  C   UNL     1       1.657  -4.714  -0.297  0.00  0.00    +0.004 C 
ATOM     27  C   UNL     1       0.209  -4.750  -0.788  0.00  0.00    -0.002 C 
ENDBRANCH  25  27
ENDBRANCH  24  25
ENDBRANCH   1  24
TORSDOF 7
