REMARK  Name = ZINC43194856
REMARK  5 active torsions:
REMARK  status: ('A' for Active; 'I' for Inactive)
REMARK    1  A    between atoms: C_3  and  C_23
REMARK    2  A    between atoms: C_6  and  C_7
REMARK    3  A    between atoms: C_7  and  N_8
REMARK    4  A    between atoms: C_23  and  C_26
REMARK    5  A    between atoms: N_24  and  O_25
REMARK                            x       y       z     vdW  Elec       q    Type
REMARK                         _______ _______ _______ _____ _____    ______ ____
ROOT
ATOM      1  C   UNL     1       0.098   0.984   0.211  0.00  0.00    +0.002 A 
ATOM      2  C   UNL     1       1.205   1.808   0.236  0.00  0.00    +0.010 A 
ATOM      3  C   UNL     1       2.466   1.284  -0.046  0.00  0.00    +0.004 A 
ATOM      4  C   UNL     1       2.600  -0.070  -0.351  0.00  0.00    +0.010 A 
ATOM      5  C   UNL     1       1.486  -0.884  -0.372  0.00  0.00    +0.002 A 
ATOM      6  C   UNL     1       0.237  -0.358  -0.092  0.00  0.00    -0.064 A 
ENDROOT
BRANCH   3   7
ATOM      7  C   UNL     1       3.659   2.163  -0.022  0.00  0.00    +0.117 C 
ATOM      8  N   UNL     1       3.761   3.098   0.879  0.00  0.00    -0.086 NA
BRANCH   7   9
ATOM      9  C   UNL     1       4.735   1.978  -1.022  0.00  0.00    +0.007 A 
ATOM     10  C   UNL     1       4.538   1.131  -2.113  0.00  0.00    +0.013 A 
ATOM     11  C   UNL     1       5.543   0.962  -3.043  0.00  0.00    +0.042 A 
ATOM     12  C   UNL     1       6.747   1.631  -2.896  0.00  0.00    +0.158 A 
ATOM     13  C   UNL     1       6.949   2.474  -1.812  0.00  0.00    +0.159 A 
ATOM     14  C   UNL     1       5.947   2.654  -0.879  0.00  0.00    +0.051 A 
ATOM     15  F   UNL     1       8.125   3.124  -1.673  0.00  0.00    -0.202 F 
ATOM     16  F   UNL     1       7.728   1.461  -3.809  0.00  0.00    -0.202 F 
ENDBRANCH   7   9
BRANCH   8  17
ATOM     17  O   UNL     1       2.796   3.195   1.911  0.00  0.00    -0.409 OA
ATOM     18  H   UNL     1       2.955   3.919   2.531  0.00  0.00    +0.328 HD
ENDBRANCH   8  17
ENDBRANCH   3   7
BRANCH   6  19
ATOM     19  C   UNL     1      -0.976  -1.252  -0.116  0.00  0.00    -0.043 C 
BRANCH  19  20
ATOM     20  N   UNL     1      -1.552  -1.258  -1.467  0.00  0.00    +0.383 N 
ATOM     21  C   UNL     1      -2.042   0.086  -1.794  0.00  0.00    -0.075 C 
ATOM     22  C   UNL     1      -2.562   0.106  -3.234  0.00  0.00    +0.021 C 
ATOM     23  C   UNL     1      -3.693  -0.912  -3.376  0.00  0.00    +0.093 C 
ATOM     24  C   UNL     1      -3.206  -2.295  -2.948  0.00  0.00    +0.021 C 
ATOM     25  C   UNL     1      -2.660  -2.220  -1.520  0.00  0.00    -0.075 C 
ATOM     26  C   UNL     1      -4.188  -0.949  -4.798  0.00  0.00    +0.008 A 
ATOM     27  C   UNL     1      -3.714  -1.525  -5.957  0.00  0.00    +0.120 A 
ATOM     28  N   UNL     1      -4.376  -1.391  -7.092  0.00  0.00    -0.227 NA
ATOM     29  C   UNL     1      -5.504  -0.709  -7.165  0.00  0.00    +0.214 A 
ATOM     30  C   UNL     1      -6.039  -0.101  -6.038  0.00  0.00    +0.065 A 
ATOM     31  C   UNL     1      -5.372  -0.223  -4.837  0.00  0.00    -0.010 A 
ATOM     32  C   UNL     1      -5.636   0.283  -3.441  0.00  0.00    +0.196 C 
ATOM     33  O   UNL     1      -4.812  -0.514  -2.568  0.00  0.00    -0.364 OA
ATOM     34  F   UNL     1      -6.144  -0.602  -8.350  0.00  0.00    -0.184 F 
ATOM     35  H   UNL     1      -0.843  -1.527  -2.133  0.00  0.00    -0.081 HD
ENDBRANCH  19  20
ENDBRANCH   6  19
TORSDOF 5
