REMARK  Name = ZINC01581129
REMARK  1 active torsions:
REMARK  status: ('A' for Active; 'I' for Inactive)
REMARK    1  A    between atoms: C_18  and  O_21
REMARK                            x       y       z     vdW  Elec       q    Type
REMARK                         _______ _______ _______ _____ _____    ______ ____
ROOT
ATOM      1  C   UNL     1      -2.587   5.526   0.046  0.00  0.00    +0.001 A 
ATOM      2  C   UNL     1      -1.409   6.271   0.026  0.00  0.00    +0.001 A 
ATOM      3  C   UNL     1      -0.193   5.660   0.010  0.00  0.00    +0.008 A 
ATOM      4  C   UNL     1      -0.118   4.257   0.015  0.00  0.00    -0.016 A 
ATOM      5  C   UNL     1       1.118   3.594   0.004  0.00  0.00    +0.032 A 
ATOM      6  C   UNL     1       1.172   2.230   0.003  0.00  0.00    +0.042 A 
ATOM      7  C   UNL     1      -0.018   1.452   0.010  0.00  0.00    +0.061 A 
ATOM      8  C   UNL     1      -1.250   2.100   0.031  0.00  0.00    +0.023 A 
ATOM      9  C   UNL     1      -1.317   3.497   0.031  0.00  0.00    -0.017 A 
ATOM     10  C   UNL     1      -2.555   4.166   0.049  0.00  0.00    +0.008 A 
ATOM     11  C   UNL     1       0.002  -0.004   0.002  0.00  0.00    +0.265 C 
ATOM     12  O   UNL     1      -0.888  -0.533  -0.634  0.00  0.00    -0.267 OA
ATOM     13  N   UNL     1       0.855  -0.839   0.591  0.00  0.00    -0.283 N 
ATOM     14  C   UNL     1       0.580  -2.176   0.797  0.00  0.00    +0.094 A 
ATOM     15  C   UNL     1       1.661  -2.762   1.336  0.00  0.00    +0.020 A 
ATOM     16  C   UNL     1       2.650  -1.769   1.485  0.00  0.00    +0.027 A 
ATOM     17  C   UNL     1       2.133  -0.606   1.037  0.00  0.00    +0.073 A 
ATOM     18  C   UNL     1       2.830   0.716   1.061  0.00  0.00    +0.249 C 
ATOM     19  N   UNL     1       2.391   1.586  -0.006  0.00  0.00    -0.314 N 
ATOM     20  H   UNL     1       2.981   1.723  -0.764  0.00  0.00    +0.149 HD
ENDROOT
BRANCH  18  21
ATOM     21  O   UNL     1       2.572   1.353   2.314  0.00  0.00    -0.369 OA
ATOM     22  H   UNL     1       2.991   2.219   2.409  0.00  0.00    +0.212 HD
ENDBRANCH  18  21
TORSDOF 1
