REMARK  Name = ZINC58666625
REMARK  5 active torsions:
REMARK  status: ('A' for Active; 'I' for Inactive)
REMARK    1  A    between atoms: C_1  and  N_2
REMARK    2  A    between atoms: C_11  and  C_13
REMARK    3  A    between atoms: N_15  and  N_16
REMARK    4  A    between atoms: C_17  and  C_19
REMARK    5  A    between atoms: C_25  and  C_27
REMARK                            x       y       z     vdW  Elec       q    Type
REMARK                         _______ _______ _______ _____ _____    ______ ____
ROOT
ATOM      1  N   UNL     1       5.014  -2.248  -0.034  0.00  0.00    -0.234 N 
ATOM      2  C   UNL     1       6.098  -1.448  -0.035  0.00  0.00    +0.233 C 
ATOM      3  O   UNL     1       5.963  -0.243  -0.028  0.00  0.00    -0.274 OA
ATOM      4  H   UNL     1       5.122  -3.212  -0.040  0.00  0.00    +0.173 HD
ENDROOT
BRANCH   2   5
ATOM      5  C   UNL     1       7.479  -2.051  -0.045  0.00  0.00    +0.090 C 
ATOM      6  C   UNL     1       7.660  -2.903  -1.303  0.00  0.00    +0.040 C 
ATOM      7  C   UNL     1       9.101  -3.291  -1.462  0.00  0.00    -0.030 C 
ATOM      8  C   UNL     1      10.081  -2.707  -0.851  0.00  0.00    -0.030 C 
ATOM      9  C   UNL     1       9.913  -1.567   0.110  0.00  0.00    +0.038 C 
ATOM     10  C   UNL     1       8.530  -0.934  -0.055  0.00  0.00    +0.061 C 
BRANCH  10  11
ATOM     11  C   UNL     1       8.267   0.019   1.082  0.00  0.00    +0.084 A 
ATOM     12  N   UNL     1       8.250  -0.244   2.356  0.00  0.00    -0.244 NA
ATOM     13  C   UNL     1       8.000   0.704   3.283  0.00  0.00    +0.078 A 
ATOM     14  C   UNL     1       7.942   0.602   4.689  0.00  0.00    +0.029 A 
ATOM     15  C   UNL     1       7.670   1.697   5.451  0.00  0.00    +0.002 A 
ATOM     16  C   UNL     1       7.441   2.942   4.881  0.00  0.00    +0.001 A 
ATOM     17  C   UNL     1       7.490   3.081   3.507  0.00  0.00    +0.017 A 
ATOM     18  C   UNL     1       7.764   1.982   2.728  0.00  0.00    +0.039 A 
ATOM     19  S   UNL     1       7.934   1.667   0.991  0.00  0.00    -0.072 S 
ENDBRANCH  10  11
ENDBRANCH   2   5
BRANCH   1  22
ATOM     20  C   UNL     1       2.645  -2.487  -0.024  0.00  0.00    +0.281 C 
ATOM     21  O   UNL     1       2.781  -3.695  -0.031  0.00  0.00    -0.267 OA
ATOM     22  N   UNL     1       3.730  -1.687  -0.025  0.00  0.00    -0.229 N 
ATOM     23  H   UNL     1       3.622  -0.723  -0.020  0.00  0.00    +0.173 HD
BRANCH  20  34
ATOM     24  C   UNL     1      -0.018   1.461   0.010  0.00  0.00    +0.176 C 
ATOM     25  N   UNL     1       0.002  -0.004   0.002  0.00  0.00    -0.231 N 
ATOM     26  C   UNL     1      -1.177  -0.658   0.004  0.00  0.00    +0.275 A 
ATOM     27  O   UNL     1      -2.230  -0.046   0.012  0.00  0.00    -0.266 OA
ATOM     28  C   UNL     1      -1.163  -2.128  -0.004  0.00  0.00    +0.050 A 
ATOM     29  C   UNL     1      -2.323  -2.895  -0.002  0.00  0.00    +0.014 A 
ATOM     30  C   UNL     1      -2.224  -4.270  -0.009  0.00  0.00    +0.001 A 
ATOM     31  C   UNL     1      -0.982  -4.892  -0.018  0.00  0.00    +0.001 A 
ATOM     32  C   UNL     1       0.179  -4.149  -0.020  0.00  0.00    +0.011 A 
ATOM     33  C   UNL     1       0.102  -2.761  -0.013  0.00  0.00    +0.020 A 
ATOM     34  C   UNL     1       1.292  -1.896  -0.015  0.00  0.00    +0.155 A 
ATOM     35  N   UNL     1       1.137  -0.594  -0.012  0.00  0.00    -0.163 NA
ENDBRANCH  20  34
ENDBRANCH   1  22
TORSDOF 4
