REMARK  Name = ZINC66213058
REMARK  9 active torsions:
REMARK  status: ('A' for Active; 'I' for Inactive)
REMARK    1  A    between atoms: C_4  and  C_7
REMARK    2  A    between atoms: C_7  and  C_8
REMARK    3  A    between atoms: C_8  and  N_9
REMARK    4  A    between atoms: N_9  and  C_10
REMARK    5  A    between atoms: C_10  and  C_11
REMARK    6  A    between atoms: N_13  and  C_14
REMARK    7  A    between atoms: C_18  and  C_20
REMARK    8  A    between atoms: N_22  and  C_23
REMARK    9  A    between atoms: C_23  and  C_24
REMARK                            x       y       z     vdW  Elec       q    Type
REMARK                         _______ _______ _______ _____ _____    ______ ____
ROOT
ATOM      1  C   UNL     1       7.209  -2.664   2.744  0.00  0.00    +0.200 C 
ATOM      2  O   UNL     1       7.723  -2.962   1.686  0.00  0.00    -0.278 OA
ATOM      3  N   UNL     1       7.811  -2.997   3.903  0.00  0.00    -0.287 N 
ATOM      4  H   UNL     1       7.435  -2.700   4.747  0.00  0.00    +0.155 HD
ENDROOT
BRANCH   3   5
ATOM      5  C   UNL     1       8.977  -3.770   3.889  0.00  0.00    +0.034 A 
ATOM      6  C   UNL     1       9.205  -4.702   4.895  0.00  0.00    +0.023 A 
ATOM      7  C   UNL     1      10.355  -5.468   4.886  0.00  0.00    +0.003 A 
ATOM      8  C   UNL     1      11.285  -5.313   3.878  0.00  0.00    +0.013 A 
ATOM      9  C   UNL     1      11.066  -4.381   2.863  0.00  0.00    +0.038 A 
ATOM     10  C   UNL     1       9.902  -3.611   2.869  0.00  0.00    +0.036 A 
BRANCH   9  11
ATOM     11  C   UNL     1      12.060  -4.213   1.782  0.00  0.00    +0.244 C 
ATOM     12  O   UNL     1      11.867  -3.400   0.899  0.00  0.00    -0.270 OA
ATOM     13  N   UNL     1      13.181  -4.961   1.776  0.00  0.00    -0.304 N 
ATOM     14  H   UNL     1      13.335  -5.609   2.480  0.00  0.00    +0.149 HD
BRANCH  13  15
ATOM     15  C   UNL     1      14.166  -4.795   0.704  0.00  0.00    +0.179 C 
BRANCH  15  16
ATOM     16  C   UNL     1      15.317  -5.741   0.929  0.00  0.00    +0.122 A 
ATOM     17  C   UNL     1      15.408  -6.996   0.452  0.00  0.00    +0.046 A 
ATOM     18  C   UNL     1      16.644  -7.516   0.902  0.00  0.00    +0.041 A 
ATOM     19  C   UNL     1      17.234  -6.548   1.626  0.00  0.00    +0.195 A 
ATOM     20  O   UNL     1      16.429  -5.473   1.634  0.00  0.00    -0.466 OA
ENDBRANCH  15  16
ENDBRANCH  13  15
ENDBRANCH   9  11
ENDBRANCH   3   5
BRANCH   1  21
ATOM     21  C   UNL     1       5.898  -1.920   2.761  0.00  0.00    +0.015 C 
BRANCH  21  22
ATOM     22  N   UNL     1       5.454  -1.678   1.382  0.00  0.00    +0.385 N 
ATOM     23  H   UNL     1       5.334  -2.560   0.908  0.00  0.00    -0.085 HD
ATOM     24  H   UNL     1       6.147  -1.127   0.898  0.00  0.00    -0.085 HD
BRANCH  22  25
ATOM     25  C   UNL     1       4.176  -0.954   1.399  0.00  0.00    -0.077 C 
BRANCH  25  26
ATOM     26  C   UNL     1       3.714  -0.701  -0.037  0.00  0.00    +0.016 C 
BRANCH  26  30
ATOM     27  C   UNL     1      -0.002   1.406   0.011  0.00  0.00    +0.000 A 
ATOM     28  C   UNL     1       1.190   2.106  -0.003  0.00  0.00    +0.000 A 
ATOM     29  C   UNL     1       2.392   1.425  -0.018  0.00  0.00    +0.003 A 
ATOM     30  C   UNL     1       2.403   0.042  -0.019  0.00  0.00    -0.049 A 
ATOM     31  C   UNL     1       1.212  -0.658  -0.005  0.00  0.00    +0.003 A 
ATOM     32  C   UNL     1       0.009   0.024   0.009  0.00  0.00    +0.000 A 
ENDBRANCH  26  30
ENDBRANCH  25  26
ENDBRANCH  22  25
ENDBRANCH  21  22
ENDBRANCH   1  21
TORSDOF 9
