REMARK  Name = ZINC33358931
REMARK  8 active torsions:
REMARK  status: ('A' for Active; 'I' for Inactive)
REMARK    1  A    between atoms: C_1  and  C_2
REMARK    2  A    between atoms: C_11  and  O_13
REMARK    3  A    between atoms: O_13  and  C_14
REMARK    4  A    between atoms: C_16  and  O_29
REMARK    5  A    between atoms: C_18  and  O_28
REMARK    6  A    between atoms: C_20  and  O_27
REMARK    7  A    between atoms: C_22  and  C_25
REMARK    8  A    between atoms: C_25  and  O_26
REMARK                            x       y       z     vdW  Elec       q    Type
REMARK                         _______ _______ _______ _____ _____    ______ ____
ROOT
ATOM      1  C   UNL     1       0.087  -2.206   5.972  0.00  0.00    +0.339 C 
ATOM      2  C   UNL     1      -0.014  -3.171   7.156  0.00  0.00    +0.214 C 
ATOM      3  C   UNL     1       1.216  -4.084   7.166  0.00  0.00    +0.180 C 
ATOM      4  C   UNL     1       2.479  -3.221   7.226  0.00  0.00    +0.177 C 
ATOM      5  C   UNL     1       2.484  -2.253   6.040  0.00  0.00    +0.179 C 
ATOM      6  O   UNL     1       1.299  -1.455   6.072  0.00  0.00    -0.331 OA
ENDROOT
BRANCH   4   7
ATOM      7  O   UNL     1       2.494  -2.479   8.448  0.00  0.00    -0.386 OA
ATOM      8  H   UNL     1       2.487  -3.030   9.242  0.00  0.00    +0.210 HD
ENDBRANCH   4   7
BRANCH   3   9
ATOM      9  O   UNL     1       1.233  -4.877   5.977  0.00  0.00    -0.386 OA
ATOM     10  H   UNL     1       0.457  -5.445   5.872  0.00  0.00    +0.210 HD
ENDBRANCH   3   9
BRANCH   2  11
ATOM     11  O   UNL     1      -1.197  -3.962   7.028  0.00  0.00    -0.383 OA
ATOM     12  H   UNL     1      -2.015  -3.447   7.010  0.00  0.00    +0.210 HD
ENDBRANCH   2  11
BRANCH   1  13
ATOM     13  O   UNL     1       0.086  -2.948   4.751  0.00  0.00    -0.461 OA
BRANCH  13  24
ATOM     14  C   UNL     1      -0.018   1.503   0.010  0.00  0.00    +0.045 C 
ATOM     15  C   UNL     1       0.002  -0.004   0.002  0.00  0.00    -0.033 A 
ATOM     16  C   UNL     1       0.006  -0.695  -1.167  0.00  0.00    +0.096 A 
ATOM     17  C   UNL     1       0.026  -2.105  -1.149  0.00  0.00    +0.337 A 
ATOM     18  O   UNL     1       0.030  -2.712  -2.204  0.00  0.00    -0.245 OA
ATOM     19  O   UNL     1       0.041  -2.795   0.003  0.00  0.00    -0.422 OA
ATOM     20  C   UNL     1       0.038  -2.169   1.199  0.00  0.00    +0.143 A 
ATOM     21  C   UNL     1       0.024  -0.763   1.254  0.00  0.00    +0.021 A 
ATOM     22  C   UNL     1       0.026  -0.111   2.492  0.00  0.00    +0.015 A 
ATOM     23  C   UNL     1       0.046  -0.842   3.644  0.00  0.00    +0.046 A 
ATOM     24  C   UNL     1       0.066  -2.234   3.596  0.00  0.00    +0.128 A 
ATOM     25  C   UNL     1       0.053  -2.897   2.379  0.00  0.00    +0.092 A 
ENDBRANCH  13  24
ENDBRANCH   1  13
BRANCH   5  26
ATOM     26  C   UNL     1       3.713  -1.346   6.125  0.00  0.00    +0.190 C 
BRANCH  26  27
ATOM     27  O   UNL     1       3.780  -0.524   4.959  0.00  0.00    -0.392 OA
ATOM     28  H   UNL     1       4.537   0.079   4.945  0.00  0.00    +0.210 HD
ENDBRANCH  26  27
ENDBRANCH   5  26
TORSDOF 7
