REMARK  Name = ZINC12570212
REMARK  6 active torsions:
REMARK  status: ('A' for Active; 'I' for Inactive)
REMARK    1  A    between atoms: N_8  and  N_9
REMARK    2  A    between atoms: N_9  and  C_10
REMARK    3  A    between atoms: C_13  and  N_27
REMARK    4  A    between atoms: C_15  and  S_16
REMARK    5  A    between atoms: S_16  and  N_19
REMARK    6  A    between atoms: N_19  and  C_20
REMARK                            x       y       z     vdW  Elec       q    Type
REMARK                         _______ _______ _______ _____ _____    ______ ____
ROOT
ATOM      1  C   UNL     1      -1.355  -4.062   0.195  0.00  0.00    +0.075 A 
ATOM      2  C   UNL     1      -0.836  -5.352   0.190  0.00  0.00    +0.029 A 
ATOM      3  C   UNL     1      -1.685  -6.436   0.296  0.00  0.00    +0.035 A 
ATOM      4  C   UNL     1      -3.049  -6.240   0.409  0.00  0.00    +0.128 A 
ATOM      5  C   UNL     1      -3.569  -4.958   0.414  0.00  0.00    +0.063 A 
ATOM      6  C   UNL     1      -2.726  -3.869   0.314  0.00  0.00    +0.135 A 
ENDROOT
BRANCH   6   7
ATOM      7  S   UNL     1      -3.389  -2.237   0.329  0.00  0.00    +0.093 S 
ATOM      8  O   UNL     1      -2.808  -1.552  -0.772  0.00  0.00    -0.148 OA
ATOM      9  O   UNL     1      -4.795  -2.371   0.487  0.00  0.00    -0.148 OA
BRANCH   7  10
ATOM     10  N   UNL     1      -2.828  -1.493   1.698  0.00  0.00    -0.098 NA
BRANCH  10  11
ATOM     11  C   UNL     1      -3.195  -0.174   1.977  0.00  0.00    +0.074 A 
ATOM     12  C   UNL     1      -4.035   0.513   1.109  0.00  0.00    +0.028 A 
ATOM     13  C   UNL     1      -4.396   1.817   1.388  0.00  0.00    +0.022 A 
ATOM     14  C   UNL     1      -3.921   2.439   2.529  0.00  0.00    +0.041 A 
ATOM     15  C   UNL     1      -3.085   1.757   3.395  0.00  0.00    +0.022 A 
ATOM     16  C   UNL     1      -2.725   0.452   3.125  0.00  0.00    +0.028 A 
ATOM     17 CL   UNL     1      -4.377   4.078   2.875  0.00  0.00    -0.084 Cl
ENDBRANCH  10  11
ENDBRANCH   7  10
ENDBRANCH   6   7
BRANCH   4  18
ATOM     18  N   UNL     1      -3.955  -7.405   0.523  0.00  0.00    +0.056 N 
ATOM     19  O   UNL     1      -3.502  -8.526   0.518  0.00  0.00    -0.126 OA
ATOM     20  O   UNL     1      -5.148  -7.235   0.622  0.00  0.00    -0.126 OA
ENDBRANCH   4  18
BRANCH   1  21
ATOM     21  N   UNL     1      -0.501  -2.964   0.088  0.00  0.00    -0.235 N 
ATOM     22  H   UNL     1      -0.864  -2.065   0.096  0.00  0.00    +0.174 HD
BRANCH  21  30
ATOM     23  C   UNL     1       0.033   1.343   0.590  0.00  0.00    +0.001 A 
ATOM     24  C   UNL     1       1.213   2.060   0.475  0.00  0.00    +0.002 A 
ATOM     25  C   UNL     1       2.404   1.415   0.210  0.00  0.00    +0.024 A 
ATOM     26  C   UNL     1       2.430   0.033   0.054  0.00  0.00    +0.043 A 
ATOM     27  C   UNL     1       1.235  -0.688   0.171  0.00  0.00    +0.028 A 
ATOM     28  C   UNL     1       0.040  -0.029   0.438  0.00  0.00    +0.012 A 
ATOM     29  C   UNL     1       1.583  -2.111  -0.041  0.00  0.00    +0.152 C 
ATOM     30  N   UNL     1       0.771  -3.145  -0.022  0.00  0.00    -0.177 NA
ATOM     31  C   UNL     1       3.036  -2.117  -0.279  0.00  0.00    +0.269 C 
ATOM     32  O   UNL     1       3.722  -3.099  -0.498  0.00  0.00    -0.268 OA
ATOM     33  N   UNL     1       3.472  -0.848  -0.212  0.00  0.00    -0.280 N 
ATOM     34  H   UNL     1       4.396  -0.580  -0.334  0.00  0.00    +0.155 HD
ENDBRANCH  21  30
ENDBRANCH   1  21
TORSDOF 6
