REMARK  Name = ZINC21875097
REMARK  11 active torsions:
REMARK  status: ('A' for Active; 'I' for Inactive)
REMARK    1  A    between atoms: C_1  and  C_2
REMARK    2  A    between atoms: C_2  and  C_3
REMARK    3  A    between atoms: C_2  and  O_4
REMARK    4  A    between atoms: O_4  and  C_5
REMARK    5  A    between atoms: C_8  and  C_11
REMARK    6  A    between atoms: C_11  and  N_12
REMARK    7  A    between atoms: C_13  and  C_15
REMARK    8  A    between atoms: C_21  and  C_26
REMARK    9  A    between atoms: C_21  and  C_27
REMARK   10  A    between atoms: N_22  and  C_25
REMARK   11  A    between atoms: N_29  and  C_30
REMARK                            x       y       z     vdW  Elec       q    Type
REMARK                         _______ _______ _______ _____ _____    ______ ____
ROOT
ATOM      1  C   UNL     1      -0.182   5.731   7.142  0.00  0.00    +0.148 A 
ATOM      2  C   UNL     1       1.120   5.753   6.593  0.00  0.00    +0.067 A 
ATOM      3  C   UNL     1       1.419   4.459   6.338  0.00  0.00    +0.124 A 
ATOM      4  N   UNL     1       0.332   3.700   6.722  0.00  0.00    -0.256 N 
ATOM      5  N   UNL     1      -0.576   4.468   7.183  0.00  0.00    -0.166 NA
ATOM      6  C   UNL     1       0.339   2.240   6.572  0.00  0.00    +0.179 C 
ATOM      7  C   UNL     1       1.208   1.861   5.374  0.00  0.00    +0.130 C 
ATOM      8  N   UNL     1       2.498   2.539   5.377  0.00  0.00    -0.284 N 
ATOM      9  C   UNL     1       2.623   3.832   5.767  0.00  0.00    +0.265 C 
ATOM     10  O   UNL     1       3.671   4.439   5.652  0.00  0.00    -0.268 OA
ATOM     11  C   UNL     1       3.691   1.806   4.947  0.00  0.00    +0.133 C 
ATOM     12  C   UNL     1       1.447   0.350   5.396  0.00  0.00    +0.044 C 
ENDROOT
BRANCH   1  14
ATOM     13  N   UNL     1      -2.200   6.736   8.095  0.00  0.00    -0.306 N 
ATOM     14  C   UNL     1      -0.963   6.903   7.588  0.00  0.00    +0.264 C 
ATOM     15  O   UNL     1      -0.488   8.019   7.498  0.00  0.00    -0.268 OA
ATOM     16  H   UNL     1      -2.630   5.727   8.176  0.00  0.00    +0.149 HD
BRANCH  13  17
ATOM     17  C   UNL     1      -2.974   7.899   8.538  0.00  0.00    +0.140 C 
BRANCH  17  21
ATOM     18  C   UNL     1      -6.770   6.607  10.015  0.00  0.00    +0.121 A 
ATOM     19  C   UNL     1      -5.686   6.707  10.876  0.00  0.00    +0.046 A 
ATOM     20  C   UNL     1      -4.460   7.125  10.396  0.00  0.00    +0.009 A 
ATOM     21  C   UNL     1      -4.312   7.443   9.059  0.00  0.00    -0.030 A 
ATOM     22  C   UNL     1      -5.391   7.349   8.199  0.00  0.00    +0.009 A 
ATOM     23  C   UNL     1      -6.618   6.926   8.673  0.00  0.00    +0.046 A 
BRANCH  18  24
ATOM     24  O   UNL     1      -7.977   6.195  10.484  0.00  0.00    -0.489 OA
BRANCH  24  26
ATOM     25  C   UNL     1      -8.225   6.987  12.754  0.00  0.00    +0.051 C 
ATOM     26  C   UNL     1      -8.032   5.770  11.848  0.00  0.00    +0.167 C 
ATOM     27  C   UNL     1      -9.204   4.804  12.034  0.00  0.00    +0.051 C 
ENDBRANCH  24  26
ENDBRANCH  18  24
ENDBRANCH  17  21
ENDBRANCH  13  17
ENDBRANCH   1  14
BRANCH   7  28
ATOM     28  C   UNL     1       0.473   2.218   4.108  0.00  0.00    +0.238 C 
ATOM     29  O   UNL     1      -0.738   2.285   4.108  0.00  0.00    -0.273 OA
ATOM     30  N   UNL     1       1.162   2.463   2.975  0.00  0.00    -0.311 N 
ATOM     31  H   UNL     1       2.260   2.403   2.975  0.00  0.00    +0.149 HD
BRANCH  30  32
ATOM     32  C   UNL     1       0.447   2.811   1.744  0.00  0.00    +0.073 C 
ATOM     33  C   UNL     1       1.305   2.437   0.534  0.00  0.00    +0.022 C 
ATOM     34  C   UNL     1       0.559   2.800  -0.752  0.00  0.00    +0.002 C 
ATOM     35  C   UNL     1       0.278   4.304  -0.771  0.00  0.00    +0.000 C 
ATOM     36  C   UNL     1      -0.580   4.678   0.440  0.00  0.00    +0.002 C 
ATOM     37  C   UNL     1       0.166   4.315   1.725  0.00  0.00    +0.022 C 
ENDBRANCH  30  32
ENDBRANCH   7  28
TORSDOF 7
