REMARK  Name = ZINC11990993
REMARK  3 active torsions:
REMARK  status: ('A' for Active; 'I' for Inactive)
REMARK    1  A    between atoms: C_1  and  C_2
REMARK    2  A    between atoms: N_10  and  C_11
REMARK    3  A    between atoms: C_17  and  C_19
REMARK                            x       y       z     vdW  Elec       q    Type
REMARK                         _______ _______ _______ _____ _____    ______ ____
ROOT
ATOM      1  C   UNL     1      -2.440  -0.580   0.010  0.00  0.00    +0.071 C 
ATOM      2  C   UNL     1      -2.436   0.927   0.019  0.00  0.00    +0.098 A 
ATOM      3  C   UNL     1      -1.211   1.637   0.017  0.00  0.00    +0.147 A 
ATOM      4  N   UNL     1      -1.245   2.965   0.030  0.00  0.00    -0.175 NA
ATOM      5  C   UNL     1      -2.428   3.584   0.034  0.00  0.00    +0.364 A 
ATOM      6  O   UNL     1      -2.473   4.804   0.041  0.00  0.00    -0.243 OA
ATOM      7  N   UNL     1      -3.570   2.874   0.035  0.00  0.00    -0.226 N 
ATOM      8  H   UNL     1      -4.420   3.343   0.042  0.00  0.00    +0.194 HD
ATOM      9  N   UNL     1      -3.561   1.588   0.028  0.00  0.00    -0.172 NA
ATOM     10  N   UNL     1      -0.011   0.966   0.007  0.00  0.00    -0.324 N 
ATOM     11  H   UNL     1       0.002  -0.004   0.002  0.00  0.00    +0.148 HD
ENDROOT
BRANCH  10  12
ATOM     12  C   UNL     1       1.248   1.716  -0.001  0.00  0.00    +0.075 C 
ATOM     13  C   UNL     1       1.608   2.092  -1.439  0.00  0.00    +0.022 C 
ATOM     14  C   UNL     1       2.922   2.875  -1.448  0.00  0.00    +0.002 C 
ATOM     15  C   UNL     1       4.035   2.010  -0.853  0.00  0.00    +0.000 C 
ATOM     16  C   UNL     1       3.675   1.633   0.585  0.00  0.00    +0.005 C 
ATOM     17  C   UNL     1       2.361   0.850   0.594  0.00  0.00    +0.006 C 
ATOM     18  C   UNL     1       2.000   0.473   2.032  0.00  0.00    +0.009 C 
ENDBRANCH  10  12
TORSDOF 1
