REMARK  Name = ZINC50660254
REMARK  6 active torsions:
REMARK  status: ('A' for Active; 'I' for Inactive)
REMARK    1  A    between atoms: C_1  and  N_2
REMARK    2  A    between atoms: C_5  and  C_8
REMARK    3  A    between atoms: C_8  and  N_9
REMARK    4  A    between atoms: N_9  and  S_10
REMARK    5  A    between atoms: S_10  and  C_13
REMARK    6  A    between atoms: C_18  and  N_19
REMARK                            x       y       z     vdW  Elec       q    Type
REMARK                         _______ _______ _______ _____ _____    ______ ____
ROOT
ATOM      1  S   UNL     1      -0.180  -4.541   4.459  0.00  0.00    +0.062 S 
ATOM      2  O   UNL     1      -0.561  -5.907   4.362  0.00  0.00    -0.153 OA
ATOM      3  O   UNL     1       1.132  -4.141   4.832  0.00  0.00    -0.153 OA
ENDROOT
BRANCH   1   4
ATOM      4  C   UNL     1      -1.282  -3.792   5.612  0.00  0.00    +0.146 A 
ATOM      5  C   UNL     1      -0.791  -3.026   6.654  0.00  0.00    +0.048 A 
ATOM      6  C   UNL     1      -1.696  -2.454   7.540  0.00  0.00    +0.038 A 
ATOM      7  C   UNL     1      -3.049  -2.666   7.356  0.00  0.00    +0.128 A 
ATOM      8  N   UNL     1      -3.487  -3.403   6.352  0.00  0.00    -0.238 NA
ATOM      9  C   UNL     1      -2.657  -3.959   5.484  0.00  0.00    +0.143 A 
ATOM     10 BR   UNL     1      -1.083  -1.397   8.983  0.00  0.00    -0.049 Br
BRANCH   9  11
ATOM     11  N   UNL     1      -3.163  -4.722   4.438  0.00  0.00    -0.342 N 
ATOM     12  H   UNL     1      -2.567  -5.059   3.751  0.00  0.00    +0.144 HD
ATOM     13  H   UNL     1      -4.112  -4.917   4.394  0.00  0.00    +0.144 HD
ENDBRANCH   9  11
ENDBRANCH   1   4
BRANCH   1  14
ATOM     14  N   UNL     1      -0.481  -3.859   2.981  0.00  0.00    -0.190 NA
ATOM     15  H   UNL     1      -0.831  -4.403   2.258  0.00  0.00    +0.148 HD
BRANCH  14  16
ATOM     16  C   UNL     1      -0.219  -2.434   2.764  0.00  0.00    +0.107 C 
BRANCH  16  21
ATOM     17  C   UNL     1      -0.934   1.182  -0.186  0.00  0.00    -0.096 C 
ATOM     18  N   UNL     1      -0.735  -0.273  -0.148  0.00  0.00    +0.378 N 
ATOM     19  C   UNL     1      -2.024  -0.967   0.106  0.00  0.00    -0.079 C 
ATOM     20  C   UNL     1      -1.619  -2.346   0.669  0.00  0.00    -0.016 C 
ATOM     21  C   UNL     1      -0.211  -2.139   1.263  0.00  0.00    -0.014 C 
ATOM     22  C   UNL     1       0.117  -0.651   1.009  0.00  0.00    -0.075 C 
ATOM     23  H   UNL     1      -0.323  -0.596  -1.011  0.00  0.00    -0.082 HD
ENDBRANCH  16  21
ENDBRANCH  14  16
ENDBRANCH   1  14
TORSDOF 5
