REMARK  Name = ZINC08796833
REMARK  18 active torsions:
REMARK  status: ('A' for Active; 'I' for Inactive)
REMARK    1  A    between atoms: C_1  and  C_2
REMARK    2  A    between atoms: C_2  and  C_3
REMARK    3  A    between atoms: C_3  and  C_4
REMARK    4  A    between atoms: C_4  and  N_5
REMARK    5  A    between atoms: N_5  and  C_6
REMARK    6  A    between atoms: N_5  and  S_10
REMARK    7  A    between atoms: C_6  and  C_7
REMARK    8  A    between atoms: C_7  and  C_8
REMARK    9  A    between atoms: C_8  and  C_9
REMARK   10  A    between atoms: S_10  and  C_13
REMARK   11  A    between atoms: C_16  and  C_19
REMARK   12  A    between atoms: C_19  and  N_21
REMARK   13  A    between atoms: N_23  and  C_35
REMARK   14  A    between atoms: C_25  and  O_33
REMARK   15  A    between atoms: C_27  and  O_31
REMARK   16  A    between atoms: O_31  and  C_32
REMARK   17  A    between atoms: O_33  and  C_34
REMARK   18  A    between atoms: C_35  and  C_36
REMARK                            x       y       z     vdW  Elec       q    Type
REMARK                         _______ _______ _______ _____ _____    ______ ____
ROOT
ATOM      1  C   UNL     1       0.487   0.520   7.399  0.00  0.00    +0.106 A 
ATOM      2  C   UNL     1       0.358  -0.844   7.206  0.00  0.00    +0.029 A 
ATOM      3  C   UNL     1       0.215  -1.353   5.931  0.00  0.00    +0.015 A 
ATOM      4  C   UNL     1       0.200  -0.488   4.836  0.00  0.00    +0.039 A 
ATOM      5  C   UNL     1       0.336   0.885   5.037  0.00  0.00    +0.015 A 
ATOM      6  C   UNL     1       0.473   1.382   6.317  0.00  0.00    +0.029 A 
ENDROOT
BRANCH   1   7
ATOM      7  S   UNL     1       0.670   1.161   9.030  0.00  0.00    +0.061 S 
ATOM      8  O   UNL     1       0.225   2.510   8.988  0.00  0.00    -0.153 OA
ATOM      9  O   UNL     1       0.105   0.199   9.910  0.00  0.00    -0.153 OA
BRANCH   7  10
ATOM     10  N   UNL     1       2.292   1.208   9.358  0.00  0.00    -0.177 NA
BRANCH  10  11
ATOM     11  C   UNL     1       3.071   2.406   9.033  0.00  0.00    +0.109 C 
BRANCH  11  12
ATOM     12  C   UNL     1       3.166   3.303  10.269  0.00  0.00    +0.017 C 
BRANCH  12  14
ATOM     13  C   UNL     1       4.075   5.450  11.166  0.00  0.00    +0.004 C 
ATOM     14  C   UNL     1       3.979   4.554   9.930  0.00  0.00    -0.002 C 
ENDBRANCH  12  14
ENDBRANCH  11  12
ENDBRANCH  10  11
BRANCH  10  15
ATOM     15  C   UNL     1       2.949   0.052   9.973  0.00  0.00    +0.109 C 
BRANCH  15  16
ATOM     16  C   UNL     1       3.567  -0.824   8.881  0.00  0.00    +0.017 C 
BRANCH  16  17
ATOM     17  C   UNL     1       4.253  -2.031   9.523  0.00  0.00    -0.002 C 
ATOM     18  C   UNL     1       4.871  -2.907   8.431  0.00  0.00    +0.004 C 
ENDBRANCH  16  17
ENDBRANCH  15  16
ENDBRANCH  10  15
ENDBRANCH   7  10
ENDBRANCH   1   7
BRANCH   4  19
ATOM     19  C   UNL     1       0.048  -1.028   3.465  0.00  0.00    +0.269 C 
ATOM     20  O   UNL     1      -0.066  -2.229   3.292  0.00  0.00    -0.268 OA
BRANCH  19  21
ATOM     21  N   UNL     1       0.034  -0.198   2.418  0.00  0.00    -0.152 NA
ATOM     22  C   UNL     1      -0.103  -0.681   1.188  0.00  0.00    +0.167 A 
ATOM     23  N   UNL     1      -0.139   0.001   0.013  0.00  0.00    -0.318 N 
ATOM     24  C   UNL     1      -0.296  -0.683  -1.182  0.00  0.00    +0.100 A 
ATOM     25  C   UNL     1      -0.350  -0.158  -2.488  0.00  0.00    +0.148 A 
ATOM     26  C   UNL     1      -0.505  -0.990  -3.576  0.00  0.00    +0.093 A 
ATOM     27  C   UNL     1      -0.607  -2.367  -3.418  0.00  0.00    +0.125 A 
ATOM     28  C   UNL     1      -0.551  -2.907  -2.141  0.00  0.00    +0.063 A 
ATOM     29  C   UNL     1      -0.396  -2.075  -1.056  0.00  0.00    +0.046 A 
ATOM     30  S   UNL     1      -0.279  -2.335   0.696  0.00  0.00    -0.052 S 
BRANCH  27  31
ATOM     31  O   UNL     1      -0.761  -3.174  -4.501  0.00  0.00    -0.495 OA
ATOM     32  C   UNL     1      -0.809  -2.541  -5.781  0.00  0.00    +0.277 C 
ENDBRANCH  27  31
BRANCH  25  33
ATOM     33  O   UNL     1      -0.254   1.185  -2.677  0.00  0.00    -0.493 OA
ATOM     34  C   UNL     1      -0.322   1.657  -4.024  0.00  0.00    +0.277 C 
ENDBRANCH  25  33
BRANCH  23  35
ATOM     35  C   UNL     1      -0.018   1.461   0.010  0.00  0.00    +0.121 C 
ATOM     36  C   UNL     1      -0.721   2.033   1.242  0.00  0.00    +0.027 C 
ENDBRANCH  23  35
ENDBRANCH  19  21
ENDBRANCH   4  19
TORSDOF 13
