REMARK  Name = ZINC03670162
REMARK  7 active torsions:
REMARK  status: ('A' for Active; 'I' for Inactive)
REMARK    1  A    between atoms: C_1  and  C_2
REMARK    2  A    between atoms: C_2  and  N_55
REMARK    3  A    between atoms: C_6  and  C_8
REMARK    4  A    between atoms: C_8  and  N_9
REMARK    5  A    between atoms: C_10  and  C_12
REMARK    6  A    between atoms: C_12  and  O_29
REMARK    7  A    between atoms: N_22  and  C_23
REMARK                            x       y       z     vdW  Elec       q    Type
REMARK                         _______ _______ _______ _____ _____    ______ ____
ROOT
ATOM      1  C   UNL     1       7.173 -14.447   7.514  0.00  0.00    +0.247 C 
ATOM      2  C   UNL     1       8.516 -14.802   6.919  0.00  0.00    +0.033 A 
ATOM      3  C   UNL     1       9.012 -14.133   5.824  0.00  0.00    +0.010 A 
ATOM      4  C   UNL     1      10.245 -14.488   5.303  0.00  0.00    +0.001 A 
ATOM      5  C   UNL     1      10.972 -15.512   5.882  0.00  0.00    +0.002 A 
ATOM      6  C   UNL     1      10.475 -16.187   6.980  0.00  0.00    +0.024 A 
ATOM      7  C   UNL     1       9.240 -15.834   7.507  0.00  0.00    +0.043 A 
ATOM      8  N   UNL     1       8.720 -16.502   8.616  0.00  0.00    -0.269 N 
ATOM      9  C   UNL     1       7.535 -16.200   9.160  0.00  0.00    +0.314 C 
ATOM     10  O   UNL     1       7.161 -16.836  10.126  0.00  0.00    -0.252 OA
ATOM     11  N   UNL     1       6.738 -15.224   8.687  0.00  0.00    -0.214 N 
ATOM     12  H   UNL     1       9.242 -17.219   9.011  0.00  0.00    +0.156 HD
ENDROOT
BRANCH  11  13
ATOM     13  C   UNL     1       5.509 -14.955   9.299  0.00  0.00    +0.041 A 
ATOM     14  C   UNL     1       5.377 -13.862  10.146  0.00  0.00    +0.024 A 
ATOM     15  C   UNL     1       4.161 -13.596  10.745  0.00  0.00    +0.002 A 
ATOM     16  C   UNL     1       3.078 -14.423  10.510  0.00  0.00    +0.000 A 
ATOM     17  C   UNL     1       3.207 -15.515   9.671  0.00  0.00    +0.002 A 
ATOM     18  C   UNL     1       4.419 -15.783   9.066  0.00  0.00    +0.024 A 
ENDBRANCH  11  13
BRANCH   1  20
ATOM     19  N   UNL     1       5.764 -15.835   6.028  0.00  0.00    -0.313 N 
ATOM     20  C   UNL     1       6.128 -14.604   6.439  0.00  0.00    +0.269 C 
ATOM     21  O   UNL     1       5.614 -13.623   5.945  0.00  0.00    -0.270 OA
ATOM     22  H   UNL     1       6.174 -16.620   6.424  0.00  0.00    +0.149 HD
BRANCH  19  23
ATOM     23  C   UNL     1       4.748 -15.988   4.984  0.00  0.00    +0.089 C 
BRANCH  23  27
ATOM     24  C   UNL     1       4.085 -18.190   2.386  0.00  0.00    -0.078 C 
ATOM     25  C   UNL     1       5.394 -18.899   2.815  0.00  0.00    -0.020 C 
ATOM     26  C   UNL     1       5.917 -17.947   3.924  0.00  0.00    -0.016 C 
ATOM     27  C   UNL     1       4.620 -17.466   4.608  0.00  0.00    -0.051 C 
ATOM     28  N   UNL     1       3.524 -17.662   3.646  0.00  0.00    +0.382 N 
ATOM     29  H   UNL     1       2.853 -18.339   4.029  0.00  0.00    -0.081 HD
BRANCH  28  31
ATOM     30  C   UNL     1       1.761 -16.578   2.314  0.00  0.00    -0.017 C 
ATOM     31  C   UNL     1       2.825 -16.375   3.396  0.00  0.00    -0.082 C 
ENDBRANCH  28  31
ENDBRANCH  23  27
ENDBRANCH  19  23
ENDBRANCH   1  20
BRANCH   1  32
ATOM     32  O   UNL     1       7.210 -13.069   7.887  0.00  0.00    -0.360 OA
ATOM     33  H   UNL     1       7.487 -12.476   7.175  0.00  0.00    +0.213 HD
ENDBRANCH   1  32
TORSDOF 6
