REMARK  Name = ZINC35375041
REMARK  8 active torsions:
REMARK  status: ('A' for Active; 'I' for Inactive)
REMARK    1  A    between atoms: C_1  and  C_2
REMARK    2  A    between atoms: C_2  and  C_3
REMARK    3  A    between atoms: C_3  and  C_5
REMARK    4  A    between atoms: C_3  and  C_6
REMARK    5  A    between atoms: C_6  and  N_7
REMARK    6  A    between atoms: C_8  and  C_10
REMARK    7  A    between atoms: N_23  and  C_24
REMARK    8  A    between atoms: C_28  and  C_30
REMARK                            x       y       z     vdW  Elec       q    Type
REMARK                         _______ _______ _______ _____ _____    ______ ____
ROOT
ATOM      1  C   UNL     1       2.812  -4.506   3.277  0.00  0.00    +0.028 C 
ATOM      2  C   UNL     1       4.176  -4.282   2.557  0.00  0.00    +0.061 C 
ATOM      3  S   UNL     1       5.113  -5.719   3.240  0.00  0.00    -0.174 S 
ATOM      4  C   UNL     1       3.681  -6.744   3.760  0.00  0.00    -0.016 C 
ATOM      5  N   UNL     1       2.521  -5.953   3.298  0.00  0.00    +0.397 N 
ATOM      6  C   UNL     1       3.732  -8.094   3.061  0.00  0.00    +0.017 C 
ATOM      7  C   UNL     1       2.518  -8.932   3.478  0.00  0.00    +0.109 C 
ATOM      8  N   UNL     1       2.464  -8.986   4.946  0.00  0.00    -0.285 N 
ATOM      9  C   UNL     1       2.461  -7.725   5.701  0.00  0.00    +0.109 C 
ATOM     10  C   UNL     1       3.676  -6.893   5.273  0.00  0.00    +0.017 C 
ATOM     11  C   UNL     1       2.418 -10.170   5.588  0.00  0.00    +0.306 C 
ATOM     12  O   UNL     1       2.330 -11.203   4.952  0.00  0.00    -0.252 OA
ATOM     13  N   UNL     1       2.469 -10.209   6.934  0.00  0.00    -0.269 N 
ATOM     14  H   UNL     1       1.743  -6.123   3.918  0.00  0.00    -0.083 HD
ATOM     15  H   UNL     1       2.435  -9.385   7.445  0.00  0.00    +0.156 HD
ATOM     16  H   UNL     1       2.268  -6.251   2.367  0.00  0.00    -0.083 HD
ENDROOT
BRANCH  13  17
ATOM     17  C   UNL     1       2.572 -11.438   7.595  0.00  0.00    +0.035 A 
ATOM     18  C   UNL     1       3.284 -12.482   7.017  0.00  0.00    +0.023 A 
ATOM     19  C   UNL     1       3.384 -13.693   7.672  0.00  0.00    +0.002 A 
ATOM     20  C   UNL     1       2.775 -13.869   8.901  0.00  0.00    +0.003 A 
ATOM     21  C   UNL     1       2.065 -12.832   9.479  0.00  0.00    -0.049 A 
ATOM     22  C   UNL     1       1.967 -11.616   8.832  0.00  0.00    +0.026 A 
ATOM     23  C   UNL     1       1.403 -13.028  10.818  0.00  0.00    +0.044 C 
ENDBRANCH  13  17
BRANCH   1  25
ATOM     24  N   UNL     1       1.775  -2.442   2.391  0.00  0.00    -0.316 N 
ATOM     25  C   UNL     1       1.721  -3.781   2.531  0.00  0.00    +0.200 C 
ATOM     26  O   UNL     1       0.794  -4.403   2.058  0.00  0.00    -0.278 OA
ATOM     27  H   UNL     1       2.517  -1.944   2.770  0.00  0.00    +0.149 HD
BRANCH  24  28
ATOM     28  C   UNL     1       0.715  -1.737   1.667  0.00  0.00    +0.107 C 
BRANCH  28  29
ATOM     29  C   UNL     1       1.016  -0.237   1.653  0.00  0.00    +0.003 C 
ATOM     30  C   UNL     1       0.960   0.307   3.082  0.00  0.00    +0.009 C 
BRANCH  29  32
ATOM     31  C   UNL     1       0.349   1.964   0.677  0.00  0.00    +0.004 C 
ATOM     32  C   UNL     1      -0.023   0.484   0.792  0.00  0.00    +0.001 C 
ENDBRANCH  29  32
ENDBRANCH  28  29
ENDBRANCH  24  28
ENDBRANCH   1  25
TORSDOF 5
