REMARK  Name = ZINC43138200
REMARK  13 active torsions:
REMARK  status: ('A' for Active; 'I' for Inactive)
REMARK    1  A    between atoms: C_1  and  C_2
REMARK    2  A    between atoms: C_6  and  O_9
REMARK    3  A    between atoms: C_7  and  C_8
REMARK    4  A    between atoms: O_9  and  C_10
REMARK    5  A    between atoms: C_10  and  C_12
REMARK    6  A    between atoms: C_10  and  C_13
REMARK    7  A    between atoms: N_15  and  N_16
REMARK    8  A    between atoms: N_19  and  C_20
REMARK    9  A    between atoms: C_20  and  C_21
REMARK   10  A    between atoms: C_21  and  C_23
REMARK   11  A    between atoms: C_21  and  N_28
REMARK   12  A    between atoms: N_28  and  C_29
REMARK   13  A    between atoms: N_28  and  C_30
REMARK                            x       y       z     vdW  Elec       q    Type
REMARK                         _______ _______ _______ _____ _____    ______ ____
ROOT
ATOM      1  N   UNL     1      -1.960  -6.526   4.535  0.00  0.00    -0.218 N 
ATOM      2  C   UNL     1      -2.091  -7.853   4.729  0.00  0.00    +0.316 C 
ATOM      3  O   UNL     1      -2.656  -8.270   5.722  0.00  0.00    -0.251 OA
ATOM      4  N   UNL     1      -1.595  -8.719   3.823  0.00  0.00    -0.299 N 
ATOM      5  H   UNL     1      -2.317  -5.903   5.188  0.00  0.00    +0.174 HD
ATOM      6  H   UNL     1      -1.144  -8.387   3.031  0.00  0.00    +0.150 HD
ENDROOT
BRANCH   1   9
ATOM      7  C   UNL     1      -1.177  -4.719   3.198  0.00  0.00    +0.270 C 
ATOM      8  O   UNL     1      -1.623  -3.940   4.013  0.00  0.00    -0.270 OA
ATOM      9  N   UNL     1      -1.308  -6.046   3.392  0.00  0.00    -0.230 N 
ATOM     10  H   UNL     1      -0.951  -6.669   2.739  0.00  0.00    +0.173 HD
BRANCH   7  11
ATOM     11  C   UNL     1      -0.476  -4.203   1.968  0.00  0.00    +0.257 C 
ATOM     12  C   UNL     1       0.963  -4.724   1.944  0.00  0.00    +0.062 C 
BRANCH  11  13
ATOM     13  O   UNL     1      -0.465  -2.774   1.990  0.00  0.00    -0.480 OA
BRANCH  13  19
ATOM     14  C   UNL     1      -0.792   1.392  -0.532  0.00  0.00    +0.044 C 
ATOM     15  C   UNL     1      -0.684  -0.110  -0.478  0.00  0.00    -0.044 A 
ATOM     16  C   UNL     1      -0.646  -0.842  -1.651  0.00  0.00    +0.004 A 
ATOM     17  C   UNL     1      -0.547  -2.220  -1.605  0.00  0.00    +0.004 A 
ATOM     18  C   UNL     1      -0.486  -2.870  -0.387  0.00  0.00    +0.046 A 
ATOM     19  C   UNL     1      -0.524  -2.138   0.791  0.00  0.00    +0.125 A 
ATOM     20  C   UNL     1      -0.618  -0.754   0.742  0.00  0.00    -0.006 A 
ATOM     21  C   UNL     1      -0.652   0.045   2.019  0.00  0.00    +0.048 C 
ENDBRANCH  13  19
ENDBRANCH  11  13
ENDBRANCH   7  11
ENDBRANCH   1   9
BRANCH   4  22
ATOM     22  C   UNL     1      -1.738 -10.162   4.034  0.00  0.00    +0.098 C 
BRANCH  22  23
ATOM     23  C   UNL     1      -0.988 -10.915   2.933  0.00  0.00    +0.016 C 
BRANCH  23  24
ATOM     24  C   UNL     1       0.490 -10.647   3.059  0.00  0.00    +0.093 A 
ATOM     25  C   UNL     1       1.394 -11.471   3.619  0.00  0.00    +0.043 A 
ATOM     26  C   UNL     1       2.649 -10.828   3.523  0.00  0.00    +0.041 A 
ATOM     27  C   UNL     1       2.438  -9.650   2.910  0.00  0.00    +0.195 A 
ATOM     28  O   UNL     1       1.129  -9.548   2.626  0.00  0.00    -0.469 OA
ENDBRANCH  23  24
BRANCH  23  29
ATOM     29  N   UNL     1      -1.458 -10.457   1.619  0.00  0.00    +0.384 N 
ATOM     30  C   UNL     1      -0.814 -11.252   0.564  0.00  0.00    -0.096 C 
ATOM     31  C   UNL     1      -2.915 -10.621   1.535  0.00  0.00    -0.096 C 
ATOM     32  H   UNL     1      -1.222  -9.483   1.497  0.00  0.00    -0.082 HD
ENDBRANCH  23  29
ENDBRANCH  22  23
ENDBRANCH   4  22
TORSDOF 8
