REMARK  Name = ZINC05634124
REMARK  9 active torsions:
REMARK  status: ('A' for Active; 'I' for Inactive)
REMARK    1  A    between atoms: C_1  and  C_2
REMARK    2  A    between atoms: C_2  and  C_3
REMARK    3  A    between atoms: C_3  and  C_4
REMARK    4  A    between atoms: C_4  and  N_5
REMARK    5  A    between atoms: C_6  and  N_27
REMARK    6  A    between atoms: C_7  and  N_14
REMARK    7  A    between atoms: N_14  and  C_15
REMARK    8  A    between atoms: C_15  and  C_16
REMARK    9  A    between atoms: C_17  and  C_19
REMARK                            x       y       z     vdW  Elec       q    Type
REMARK                         _______ _______ _______ _____ _____    ______ ____
ROOT
ATOM      1  N   UNL     1       2.916  -2.111  -3.469  0.00  0.00    -0.280 N 
ATOM      2  C   UNL     1       1.860  -2.339  -4.319  0.00  0.00    +0.127 A 
ATOM      3  C   UNL     1       2.064  -3.085  -5.463  0.00  0.00    +0.140 A 
ATOM      4  C   UNL     1       3.353  -3.590  -5.723  0.00  0.00    +0.277 A 
ATOM      5  O   UNL     1       3.562  -4.252  -6.725  0.00  0.00    -0.266 OA
ATOM      6  N   UNL     1       4.353  -3.337  -4.856  0.00  0.00    -0.273 N 
ATOM      7  H   UNL     1       5.241  -3.684  -5.035  0.00  0.00    +0.173 HD
ATOM      8  C   UNL     1       4.136  -2.604  -3.750  0.00  0.00    +0.331 A 
ATOM      9  O   UNL     1       5.058  -2.387  -2.987  0.00  0.00    -0.246 OA
ENDROOT
BRANCH   3  10
ATOM     10  N   UNL     1       1.002  -3.337  -6.354  0.00  0.00    -0.260 N 
ATOM     11  C   UNL     1       0.574  -4.600  -6.554  0.00  0.00    +0.251 C 
ATOM     12  O   UNL     1      -0.391  -4.810  -7.262  0.00  0.00    -0.270 OA
BRANCH  11  13
ATOM     13  C   UNL     1       1.279  -5.729  -5.911  0.00  0.00    +0.039 A 
ATOM     14  C   UNL     1       1.942  -5.541  -4.696  0.00  0.00    +0.014 A 
ATOM     15  C   UNL     1       2.598  -6.597  -4.101  0.00  0.00    +0.022 A 
ATOM     16  C   UNL     1       2.602  -7.843  -4.706  0.00  0.00    +0.059 A 
ATOM     17  C   UNL     1       1.947  -8.037  -5.912  0.00  0.00    +0.060 A 
ATOM     18  C   UNL     1       1.281  -6.988  -6.514  0.00  0.00    +0.034 A 
ATOM     19 CL   UNL     1       1.958  -9.601  -6.663  0.00  0.00    -0.082 Cl
ATOM     20 CL   UNL     1       3.430  -9.169  -3.950  0.00  0.00    -0.082 Cl
ENDBRANCH  11  13
BRANCH  10  21
ATOM     21  C   UNL     1       0.362  -2.227  -7.064  0.00  0.00    +0.111 C 
ATOM     22  C   UNL     1       0.988  -2.081  -8.453  0.00  0.00    +0.025 C 
ENDBRANCH  10  21
ENDBRANCH   3  10
BRANCH   2  23
ATOM     23  N   UNL     1       0.615  -1.831  -4.035  0.00  0.00    -0.343 N 
ATOM     24  H   UNL     1       0.467  -1.346  -3.208  0.00  0.00    +0.144 HD
ATOM     25  H   UNL     1      -0.115  -1.958  -4.660  0.00  0.00    +0.144 HD
ENDBRANCH   2  23
BRANCH   1  26
ATOM     26  C   UNL     1       2.713  -1.320  -2.252  0.00  0.00    +0.128 C 
BRANCH  26  27
ATOM     27  C   UNL     1       2.961   0.159  -2.557  0.00  0.00    +0.021 C 
BRANCH  27  29
ATOM     28  C   UNL     1       2.997   2.463  -1.592  0.00  0.00    +0.004 C 
ATOM     29  C   UNL     1       2.749   0.984  -1.287  0.00  0.00    -0.002 C 
ENDBRANCH  27  29
ENDBRANCH  26  27
ENDBRANCH   1  26
TORSDOF 7
