REMARK  Name = ZINC59373826
REMARK  11 active torsions:
REMARK  status: ('A' for Active; 'I' for Inactive)
REMARK    1  A    between atoms: C_4  and  C_7
REMARK    2  A    between atoms: C_7  and  N_8
REMARK    3  A    between atoms: C_9  and  N_37
REMARK    4  A    between atoms: C_10  and  N_17
REMARK    5  A    between atoms: N_17  and  C_18
REMARK    6  A    between atoms: N_17  and  C_26
REMARK    7  A    between atoms: C_18  and  C_19
REMARK    8  A    between atoms: C_19  and  C_20
REMARK    9  A    between atoms: C_26  and  C_27
REMARK   10  A    between atoms: C_27  and  C_29
REMARK   11  A    between atoms: C_27  and  O_36
REMARK                            x       y       z     vdW  Elec       q    Type
REMARK                         _______ _______ _______ _____ _____    ______ ____
ROOT
ATOM      1  N   UNL     1       6.200   0.672   3.906  0.00  0.00    -0.320 N 
ENDROOT
BRANCH   1   4
ATOM      2  N   UNL     1       3.340  -1.479   3.092  0.00  0.00    -0.276 N 
ATOM      3  C   UNL     1       4.133  -0.569   3.754  0.00  0.00    +0.127 A 
ATOM      4  C   UNL     1       5.365  -0.260   3.246  0.00  0.00    +0.134 A 
ATOM      5  C   UNL     1       5.790  -0.882   2.059  0.00  0.00    +0.277 A 
ATOM      6  O   UNL     1       6.885  -0.623   1.588  0.00  0.00    -0.266 OA
ATOM      7  N   UNL     1       4.981  -1.767   1.445  0.00  0.00    -0.273 N 
ATOM      8  H   UNL     1       5.272  -2.197   0.626  0.00  0.00    +0.173 HD
ATOM      9  C   UNL     1       3.774  -2.063   1.960  0.00  0.00    +0.331 A 
ATOM     10  O   UNL     1       3.062  -2.869   1.391  0.00  0.00    -0.246 OA
BRANCH   3  11
ATOM     11  N   UNL     1       3.690   0.024   4.914  0.00  0.00    -0.343 N 
ATOM     12  H   UNL     1       2.789  -0.144   5.231  0.00  0.00    +0.144 HD
ATOM     13  H   UNL     1       4.279   0.611   5.414  0.00  0.00    +0.144 HD
ENDBRANCH   3  11
BRANCH   2  14
ATOM     14  C   UNL     1       2.018  -1.818   3.626  0.00  0.00    +0.163 C 
BRANCH  14  18
ATOM     15  C   UNL     1       2.370  -5.122   6.310  0.00  0.00    +0.000 A 
ATOM     16  C   UNL     1       2.488  -3.830   6.786  0.00  0.00    +0.000 A 
ATOM     17  C   UNL     1       2.375  -2.761   5.918  0.00  0.00    +0.005 A 
ATOM     18  C   UNL     1       2.143  -2.984   4.573  0.00  0.00    -0.028 A 
ATOM     19  C   UNL     1       2.026  -4.276   4.097  0.00  0.00    +0.005 A 
ATOM     20  C   UNL     1       2.139  -5.346   4.966  0.00  0.00    +0.000 A 
ENDBRANCH  14  18
ENDBRANCH   2  14
ENDBRANCH   1   4
BRANCH   1  21
ATOM     21  C   UNL     1       6.523   1.949   3.264  0.00  0.00    +0.110 C 
BRANCH  21  22
ATOM     22  C   UNL     1       5.551   3.025   3.751  0.00  0.00    +0.049 C 
BRANCH  22  23
ATOM     23  C   UNL     1       5.883   4.338   3.091  0.00  0.00    -0.072 C 
ATOM     24  C   UNL     1       5.231   4.662   2.020  0.00  0.00    -0.028 C 
ATOM     25  C   UNL     1       5.458   5.928   1.248  0.00  0.00    +0.027 C 
ATOM     26  C   UNL     1       6.221   6.939   2.106  0.00  0.00    +0.004 C 
ATOM     27  C   UNL     1       7.442   6.237   2.713  0.00  0.00    +0.005 C 
ATOM     28  C   UNL     1       6.945   5.193   3.718  0.00  0.00    +0.030 C 
ENDBRANCH  22  23
ENDBRANCH  21  22
ENDBRANCH   1  21
BRANCH   1  29
ATOM     29  C   UNL     1       6.740   0.361   5.232  0.00  0.00    +0.141 C 
BRANCH  29  30
ATOM     30  C   UNL     1       8.025  -0.456   5.080  0.00  0.00    +0.162 C 
BRANCH  30  31
ATOM     31  C   UNL     1       8.515  -0.880   6.440  0.00  0.00    -0.015 A 
ATOM     32  C   UNL     1       9.211   0.013   7.234  0.00  0.00    +0.006 A 
ATOM     33  C   UNL     1       9.661  -0.375   8.482  0.00  0.00    +0.003 A 
ATOM     34  C   UNL     1       9.415  -1.656   8.938  0.00  0.00    +0.038 A 
ATOM     35  C   UNL     1       8.718  -2.551   8.145  0.00  0.00    +0.124 A 
ATOM     36  C   UNL     1       8.263  -2.159   6.897  0.00  0.00    +0.044 A 
ATOM     37  F   UNL     1       8.478  -3.804   8.589  0.00  0.00    -0.205 F 
ENDBRANCH  30  31
BRANCH  30  38
ATOM     38  O   UNL     1       9.024   0.342   4.441  0.00  0.00    -0.386 OA
ATOM     39  H   UNL     1       9.254   1.147   4.926  0.00  0.00    +0.210 HD
ENDBRANCH  30  38
ENDBRANCH  29  30
ENDBRANCH   1  29
TORSDOF 11
