REMARK  Name = ZINC06805770
REMARK  5 active torsions:
REMARK  status: ('A' for Active; 'I' for Inactive)
REMARK    1  A    between atoms: C_1  and  C_2
REMARK    2  A    between atoms: C_11  and  C_14
REMARK    3  A    between atoms: C_14  and  C_15
REMARK    4  A    between atoms: N_17  and  C_18
REMARK    5  A    between atoms: C_23  and  C_24
REMARK                            x       y       z     vdW  Elec       q    Type
REMARK                         _______ _______ _______ _____ _____    ______ ____
ROOT
ATOM      1  C   UNL     1       6.229  -3.494  -5.447  0.00  0.00    +0.044 C 
ATOM      2  C   UNL     1       5.341  -3.327  -4.241  0.00  0.00    -0.048 A 
ATOM      3  C   UNL     1       4.014  -2.977  -4.405  0.00  0.00    +0.007 A 
ATOM      4  C   UNL     1       3.190  -2.831  -3.304  0.00  0.00    +0.048 A 
ATOM      5  C   UNL     1       3.697  -3.034  -2.031  0.00  0.00    +0.143 A 
ATOM      6  C   UNL     1       5.040  -3.365  -1.864  0.00  0.00    +0.076 A 
ATOM      7  C   UNL     1       5.856  -3.524  -2.973  0.00  0.00    +0.030 A 
ATOM      8  N   UNL     1       5.547  -3.553  -0.571  0.00  0.00    -0.280 N 
ATOM      9  C   UNL     1       4.798  -3.188   0.490  0.00  0.00    +0.259 C 
ATOM     10  O   UNL     1       5.175  -3.436   1.616  0.00  0.00    -0.271 OA
ATOM     11  C   UNL     1       3.489  -2.471   0.270  0.00  0.00    +0.268 C 
ATOM     12  O   UNL     1       2.888  -2.930  -0.943  0.00  0.00    -0.477 OA
ATOM     13  H   UNL     1       6.427  -3.940  -0.441  0.00  0.00    +0.155 HD
ENDROOT
BRANCH  11  14
ATOM     14  C   UNL     1       3.743  -0.966   0.175  0.00  0.00    +0.150 C 
BRANCH  14  15
ATOM     15  C   UNL     1       2.426  -0.239   0.078  0.00  0.00    +0.221 C 
ATOM     16  O   UNL     1       1.387  -0.865   0.085  0.00  0.00    -0.275 OA
ATOM     17  N   UNL     1       2.403   1.105  -0.015  0.00  0.00    -0.285 N 
ATOM     18  H   UNL     1       3.234   1.600  -0.087  0.00  0.00    +0.155 HD
BRANCH  17  19
ATOM     19  C   UNL     1       1.180   1.786  -0.010  0.00  0.00    +0.036 A 
ATOM     20  C   UNL     1       0.064   1.216  -0.608  0.00  0.00    +0.026 A 
ATOM     21  C   UNL     1      -1.140   1.892  -0.608  0.00  0.00    +0.040 A 
ATOM     22  C   UNL     1      -1.238   3.134  -0.001  0.00  0.00    +0.124 A 
ATOM     23  C   UNL     1      -0.127   3.704   0.596  0.00  0.00    +0.043 A 
ATOM     24  C   UNL     1       1.081   3.033   0.592  0.00  0.00    -0.027 A 
ATOM     25  C   UNL     1       2.291   3.654   1.242  0.00  0.00    +0.046 C 
ATOM     26  F   UNL     1      -2.418   3.791   0.003  0.00  0.00    -0.205 F 
ENDBRANCH  17  19
ENDBRANCH  14  15
ENDBRANCH  11  14
TORSDOF 3
