REMARK  Name = ZINC50033673
REMARK  6 active torsions:
REMARK  status: ('A' for Active; 'I' for Inactive)
REMARK    1  A    between atoms: C_1  and  C_2
REMARK    2  A    between atoms: N_5  and  C_11
REMARK    3  A    between atoms: C_7  and  C_9
REMARK    4  A    between atoms: C_7  and  C_10
REMARK    5  A    between atoms: C_13  and  C_19
REMARK    6  A    between atoms: C_14  and  N_18
REMARK                            x       y       z     vdW  Elec       q    Type
REMARK                         _______ _______ _______ _____ _____    ______ ____
ROOT
ATOM      1  C   UNL     1       0.399  -2.838  -2.137  0.00  0.00    +0.066 A 
ATOM      2  C   UNL     1       1.381  -3.079  -3.080  0.00  0.00    +0.041 A 
ATOM      3  C   UNL     1       1.104  -3.897  -4.180  0.00  0.00    +0.059 A 
ATOM      4  C   UNL     1      -0.171  -4.467  -4.320  0.00  0.00    +0.040 A 
ATOM      5  C   UNL     1      -1.147  -4.216  -3.365  0.00  0.00    +0.063 A 
ATOM      6  C   UNL     1      -0.864  -3.412  -2.278  0.00  0.00    +0.146 A 
ATOM      7  F   UNL     1      -1.817  -3.175  -1.350  0.00  0.00    -0.203 F 
ENDROOT
BRANCH   1  11
ATOM      8  C   UNL     1      -0.479   1.361   0.212  0.00  0.00    +0.039 C 
ATOM      9  C   UNL     1      -0.383  -0.164   0.140  0.00  0.00    +0.133 C 
ATOM     10  C   UNL     1       0.440  -0.568  -1.089  0.00  0.00    +0.136 C 
ATOM     11  N   UNL     1       0.675  -2.019  -1.034  0.00  0.00    -0.322 N 
ATOM     12  C   UNL     1       1.210  -2.586   0.215  0.00  0.00    +0.139 C 
ATOM     13  C   UNL     1       0.350  -2.084   1.380  0.00  0.00    +0.080 C 
ATOM     14  O   UNL     1       0.257  -0.659   1.319  0.00  0.00    -0.368 OA
ATOM     15  C   UNL     1      -1.051  -2.691   1.280  0.00  0.00    +0.043 C 
ATOM     16  C   UNL     1       0.994  -2.498   2.705  0.00  0.00    +0.043 C 
ENDBRANCH   1  11
BRANCH   3  17
ATOM     17  C   UNL     1       2.145  -4.158  -5.189  0.00  0.00    +0.243 C 
ATOM     18  O   UNL     1       1.938  -4.953  -6.085  0.00  0.00    -0.270 OA
ATOM     19  N   UNL     1       3.328  -3.515  -5.118  0.00  0.00    -0.325 N 
ATOM     20  H   UNL     1       3.493  -2.881  -4.403  0.00  0.00    +0.145 HD
ATOM     21  H   UNL     1       4.014  -3.687  -5.782  0.00  0.00    +0.145 HD
ENDBRANCH   3  17
BRANCH   4  22
ATOM     22  N   UNL     1      -0.456  -5.281  -5.412  0.00  0.00    -0.357 N 
ATOM     23  H   UNL     1       0.248  -5.520  -6.035  0.00  0.00    +0.142 HD
ATOM     24  H   UNL     1      -1.358  -5.609  -5.550  0.00  0.00    +0.142 HD
ENDBRANCH   4  22
TORSDOF 3
