REMARK  Name = ZINC39675603
REMARK  9 active torsions:
REMARK  status: ('A' for Active; 'I' for Inactive)
REMARK    1  A    between atoms: C_1  and  N_2
REMARK    2  A    between atoms: N_2  and  C_3
REMARK    3  A    between atoms: N_2  and  C_4
REMARK    4  A    between atoms: C_4  and  C_6
REMARK    5  A    between atoms: C_4  and  C_33
REMARK    6  A    between atoms: C_6  and  N_7
REMARK    7  A    between atoms: C_8  and  C_10
REMARK    8  A    between atoms: C_21  and  C_23
REMARK    9  A    between atoms: C_28  and  C_29
REMARK                            x       y       z     vdW  Elec       q    Type
REMARK                         _______ _______ _______ _____ _____    ______ ____
ROOT
ATOM      1  C   UNL     1      -0.394  -4.130   4.399  0.00  0.00    +0.100 C 
ATOM      2  C   UNL     1       0.970  -3.405   4.359  0.00  0.00    +0.121 C 
ATOM      3  N   UNL     1       1.940  -4.404   4.867  0.00  0.00    -0.296 N 
ATOM      4  C   UNL     1       1.492  -5.687   4.274  0.00  0.00    +0.115 C 
ATOM      5  C   UNL     1      -0.047  -5.628   4.342  0.00  0.00    -0.004 C 
ATOM      6  C   UNL     1      -0.654  -6.264   3.095  0.00  0.00    -0.010 C 
ATOM      7  C   UNL     1      -0.345  -7.763   3.091  0.00  0.00    -0.082 C 
ATOM      8  N   UNL     1      -0.900  -8.383   4.301  0.00  0.00    +0.379 N 
ATOM      9  C   UNL     1      -0.243  -7.831   5.492  0.00  0.00    -0.082 C 
ATOM     10  C   UNL     1      -0.547  -6.334   5.598  0.00  0.00    -0.010 C 
ATOM     11  C   UNL     1       2.992  -4.194   5.683  0.00  0.00    +0.247 C 
ATOM     12  O   UNL     1       3.759  -5.103   5.933  0.00  0.00    -0.270 OA
ATOM     13  H   UNL     1      -1.890  -8.197   4.348  0.00  0.00    -0.086 HD
ATOM     14  H   UNL     1      -0.748  -9.380   4.266  0.00  0.00    -0.086 HD
ENDROOT
BRANCH  11  15
ATOM     15  C   UNL     1       3.213  -2.857   6.274  0.00  0.00    +0.049 A 
ATOM     16  C   UNL     1       2.934  -1.707   5.533  0.00  0.00    +0.013 A 
ATOM     17  C   UNL     1       3.142  -0.463   6.091  0.00  0.00    +0.001 A 
ATOM     18  C   UNL     1       3.626  -0.353   7.382  0.00  0.00    +0.001 A 
ATOM     19  C   UNL     1       3.905  -1.488   8.122  0.00  0.00    +0.013 A 
ATOM     20  C   UNL     1       3.696  -2.738   7.578  0.00  0.00    +0.067 A 
BRANCH  20  21
ATOM     21  C   UNL     1       3.995  -3.974   8.388  0.00  0.00    +0.418 C 
ATOM     22  F   UNL     1       4.463  -3.601   9.652  0.00  0.00    -0.166 F 
ATOM     23  F   UNL     1       2.828  -4.733   8.528  0.00  0.00    -0.166 F 
ATOM     24  F   UNL     1       4.970  -4.735   7.735  0.00  0.00    -0.166 F 
ENDBRANCH  20  21
ENDBRANCH  11  15
BRANCH   1  26
ATOM     25  N   UNL     1      -2.575  -3.753   3.296  0.00  0.00    -0.316 N 
ATOM     26  C   UNL     1      -1.230  -3.740   3.208  0.00  0.00    +0.218 C 
ATOM     27  O   UNL     1      -0.694  -3.414   2.171  0.00  0.00    -0.275 OA
ATOM     28  H   UNL     1      -3.005  -4.014   4.126  0.00  0.00    +0.149 HD
BRANCH  25  29
ATOM     29  C   UNL     1      -3.389  -3.374   2.139  0.00  0.00    +0.093 C 
BRANCH  29  30
ATOM     30  C   UNL     1      -4.869  -3.590   2.462  0.00  0.00    -0.021 C 
BRANCH  30  31
ATOM     31  C   UNL     1      -5.125  -5.058   2.684  0.00  0.00    -0.059 A 
ATOM     32  C   UNL     1      -5.269  -5.905   1.601  0.00  0.00    +0.002 A 
ATOM     33  C   UNL     1      -5.504  -7.252   1.804  0.00  0.00    +0.000 A 
ATOM     34  C   UNL     1      -5.596  -7.752   3.090  0.00  0.00    +0.000 A 
ATOM     35  C   UNL     1      -5.452  -6.904   4.173  0.00  0.00    +0.000 A 
ATOM     36  C   UNL     1      -5.212  -5.558   3.969  0.00  0.00    +0.002 A 
ENDBRANCH  30  31
BRANCH  30  38
ATOM     37  C   UNL     1      -7.108  -3.364   1.631  0.00  0.00    -0.096 C 
ATOM     38  N   UNL     1      -5.690  -3.112   1.341  0.00  0.00    +0.382 N 
ATOM     39  C   UNL     1      -5.476  -1.671   1.157  0.00  0.00    -0.096 C 
ATOM     40  H   UNL     1      -5.426  -3.602   0.499  0.00  0.00    -0.082 HD
ENDBRANCH  30  38
ENDBRANCH  29  30
ENDBRANCH  25  29
ENDBRANCH   1  26
TORSDOF 7
