REMARK  Name = ZINC32754192
REMARK  7 active torsions:
REMARK  status: ('A' for Active; 'I' for Inactive)
REMARK    1  A    between atoms: C_1  and  N_2
REMARK    2  A    between atoms: C_6  and  C_7
REMARK    3  A    between atoms: N_9  and  C_10
REMARK    4  A    between atoms: C_10  and  C_11
REMARK    5  A    between atoms: C_11  and  N_12
REMARK    6  A    between atoms: C_13  and  C_15
REMARK    7  A    between atoms: C_24  and  O_25
REMARK                            x       y       z     vdW  Elec       q    Type
REMARK                         _______ _______ _______ _____ _____    ______ ____
ROOT
ATOM      1  N   UNL     1       2.217   8.150  -0.832  0.00  0.00    -0.310 N 
ATOM      2  C   UNL     1       1.050   7.476  -0.851  0.00  0.00    +0.248 C 
ATOM      3  O   UNL     1       0.002   8.070  -0.680  0.00  0.00    -0.270 OA
ATOM      4  H   UNL     1       3.165   7.614  -0.987  0.00  0.00    +0.149 HD
ENDROOT
BRANCH   2   5
ATOM      5  C   UNL     1       1.044   6.021  -1.079  0.00  0.00    +0.079 A 
ATOM      6  C   UNL     1       2.259   5.338  -1.276  0.00  0.00    +0.017 A 
ATOM      7  C   UNL     1       2.279   3.999  -1.487  0.00  0.00    +0.009 A 
ATOM      8  C   UNL     1       1.076   3.267  -1.513  0.00  0.00    -0.014 A 
ATOM      9  C   UNL     1       1.078   1.879  -1.731  0.00  0.00    +0.008 A 
ATOM     10  C   UNL     1      -0.101   1.197  -1.751  0.00  0.00    +0.001 A 
ATOM     11  C   UNL     1      -1.313   1.856  -1.564  0.00  0.00    +0.001 A 
ATOM     12  C   UNL     1      -1.353   3.199  -1.344  0.00  0.00    +0.012 A 
ATOM     13  C   UNL     1      -0.158   3.935  -1.317  0.00  0.00    +0.024 A 
ATOM     14  C   UNL     1      -0.165   5.328  -1.098  0.00  0.00    +0.137 A 
BRANCH  14  15
ATOM     15  O   UNL     1      -1.334   5.986  -0.909  0.00  0.00    -0.505 OA
ATOM     16  H   UNL     1      -2.284   5.433  -0.925  0.00  0.00    +0.292 HD
ENDBRANCH  14  15
ENDBRANCH   2   5
BRANCH   1  17
ATOM     17  C   UNL     1       2.223   9.598  -0.605  0.00  0.00    +0.123 C 
BRANCH  17  18
ATOM     18  C   UNL     1       3.664  10.112  -0.631  0.00  0.00    +0.123 C 
BRANCH  18  21
ATOM     19  C   UNL     1       4.837  12.233  -0.386  0.00  0.00    +0.261 C 
ATOM     20  O   UNL     1       5.891  11.629  -0.469  0.00  0.00    -0.269 OA
ATOM     21  N   UNL     1       3.671  11.559  -0.405  0.00  0.00    -0.309 N 
ATOM     22  H   UNL     1       2.723  12.096  -0.250  0.00  0.00    +0.149 HD
BRANCH  19  28
ATOM     23  C   UNL     1       7.341  14.050  -0.229  0.00  0.00    +0.149 C 
ATOM     24  N   UNL     1       5.949  14.505  -0.194  0.00  0.00    -0.346 N 
ATOM     25  C   UNL     1       5.540  15.793  -0.090  0.00  0.00    +0.086 A 
ATOM     26  C   UNL     1       4.186  15.823  -0.084  0.00  0.00    +0.020 A 
ATOM     27  C   UNL     1       3.727  14.507  -0.193  0.00  0.00    +0.032 A 
ATOM     28  C   UNL     1       4.838  13.695  -0.264  0.00  0.00    +0.104 A 
ENDBRANCH  19  28
ENDBRANCH  18  21
ENDBRANCH  17  18
ENDBRANCH   1  17
TORSDOF 6
