REMARK  Name = ZINC65578504
REMARK  8 active torsions:
REMARK  status: ('A' for Active; 'I' for Inactive)
REMARK    1  A    between atoms: C_1  and  C_2
REMARK    2  A    between atoms: C_2  and  C_3
REMARK    3  A    between atoms: C_3  and  C_4
REMARK    4  A    between atoms: C_4  and  C_5
REMARK    5  A    between atoms: C_5  and  C_6
REMARK    6  A    between atoms: C_5  and  N_16
REMARK    7  A    between atoms: C_10  and  C_15
REMARK    8  A    between atoms: C_12  and  C_14
REMARK                            x       y       z     vdW  Elec       q    Type
REMARK                         _______ _______ _______ _____ _____    ______ ____
ROOT
ATOM      1  C   UNL     1       1.503  -2.548   2.473  0.00  0.00    +0.160 C 
ENDROOT
BRANCH   1   2
ATOM      2  C   UNL     1       1.417  -4.051   2.529  0.00  0.00    +0.236 C 
ATOM      3  O   UNL     1       2.353  -4.726   2.156  0.00  0.00    -0.274 OA
ATOM      4  N   UNL     1       0.301  -4.646   2.994  0.00  0.00    -0.295 N 
ATOM      5  C   UNL     1      -0.850  -3.848   3.446  0.00  0.00    +0.139 C 
ATOM      6  C   UNL     1      -2.110  -4.382   2.755  0.00  0.00    +0.133 C 
ATOM      7  O   UNL     1      -2.196  -5.794   2.960  0.00  0.00    -0.371 OA
ATOM      8  C   UNL     1      -1.115  -6.536   2.391  0.00  0.00    +0.133 C 
ATOM      9  C   UNL     1       0.194  -6.112   3.058  0.00  0.00    +0.139 C 
ATOM     10  C   UNL     1      -1.034  -6.252   0.890  0.00  0.00    +0.039 C 
ATOM     11  C   UNL     1      -3.345  -3.703   3.349  0.00  0.00    +0.039 C 
ENDBRANCH   1   2
BRANCH   1  12
ATOM     12  N   UNL     1       2.908  -2.140   2.403  0.00  0.00    -0.288 N 
ATOM     13  C   UNL     1       3.678  -2.549   1.374  0.00  0.00    +0.298 C 
ATOM     14  O   UNL     1       3.206  -3.255   0.505  0.00  0.00    -0.253 OA
ATOM     15  N   UNL     1       4.971  -2.175   1.310  0.00  0.00    -0.313 N 
ATOM     16  H   UNL     1       3.285  -1.577   3.097  0.00  0.00    +0.151 HD
ATOM     17  H   UNL     1       5.348  -1.611   2.004  0.00  0.00    +0.146 HD
ATOM     18  H   UNL     1       5.525  -2.469   0.570  0.00  0.00    +0.146 HD
ENDBRANCH   1  12
BRANCH   1  19
ATOM     19  C   UNL     1       0.763  -2.041   1.233  0.00  0.00    +0.032 C 
BRANCH  19  20
ATOM     20  C   UNL     1       0.742  -0.511   1.242  0.00  0.00    +0.002 C 
BRANCH  20  22
ATOM     21  C   UNL     1      -0.019   1.526   0.010  0.00  0.00    +0.004 C 
ATOM     22  C   UNL     1       0.002  -0.004   0.002  0.00  0.00    -0.003 C 
ENDBRANCH  20  22
ENDBRANCH  19  20
ENDBRANCH   1  19
TORSDOF 5
