REMARK  Name = ZINC45552380
REMARK  8 active torsions:
REMARK  status: ('A' for Active; 'I' for Inactive)
REMARK    1  A    between atoms: C_1  and  C_2
REMARK    2  A    between atoms: C_2  and  C_3
REMARK    3  A    between atoms: C_2  and  C_14
REMARK    4  A    between atoms: C_2  and  N_17
REMARK    5  A    between atoms: C_3  and  C_4
REMARK    6  A    between atoms: C_4  and  C_5
REMARK    7  A    between atoms: C_5  and  S_6
REMARK    8  A    between atoms: S_6  and  C_7
REMARK                            x       y       z     vdW  Elec       q    Type
REMARK                         _______ _______ _______ _____ _____    ______ ____
ROOT
ATOM      1  C   UNL     1      -0.019   1.526   0.010  0.00  0.00    -0.001 C 
ATOM      2  C   UNL     1       0.002  -0.004   0.002  0.00  0.00    +0.004 C 
ENDROOT
BRANCH   2   3
ATOM      3  C   UNL     1      -1.412  -0.526   0.013  0.00  0.00    +0.199 C 
ATOM      4  O   UNL     1      -1.939  -0.827   1.062  0.00  0.00    -0.278 OA
ATOM      5  N   UNL     1      -2.090  -0.657  -1.144  0.00  0.00    -0.330 N 
ATOM      6  H   UNL     1      -1.669  -0.416  -1.984  0.00  0.00    +0.145 HD
ATOM      7  H   UNL     1      -3.000  -0.993  -1.137  0.00  0.00    +0.145 HD
ENDBRANCH   2   3
BRANCH   2   8
ATOM      8  N   UNL     1       0.690  -0.478  -1.207  0.00  0.00    +0.387 N 
ATOM      9  H   UNL     1       1.636  -0.129  -1.214  0.00  0.00    -0.089 HD
ATOM     10  H   UNL     1       0.703  -1.487  -1.212  0.00  0.00    -0.089 HD
ATOM     11  H   UNL     1       0.202  -0.144  -2.024  0.00  0.00    -0.089 HD
ENDBRANCH   2   8
BRANCH   2  12
ATOM     12  C   UNL     1       0.742  -0.511   1.242  0.00  0.00    -0.003 C 
BRANCH  12  13
ATOM     13  C   UNL     1       2.178   0.019   1.231  0.00  0.00    +0.010 C 
BRANCH  13  14
ATOM     14  C   UNL     1       2.917  -0.488   2.470  0.00  0.00    +0.074 C 
BRANCH  14  15
ATOM     15  S   UNL     1       4.619   0.140   2.457  0.00  0.00    -0.124 S 
BRANCH  15  16
ATOM     16  C   UNL     1       5.329  -0.523   3.928  0.00  0.00    +0.022 A 
ATOM     17  C   UNL     1       4.570  -1.331   4.765  0.00  0.00    +0.016 A 
ATOM     18  C   UNL     1       5.129  -1.849   5.916  0.00  0.00    +0.001 A 
ATOM     19  C   UNL     1       6.444  -1.564   6.237  0.00  0.00    +0.001 A 
ATOM     20  C   UNL     1       7.204  -0.760   5.407  0.00  0.00    +0.016 A 
ATOM     21  C   UNL     1       6.652  -0.243   4.250  0.00  0.00    +0.031 A 
ATOM     22 BR   UNL     1       7.693   0.851   3.111  0.00  0.00    -0.049 Br
ENDBRANCH  15  16
ENDBRANCH  14  15
ENDBRANCH  13  14
ENDBRANCH  12  13
ENDBRANCH   2  12
TORSDOF 7
