REMARK  Name = ZINC37731749
REMARK  4 active torsions:
REMARK  status: ('A' for Active; 'I' for Inactive)
REMARK    1  A    between atoms: C_2  and  N_10
REMARK    2  A    between atoms: N_10  and  S_11
REMARK    3  A    between atoms: S_11  and  C_14
REMARK    4  A    between atoms: C_15  and  C_20
REMARK                            x       y       z     vdW  Elec       q    Type
REMARK                         _______ _______ _______ _____ _____    ______ ____
ROOT
ATOM      1  S   UNL     1       2.581   4.329   0.125  0.00  0.00    +0.109 S 
ATOM      2  O   UNL     1       3.171   3.963   1.365  0.00  0.00    -0.147 OA
ATOM      3  O   UNL     1       3.254   4.165  -1.116  0.00  0.00    -0.147 OA
ENDROOT
BRANCH   1   4
ATOM      4  C   UNL     1       2.164   6.037   0.250  0.00  0.00    +0.207 A 
ATOM      5  C   UNL     1       1.532   6.813  -0.749  0.00  0.00    +0.125 A 
ATOM      6  C   UNL     1       1.393   8.092  -0.241  0.00  0.00    +0.120 A 
ATOM      7  N   UNL     1       1.911   8.092   0.996  0.00  0.00    -0.305 N 
ATOM      8  N   UNL     1       2.379   6.804   1.282  0.00  0.00    -0.282 N 
ATOM      9  H   UNL     1       1.950   8.855   1.593  0.00  0.00    +0.186 HD
ATOM     10  H   UNL     1       2.797   6.529   2.112  0.00  0.00    +0.188 HD
BRANCH   5  11
ATOM     11  C   UNL     1       1.105   6.349  -2.077  0.00  0.00    +0.391 C 
ATOM     12  O   UNL     1       0.566   7.126  -2.853  0.00  0.00    -0.240 OA
ATOM     13  O   UNL     1       1.288   5.185  -2.406  0.00  0.00    -0.240 OA
ENDBRANCH   5  11
ENDBRANCH   1   4
BRANCH   1  14
ATOM     14  N   UNL     1       1.161   3.485   0.009  0.00  0.00    -0.095 NA
BRANCH  14  16
ATOM     15  C   UNL     1       2.387   1.408  -0.072  0.00  0.00    +0.049 A 
ATOM     16  C   UNL     1       1.178   2.087  -0.013  0.00  0.00    +0.094 A 
ATOM     17  C   UNL     1      -0.015   1.376   0.025  0.00  0.00    +0.067 A 
ATOM     18  C   UNL     1       0.005  -0.006   0.004  0.00  0.00    +0.043 A 
ATOM     19  C   UNL     1       1.211  -0.681  -0.055  0.00  0.00    +0.061 A 
ATOM     20  C   UNL     1       2.401   0.026  -0.093  0.00  0.00    +0.061 A 
ATOM     21 CL   UNL     1       3.913  -0.825  -0.168  0.00  0.00    -0.082 Cl
ATOM     22 CL   UNL     1       1.232  -2.417  -0.081  0.00  0.00    -0.082 Cl
ATOM     23 CL   UNL     1      -1.529   2.222   0.100  0.00  0.00    -0.081 Cl
ENDBRANCH  14  16
ENDBRANCH   1  14
TORSDOF 4
