REMARK  Name = ZINC40014097
REMARK  8 active torsions:
REMARK  status: ('A' for Active; 'I' for Inactive)
REMARK    1  A    between atoms: C_1  and  C_2
REMARK    2  A    between atoms: C_3  and  C_17
REMARK    3  A    between atoms: N_6  and  C_8
REMARK    4  A    between atoms: C_18  and  C_19
REMARK    5  A    between atoms: C_19  and  O_21
REMARK    6  A    between atoms: O_21  and  C_22
REMARK    7  A    between atoms: C_22  and  C_23
REMARK    8  A    between atoms: C_23  and  C_25
REMARK                            x       y       z     vdW  Elec       q    Type
REMARK                         _______ _______ _______ _____ _____    ______ ____
ROOT
ATOM      1  C   UNL     1      -2.442  -0.346   0.012  0.00  0.00    +0.015 C 
ATOM      2  C   UNL     1      -3.454  -1.257   0.012  0.00  0.00    +0.092 C 
ENDROOT
BRANCH   1   5
ATOM      3  C   UNL     1      -0.018   1.503   0.010  0.00  0.00    +0.062 C 
ATOM      4  C   UNL     1       0.002  -0.004   0.002  0.00  0.00    +0.022 C 
ATOM      5  C   UNL     1      -1.105  -0.781   0.003  0.00  0.00    +0.004 C 
ATOM      6  C   UNL     1      -0.614  -2.214  -0.007  0.00  0.00    +0.198 C 
ATOM      7  N   UNL     1       0.857  -2.090  -0.013  0.00  0.00    -0.203 NA
ATOM      8  N   UNL     1       1.135  -0.754  -0.013  0.00  0.00    -0.280 N 
ATOM      9 CL   UNL     1      -1.186  -3.067  -1.489  0.00  0.00    -0.098 Cl
ATOM     10  H   UNL     1       2.032  -0.385  -0.020  0.00  0.00    +0.166 HD
BRANCH   7  11
ATOM     11  C   UNL     1       1.446  -2.756   1.156  0.00  0.00    +0.100 C 
ATOM     12  C   UNL     1       0.933  -2.093   2.445  0.00  0.00    +0.045 C 
ATOM     13  C   UNL     1       1.778  -2.562   3.653  0.00  0.00    +0.167 C 
ATOM     14  S   UNL     1       3.406  -2.939   2.884  0.00  0.00    -0.029 S 
ATOM     15  O   UNL     1       3.683  -4.323   3.043  0.00  0.00    -0.174 OA
ATOM     16  O   UNL     1       4.358  -1.980   3.325  0.00  0.00    -0.174 OA
ATOM     17  C   UNL     1       2.994  -2.608   1.119  0.00  0.00    +0.186 C 
ENDBRANCH   7  11
ENDBRANCH   1   5
BRANCH   2  18
ATOM     18  C   UNL     1      -4.793  -0.821   0.021  0.00  0.00    +0.332 C 
ATOM     19  O   UNL     1      -5.046   0.370   0.028  0.00  0.00    -0.246 OA
BRANCH  18  20
ATOM     20  O   UNL     1      -5.797  -1.725   0.021  0.00  0.00    -0.454 OA
BRANCH  20  21
ATOM     21  C   UNL     1      -7.131  -1.212   0.030  0.00  0.00    +0.311 C 
BRANCH  21  22
ATOM     22  C   UNL     1      -8.110  -2.358   0.029  0.00  0.00    +0.199 C 
ATOM     23  O   UNL     1      -7.704  -3.503   0.022  0.00  0.00    -0.289 OA
BRANCH  22  24
ATOM     24  C   UNL     1      -9.497  -2.101   0.037  0.00  0.00    +0.026 C 
ATOM     25  C   UNL     1     -10.520  -3.032   0.043  0.00  0.00    +0.006 A 
ATOM     26  C   UNL     1     -10.534  -4.447   0.043  0.00  0.00    +0.010 A 
ATOM     27  C   UNL     1     -11.708  -5.117   0.049  0.00  0.00    +0.001 A 
ATOM     28  C   UNL     1     -12.950  -4.461   0.057  0.00  0.00    +0.002 A 
ATOM     29  C   UNL     1     -13.047  -3.114   0.058  0.00  0.00    +0.026 A 
ATOM     30  C   UNL     1     -11.815  -2.308   0.051  0.00  0.00    +0.043 A 
ATOM     31  N   UNL     1     -11.618  -1.021   0.051  0.00  0.00    -0.380 N 
ATOM     32  C   UNL     1     -10.178  -0.750   0.048  0.00  0.00    +0.152 C 
ATOM     33  H   UNL     1     -12.316  -0.346   0.055  0.00  0.00    +0.160 HD
ENDBRANCH  22  24
ENDBRANCH  21  22
ENDBRANCH  20  21
ENDBRANCH  18  20
ENDBRANCH   2  18
TORSDOF 7
