REMARK  Name = ZINC22077372
REMARK  6 active torsions:
REMARK  status: ('A' for Active; 'I' for Inactive)
REMARK    1  A    between atoms: C_1  and  O_2
REMARK    2  A    between atoms: O_2  and  C_3
REMARK    3  A    between atoms: C_6  and  C_10
REMARK    4  A    between atoms: C_13  and  C_15
REMARK    5  A    between atoms: N_16  and  N_17
REMARK    6  A    between atoms: C_18  and  C_20
REMARK                            x       y       z     vdW  Elec       q    Type
REMARK                         _______ _______ _______ _____ _____    ______ ____
ROOT
ATOM      1  N   UNL     1       3.603   3.322   1.381  0.00  0.00    -0.204 N 
ATOM      2  C   UNL     1       3.495   2.043   0.967  0.00  0.00    +0.276 C 
ATOM      3  O   UNL     1       4.489   1.415   0.671  0.00  0.00    -0.270 OA
ATOM      4  H   UNL     1       2.702   3.891   1.650  0.00  0.00    +0.177 HD
ENDROOT
BRANCH   2   5
ATOM      5  C   UNL     1       2.138   1.395   0.873  0.00  0.00    +0.297 C 
ATOM      6  C   UNL     1       1.311   2.080  -0.223  0.00  0.00    +0.283 C 
ATOM      7  O   UNL     1       0.032   1.439  -0.287  0.00  0.00    -0.484 OA
ATOM      8  C   UNL     1       0.029   0.077  -0.291  0.00  0.00    +0.163 A 
ATOM      9  C   UNL     1      -1.098  -0.577  -0.704  0.00  0.00    +0.058 A 
ATOM     10  C   UNL     1      -1.129  -1.981  -0.713  0.00  0.00    -0.014 A 
ATOM     11  C   UNL     1      -2.274  -2.682  -1.131  0.00  0.00    +0.008 A 
ATOM     12  C   UNL     1      -2.270  -4.043  -1.125  0.00  0.00    +0.001 A 
ATOM     13  C   UNL     1      -1.146  -4.755  -0.710  0.00  0.00    +0.001 A 
ATOM     14  C   UNL     1      -0.020  -4.111  -0.300  0.00  0.00    +0.008 A 
ATOM     15  C   UNL     1       0.014  -2.706  -0.292  0.00  0.00    -0.014 A 
ATOM     16  C   UNL     1       1.158  -2.007   0.125  0.00  0.00    +0.058 A 
ATOM     17  C   UNL     1       1.161  -0.640   0.123  0.00  0.00    +0.164 A 
ATOM     18  O   UNL     1       2.285   0.014   0.527  0.00  0.00    -0.472 OA
ENDBRANCH   2   5
BRANCH   1  20
ATOM     19  C   UNL     1       4.965   5.182   1.791  0.00  0.00    +0.176 C 
ATOM     20  N   UNL     1       4.865   3.925   1.468  0.00  0.00    -0.185 NA
BRANCH  19  24
ATOM     21  C   UNL     1       1.712   6.380   2.821  0.00  0.00    +0.136 A 
ATOM     22  C   UNL     1       2.399   7.557   2.857  0.00  0.00    +0.050 A 
ATOM     23  C   UNL     1       3.718   7.276   2.475  0.00  0.00    +0.051 A 
ATOM     24  C   UNL     1       3.778   5.924   2.221  0.00  0.00    +0.148 A 
ATOM     25  O   UNL     1       2.552   5.403   2.431  0.00  0.00    -0.454 OA
BRANCH  21  29
ATOM     26  C   UNL     1      -2.399   5.884   3.768  0.00  0.00    +0.138 A 
ATOM     27  C   UNL     1      -1.818   7.143   3.844  0.00  0.00    +0.048 A 
ATOM     28  C   UNL     1      -0.483   7.307   3.543  0.00  0.00    +0.015 A 
ATOM     29  C   UNL     1       0.283   6.207   3.150  0.00  0.00    +0.019 A 
ATOM     30  C   UNL     1      -0.305   4.942   3.074  0.00  0.00    +0.035 A 
ATOM     31  C   UNL     1      -1.640   4.786   3.382  0.00  0.00    +0.083 A 
ATOM     32 CL   UNL     1      -2.373   3.215   3.288  0.00  0.00    -0.080 Cl
BRANCH  26  34
ATOM     33  C   UNL     1      -4.436   6.896   4.460  0.00  0.00    +0.277 C 
ATOM     34  O   UNL     1      -3.715   5.726   4.070  0.00  0.00    -0.494 OA
ENDBRANCH  26  34
ENDBRANCH  21  29
ENDBRANCH  19  24
ENDBRANCH   1  20
TORSDOF 5
