REMARK  Name = ZINC01022816
REMARK  5 active torsions:
REMARK  status: ('A' for Active; 'I' for Inactive)
REMARK    1  A    between atoms: C_3  and  C_23
REMARK    2  A    between atoms: C_5  and  C_7
REMARK    3  A    between atoms: C_11  and  O_22
REMARK    4  A    between atoms: C_16  and  N_21
REMARK    5  A    between atoms: C_17  and  N_18
REMARK                            x       y       z     vdW  Elec       q    Type
REMARK                         _______ _______ _______ _____ _____    ______ ____
ROOT
ATOM      1  C   UNL     1      -0.196   5.152  -0.180  0.00  0.00    +0.111 C 
ATOM      2  C   UNL     1      -0.562   5.788   1.135  0.00  0.00    +0.012 A 
ATOM      3  C   UNL     1       0.312   5.704   2.203  0.00  0.00    +0.053 A 
ATOM      4  C   UNL     1      -0.017   6.285   3.417  0.00  0.00    +0.117 A 
ATOM      5  C   UNL     1      -1.225   6.953   3.561  0.00  0.00    +0.049 A 
ATOM      6  C   UNL     1      -2.096   7.039   2.494  0.00  0.00    +0.050 A 
ATOM      7  C   UNL     1      -1.768   6.456   1.277  0.00  0.00    +0.134 A 
ATOM      8  O   UNL     1      -2.634   6.546   0.236  0.00  0.00    -0.440 OA
ATOM      9  C   UNL     1      -2.194   6.333  -1.021  0.00  0.00    +0.211 C 
ATOM     10  C   UNL     1      -1.068   5.692  -1.278  0.00  0.00    +0.172 C 
ENDROOT
BRANCH   1  15
ATOM     11  C   UNL     1      -1.816   1.769   0.281  0.00  0.00    +0.002 A 
ATOM     12  C   UNL     1      -0.747   0.915   0.103  0.00  0.00    +0.019 A 
ATOM     13  C   UNL     1       0.519   1.436  -0.176  0.00  0.00    +0.052 A 
ATOM     14  C   UNL     1       0.694   2.818  -0.267  0.00  0.00    +0.023 A 
ATOM     15  C   UNL     1      -0.383   3.660  -0.082  0.00  0.00    -0.032 A 
ATOM     16  C   UNL     1      -1.635   3.138   0.193  0.00  0.00    +0.005 A 
BRANCH  13  17
ATOM     17  C   UNL     1       1.632   0.555  -0.367  0.00  0.00    +0.099 C 
ATOM     18  N   UNL     1       2.515  -0.143  -0.519  0.00  0.00    -0.191 NA
ENDBRANCH  13  17
ENDBRANCH   1  15
BRANCH  10  19
ATOM     19  N   UNL     1      -0.654   5.500  -2.687  0.00  0.00    +0.058 N 
ATOM     20  O   UNL     1      -1.399   5.833  -3.591  0.00  0.00    -0.126 OA
ATOM     21  O   UNL     1       0.431   5.010  -2.941  0.00  0.00    -0.126 OA
ENDBRANCH  10  19
BRANCH   9  22
ATOM     22  N   UNL     1      -2.953   6.806  -2.084  0.00  0.00    -0.328 N 
ATOM     23  H   UNL     1      -3.921   6.791  -2.033  0.00  0.00    +0.145 HD
ATOM     24  H   UNL     1      -2.514   7.150  -2.878  0.00  0.00    +0.145 HD
ENDBRANCH   9  22
BRANCH   4  25
ATOM     25  O   UNL     1       0.842   6.200   4.468  0.00  0.00    -0.507 OA
ATOM     26  H   UNL     1       1.477   6.928   4.516  0.00  0.00    +0.292 HD
ENDBRANCH   4  25
TORSDOF 5
