REMARK  Name = ZINC67636451
REMARK  7 active torsions:
REMARK  status: ('A' for Active; 'I' for Inactive)
REMARK    1  A    between atoms: C_1  and  C_2
REMARK    2  A    between atoms: C_5  and  N_27
REMARK    3  A    between atoms: C_7  and  C_8
REMARK    4  A    between atoms: C_8  and  O_10
REMARK    5  A    between atoms: O_10  and  C_11
REMARK    6  A    between atoms: C_14  and  O_17
REMARK    7  A    between atoms: O_17  and  C_18
REMARK                            x       y       z     vdW  Elec       q    Type
REMARK                         _______ _______ _______ _____ _____    ______ ____
ROOT
ATOM      1  C   UNL     1      -0.060   0.367   4.591  0.00  0.00    +0.132 A 
ATOM      2  C   UNL     1      -0.152   1.750   4.562  0.00  0.00    +0.050 A 
ATOM      3  C   UNL     1      -0.149   2.468   5.743  0.00  0.00    +0.049 A 
ATOM      4  C   UNL     1      -0.054   1.804   6.957  0.00  0.00    +0.122 A 
ATOM      5  C   UNL     1       0.038   0.420   6.986  0.00  0.00    +0.049 A 
ATOM      6  C   UNL     1       0.029  -0.297   5.806  0.00  0.00    +0.050 A 
ENDROOT
BRANCH   1   7
ATOM      7  O   UNL     1      -0.063  -0.339   3.429  0.00  0.00    -0.422 OA
BRANCH   7   8
ATOM      8  C   UNL     1      -1.154  -1.074   3.138  0.00  0.00    +0.345 C 
ATOM      9  O   UNL     1      -2.136  -1.011   3.851  0.00  0.00    -0.245 OA
BRANCH   8  16
ATOM     10  C   UNL     1      -3.515  -2.626   2.515  0.00  0.00    +0.044 C 
ATOM     11  C   UNL     1      -2.290  -2.709   1.642  0.00  0.00    -0.036 A 
ATOM     12  C   UNL     1      -2.287  -3.526   0.530  0.00  0.00    +0.006 A 
ATOM     13  C   UNL     1      -1.163  -3.604  -0.272  0.00  0.00    +0.033 A 
ATOM     14  C   UNL     1      -0.034  -2.865   0.034  0.00  0.00    +0.127 A 
ATOM     15  C   UNL     1      -0.023  -2.044   1.143  0.00  0.00    +0.048 A 
ATOM     16  C   UNL     1      -1.156  -1.956   1.953  0.00  0.00    +0.064 A 
BRANCH  14  17
ATOM     17  N   UNL     1       1.165  -2.954  -0.830  0.00  0.00    +0.056 N 
ATOM     18  O   UNL     1       1.157  -3.673  -1.802  0.00  0.00    -0.126 OA
ATOM     19  O   UNL     1       2.152  -2.309  -0.564  0.00  0.00    -0.126 OA
ENDBRANCH  14  17
ENDBRANCH   8  16
ENDBRANCH   7   8
ENDBRANCH   1   7
BRANCH   4  20
ATOM     20  O   UNL     1      -0.052   2.510   8.119  0.00  0.00    -0.480 OA
BRANCH  20  21
ATOM     21  C   UNL     1      -0.290   3.916   8.025  0.00  0.00    +0.259 C 
ATOM     22  C   UNL     1      -0.835   4.436   9.357  0.00  0.00    +0.054 C 
ATOM     23  C   UNL     1      -0.212   3.687  10.522  0.00  0.00    +0.006 C 
ATOM     24  C   UNL     1       1.274   3.945  10.691  0.00  0.00    +0.019 C 
ATOM     25  C   UNL     1       2.065   3.365   9.516  0.00  0.00    +0.104 C 
ATOM     26  N   UNL     1       2.104   4.365   8.436  0.00  0.00    -0.312 N 
ATOM     27  C   UNL     1       1.008   4.633   7.719  0.00  0.00    +0.254 C 
ATOM     28  O   UNL     1       1.050   5.454   6.828  0.00  0.00    -0.272 OA
ATOM     29  H   UNL     1       2.932   4.831   8.241  0.00  0.00    +0.149 HD
ENDBRANCH  20  21
ENDBRANCH   4  20
TORSDOF 6
