REMARK  Name = ZINC15730840
REMARK  4 active torsions:
REMARK  status: ('A' for Active; 'I' for Inactive)
REMARK    1  A    between atoms: C_1  and  C_2
REMARK    2  A    between atoms: C_9  and  S_15
REMARK    3  A    between atoms: S_15  and  N_18
REMARK    4  A    between atoms: N_21  and  C_24
REMARK                            x       y       z     vdW  Elec       q    Type
REMARK                         _______ _______ _______ _____ _____    ______ ____
ROOT
ATOM      1  C   UNL     1      -0.019   1.526   0.010  0.00  0.00    +0.018 C 
ATOM      2  C   UNL     1       0.002  -0.004   0.002  0.00  0.00    +0.082 C 
ATOM      3  C   UNL     1       0.677  -0.475  -1.254  0.00  0.00    +0.087 C 
ATOM      4  S   UNL     1       0.443  -2.213  -1.593  0.00  0.00    -0.123 S 
ATOM      5  C   UNL     1       1.428  -3.128  -0.477  0.00  0.00    +0.029 A 
ATOM      6  C   UNL     1       1.968  -4.328  -0.961  0.00  0.00    +0.018 A 
ATOM      7  C   UNL     1       2.759  -5.132  -0.175  0.00  0.00    +0.030 A 
ATOM      8  C   UNL     1       3.032  -4.752   1.126  0.00  0.00    +0.107 A 
ATOM      9  C   UNL     1       2.510  -3.579   1.615  0.00  0.00    +0.053 A 
ATOM     10  C   UNL     1       1.697  -2.746   0.828  0.00  0.00    +0.049 A 
ATOM     11  N   UNL     1       1.250  -1.618   1.466  0.00  0.00    -0.284 N 
ATOM     12  C   UNL     1       0.695  -0.483   1.228  0.00  0.00    +0.221 C 
ATOM     13  O   UNL     1       0.739   0.314   2.142  0.00  0.00    -0.275 OA
ATOM     14  H   UNL     1       1.407  -1.706   2.419  0.00  0.00    +0.155 HD
ENDROOT
BRANCH   8  15
ATOM     15  S   UNL     1       4.044  -5.766   2.152  0.00  0.00    +0.061 S 
ATOM     16  O   UNL     1       3.699  -5.458   3.495  0.00  0.00    -0.153 OA
ATOM     17  O   UNL     1       3.962  -7.084   1.627  0.00  0.00    -0.153 OA
BRANCH  15  18
ATOM     18  N   UNL     1       5.610  -5.269   1.940  0.00  0.00    -0.174 NA
ATOM     19  C   UNL     1       6.455  -5.863   0.892  0.00  0.00    +0.125 C 
ATOM     20  C   UNL     1       7.775  -6.312   1.528  0.00  0.00    +0.102 C 
ATOM     21  N   UNL     1       8.378  -5.181   2.247  0.00  0.00    -0.297 NA
ATOM     22  C   UNL     1       7.522  -4.736   3.355  0.00  0.00    +0.102 C 
ATOM     23  C   UNL     1       6.190  -4.218   2.790  0.00  0.00    +0.125 C 
BRANCH  21  24
ATOM     24  C   UNL     1       9.725  -5.520   2.725  0.00  0.00    +0.057 C 
ATOM     25  C   UNL     1      10.681  -5.756   1.530  0.00  0.00    +0.019 C 
ATOM     26  C   UNL     1      12.075  -5.489   2.150  0.00  0.00    +0.002 C 
ATOM     27  C   UNL     1      11.841  -4.306   3.112  0.00  0.00    +0.002 C 
ATOM     28  C   UNL     1      10.347  -4.326   3.478  0.00  0.00    +0.019 C 
ENDBRANCH  21  24
ENDBRANCH  15  18
ENDBRANCH   8  15
TORSDOF 3
