REMARK  Name = ZINC59152069
REMARK  7 active torsions:
REMARK  status: ('A' for Active; 'I' for Inactive)
REMARK    1  A    between atoms: C_1  and  C_2
REMARK    2  A    between atoms: C_4  and  C_8
REMARK    3  A    between atoms: C_5  and  C_7
REMARK    4  A    between atoms: N_10  and  N_11
REMARK    5  A    between atoms: N_19  and  C_22
REMARK    6  A    between atoms: C_22  and  C_23
REMARK    7  A    between atoms: C_23  and  N_24
REMARK                            x       y       z     vdW  Elec       q    Type
REMARK                         _______ _______ _______ _____ _____    ______ ____
ROOT
ATOM      1  N   UNL     1      -3.464  -4.538  -0.006  0.00  0.00    -0.174 NA
ATOM      2  C   UNL     1      -4.774  -4.480   0.001  0.00  0.00    +0.153 C 
ATOM      3  C   UNL     1      -5.728  -5.614   0.005  0.00  0.00    +0.028 A 
ATOM      4  C   UNL     1      -5.565  -6.995   0.004  0.00  0.00    +0.012 A 
ATOM      5  C   UNL     1      -6.676  -7.815   0.010  0.00  0.00    +0.001 A 
ATOM      6  C   UNL     1      -7.946  -7.263   0.017  0.00  0.00    +0.002 A 
ATOM      7  C   UNL     1      -8.117  -5.893   0.018  0.00  0.00    +0.024 A 
ATOM      8  C   UNL     1      -7.011  -5.051   0.012  0.00  0.00    +0.046 A 
ATOM      9  N   UNL     1      -6.905  -3.665   0.012  0.00  0.00    -0.267 N 
ATOM     10  C   UNL     1      -5.620  -3.270   0.011  0.00  0.00    +0.271 C 
ATOM     11  O   UNL     1      -5.225  -2.119   0.015  0.00  0.00    -0.268 OA
ENDROOT
BRANCH   1  14
ATOM     12  C   UNL     1      -1.364  -3.417  -0.010  0.00  0.00    +0.267 C 
ATOM     13  O   UNL     1      -0.803  -4.496  -0.018  0.00  0.00    -0.268 OA
ATOM     14  N   UNL     1      -2.710  -3.357  -0.003  0.00  0.00    -0.202 N 
ATOM     15  H   UNL     1      -3.158  -2.497   0.003  0.00  0.00    +0.178 HD
BRANCH  12  19
ATOM     16  C   UNL     1      -0.018   1.503   0.010  0.00  0.00    +0.086 C 
ATOM     17  C   UNL     1       0.002  -0.004   0.002  0.00  0.00    +0.103 A 
ATOM     18  C   UNL     1      -1.081  -0.796   0.003  0.00  0.00    +0.057 A 
ATOM     19  C   UNL     1      -0.572  -2.176  -0.007  0.00  0.00    +0.079 A 
ATOM     20  C   UNL     1       0.789  -2.065  -0.013  0.00  0.00    +0.114 A 
ATOM     21  O   UNL     1       1.106  -0.767  -0.013  0.00  0.00    -0.464 OA
ATOM     22  C   UNL     1       1.767  -3.212  -0.024  0.00  0.00    +0.087 C 
ENDBRANCH  12  19
ENDBRANCH   1  14
BRANCH   9  23
ATOM     23  C   UNL     1      -8.049  -2.750   0.017  0.00  0.00    +0.095 C 
BRANCH  23  24
ATOM     24  C   UNL     1      -8.441  -2.432   1.462  0.00  0.00    -0.059 C 
BRANCH  24  25
ATOM     25  N   UNL     1      -9.588  -1.515   1.467  0.00  0.00    +0.381 N 
ATOM     26  C   UNL     1      -9.191  -0.233   0.873  0.00  0.00    -0.079 C 
ATOM     27  C   UNL     1     -10.403   0.698   0.802  0.00  0.00    -0.019 C 
ATOM     28  C   UNL     1     -10.941   0.935   2.216  0.00  0.00    -0.004 C 
ATOM     29  C   UNL     1     -11.283  -0.414   2.854  0.00  0.00    -0.019 C 
ATOM     30  C   UNL     1     -10.038  -1.304   2.849  0.00  0.00    -0.079 C 
ATOM     31  H   UNL     1     -10.340  -1.915   0.927  0.00  0.00    -0.082 HD
ENDBRANCH  24  25
ENDBRANCH  23  24
ENDBRANCH   9  23
TORSDOF 5
