REMARK  Name = ZINC66664095
REMARK  7 active torsions:
REMARK  status: ('A' for Active; 'I' for Inactive)
REMARK    1  A    between atoms: C_1  and  C_2
REMARK    2  A    between atoms: C_4  and  N_14
REMARK    3  A    between atoms: N_5  and  C_7
REMARK    4  A    between atoms: C_15  and  C_17
REMARK    5  A    between atoms: C_17  and  C_18
REMARK    6  A    between atoms: C_18  and  C_20
REMARK    7  A    between atoms: C_18  and  N_25
REMARK                            x       y       z     vdW  Elec       q    Type
REMARK                         _______ _______ _______ _____ _____    ______ ____
ROOT
ATOM      1  N   UNL     1       0.183  -3.261  -1.508  0.00  0.00    -0.270 N 
ATOM      2  C   UNL     1       0.120  -3.148  -2.849  0.00  0.00    +0.220 C 
ATOM      3  O   UNL     1      -0.016  -2.057  -3.360  0.00  0.00    -0.275 OA
ATOM      4  H   UNL     1       0.291  -4.134  -1.099  0.00  0.00    +0.156 HD
ENDROOT
BRANCH   1   8
ATOM      5  C   UNL     1      -0.101   1.501  -0.041  0.00  0.00    +0.067 C 
ATOM      6  C   UNL     1      -0.035  -0.004  -0.020  0.00  0.00    +0.062 A 
ATOM      7  C   UNL     1       0.058  -0.833  -1.142  0.00  0.00    +0.068 A 
ATOM      8  C   UNL     1       0.093  -2.123  -0.707  0.00  0.00    +0.129 A 
ATOM      9  N   UNL     1       0.023  -2.097   0.651  0.00  0.00    -0.215 N 
ATOM     10  N   UNL     1      -0.050  -0.756   1.051  0.00  0.00    -0.170 NA
BRANCH   9  11
ATOM     11  C   UNL     1       0.029  -3.213   1.500  0.00  0.00    +0.102 A 
ATOM     12  C   UNL     1       0.976  -4.213   1.328  0.00  0.00    +0.031 A 
ATOM     13  C   UNL     1       0.980  -5.312   2.165  0.00  0.00    +0.002 A 
ATOM     14  C   UNL     1       0.042  -5.417   3.176  0.00  0.00    +0.003 A 
ATOM     15  C   UNL     1      -0.904  -4.423   3.352  0.00  0.00    +0.040 A 
ATOM     16  C   UNL     1      -0.909  -3.318   2.521  0.00  0.00    +0.149 A 
ATOM     17  F   UNL     1      -1.829  -2.344   2.696  0.00  0.00    -0.203 F 
ENDBRANCH   9  11
ENDBRANCH   1   8
BRANCH   2  18
ATOM     18  C   UNL     1       0.217  -4.378  -3.714  0.00  0.00    +0.123 C 
BRANCH  18  19
ATOM     19  C   UNL     1       0.118  -3.976  -5.187  0.00  0.00    +0.120 C 
BRANCH  19  20
ATOM     20  N   UNL     1       1.277  -3.155  -5.548  0.00  0.00    -0.292 N 
ATOM     21  C   UNL     1       2.522  -3.659  -5.431  0.00  0.00    +0.298 C 
ATOM     22  O   UNL     1       2.683  -4.794  -5.026  0.00  0.00    -0.253 OA
ATOM     23  N   UNL     1       3.588  -2.904  -5.763  0.00  0.00    -0.313 N 
ATOM     24  H   UNL     1       1.148  -2.250  -5.871  0.00  0.00    +0.151 HD
ATOM     25  H   UNL     1       3.459  -1.999  -6.086  0.00  0.00    +0.146 HD
ATOM     26  H   UNL     1       4.483  -3.267  -5.679  0.00  0.00    +0.146 HD
ENDBRANCH  19  20
BRANCH  19  27
ATOM     27  C   UNL     1       0.092  -5.214  -6.045  0.00  0.00    +0.010 A 
ATOM     28  C   UNL     1      -0.969  -5.830  -6.623  0.00  0.00    +0.013 A 
ATOM     29  C   UNL     1      -0.753  -6.967  -7.378  0.00  0.00    +0.008 A 
ATOM     30  C   UNL     1       0.512  -7.433  -7.520  0.00  0.00    +0.045 A 
ATOM     31  S   UNL     1       1.450  -6.245  -6.573  0.00  0.00    -0.100 S 
ENDBRANCH  19  27
ENDBRANCH  18  19
ENDBRANCH   2  18
TORSDOF 6
