REMARK  Name = ZINC08789678
REMARK  15 active torsions:
REMARK  status: ('A' for Active; 'I' for Inactive)
REMARK    1  A    between atoms: C_1  and  C_2
REMARK    2  A    between atoms: C_2  and  C_3
REMARK    3  A    between atoms: C_3  and  O_4
REMARK    4  A    between atoms: O_4  and  C_5
REMARK    5  A    between atoms: C_8  and  C_14
REMARK    6  A    between atoms: C_10  and  O_11
REMARK    7  A    between atoms: O_11  and  C_12
REMARK    8  A    between atoms: C_12  and  C_13
REMARK    9  A    between atoms: N_21  and  C_36
REMARK   10  A    between atoms: C_24  and  C_35
REMARK   11  A    between atoms: C_36  and  C_37
REMARK   12  A    between atoms: C_37  and  C_38
REMARK   13  A    between atoms: C_38  and  C_39
REMARK   14  A    between atoms: C_39  and  C_40
REMARK   15  A    between atoms: C_40  and  O_41
REMARK                            x       y       z     vdW  Elec       q    Type
REMARK                         _______ _______ _______ _____ _____    ______ ____
ROOT
ATOM      1  C   UNL     1      -3.008   3.602  -1.847  0.00  0.00    +0.069 C 
ATOM      2  C   UNL     1      -2.447   4.092  -0.507  0.00  0.00    +0.122 C 
ATOM      3  N   UNL     1      -1.220   3.334  -0.200  0.00  0.00    -0.280 N 
ATOM      4  C   UNL     1      -0.051   3.977  -0.135  0.00  0.00    +0.234 C 
ATOM      5  O   UNL     1      -0.067   5.189  -0.190  0.00  0.00    -0.274 OA
ATOM      6  C   UNL     1       1.274   3.301   0.002  0.00  0.00    +0.203 C 
ATOM      7  N   UNL     1       1.153   1.852   0.001  0.00  0.00    -0.291 N 
ATOM      8  C   UNL     1      -0.014   1.209   0.009  0.00  0.00    +0.245 C 
ATOM      9  O   UNL     1       0.002  -0.004   0.002  0.00  0.00    -0.273 OA
ATOM     10  C   UNL     1      -1.341   1.893   0.019  0.00  0.00    +0.151 C 
ATOM     11  C   UNL     1      -2.245   1.325  -1.042  0.00  0.00    +0.054 A 
ATOM     12  C   UNL     1      -2.986   2.095  -1.870  0.00  0.00    -0.008 A 
ATOM     13  C   UNL     1      -3.717   1.198  -2.740  0.00  0.00    +0.004 A 
ATOM     14  C   UNL     1      -4.626   1.417  -3.780  0.00  0.00    +0.010 A 
ATOM     15  C   UNL     1      -5.137   0.305  -4.403  0.00  0.00    +0.001 A 
ATOM     16  C   UNL     1      -4.776  -0.979  -4.028  0.00  0.00    +0.002 A 
ATOM     17  C   UNL     1      -3.878  -1.225  -3.004  0.00  0.00    +0.026 A 
ATOM     18  C   UNL     1      -3.343  -0.115  -2.354  0.00  0.00    +0.047 A 
ATOM     19  N   UNL     1      -2.451   0.002  -1.326  0.00  0.00    -0.356 N 
ATOM     20  H   UNL     1      -2.029  -0.740  -0.867  0.00  0.00    +0.166 HD
ATOM     21  C   UNL     1      -2.008   1.659   1.376  0.00  0.00    +0.048 C 
ENDROOT
BRANCH   1  25
ATOM     22  C   UNL     1      -0.602   5.115  -5.042  0.00  0.00    +0.162 A 
ATOM     23  C   UNL     1      -0.037   4.306  -4.069  0.00  0.00    +0.050 A 
ATOM     24  C   UNL     1      -0.818   3.818  -3.038  0.00  0.00    +0.008 A 
ATOM     25  C   UNL     1      -2.162   4.136  -2.974  0.00  0.00    -0.035 A 
ATOM     26  C   UNL     1      -2.732   4.939  -3.944  0.00  0.00    +0.053 A 
ATOM     27  C   UNL     1      -1.954   5.436  -4.978  0.00  0.00    +0.162 A 
BRANCH  22  28
ATOM     28  O   UNL     1       0.165   5.596  -6.058  0.00  0.00    -0.488 OA
BRANCH  28  29
ATOM     29  C   UNL     1       1.545   5.226  -6.060  0.00  0.00    +0.229 C 
BRANCH  29  31
ATOM     30  C   UNL     1       3.718   5.460  -7.271  0.00  0.00    +0.007 C 
ATOM     31  C   UNL     1       2.240   5.856  -7.269  0.00  0.00    +0.038 C 
ENDBRANCH  29  31
ENDBRANCH  28  29
ENDBRANCH  22  28
BRANCH  27  32
ATOM     32  O   UNL     1      -2.513   6.230  -5.930  0.00  0.00    -0.489 OA
BRANCH  32  33
ATOM     33  C   UNL     1      -3.906   6.517  -5.800  0.00  0.00    +0.226 C 
ATOM     34  C   UNL     1      -4.352   7.417  -6.954  0.00  0.00    +0.048 C 
ENDBRANCH  32  33
ENDBRANCH  27  32
ENDBRANCH   1  25
BRANCH   7  35
ATOM     35  C   UNL     1       2.382   1.055  -0.009  0.00  0.00    +0.108 C 
BRANCH  35  36
ATOM     36  C   UNL     1       2.800   0.780  -1.455  0.00  0.00    +0.019 C 
BRANCH  36  37
ATOM     37  C   UNL     1       4.083  -0.052  -1.466  0.00  0.00    +0.004 C 
BRANCH  37  38
ATOM     38  C   UNL     1       4.501  -0.328  -2.911  0.00  0.00    +0.028 C 
BRANCH  38  39
ATOM     39  C   UNL     1       5.785  -1.160  -2.922  0.00  0.00    +0.156 C 
BRANCH  39  40
ATOM     40  O   UNL     1       6.175  -1.417  -4.272  0.00  0.00    -0.395 OA
ATOM     41  H   UNL     1       6.983  -1.942  -4.355  0.00  0.00    +0.209 HD
ENDBRANCH  39  40
ENDBRANCH  38  39
ENDBRANCH  37  38
ENDBRANCH  36  37
ENDBRANCH  35  36
ENDBRANCH   7  35
TORSDOF 12
