REMARK  Name = ZINC17026396
REMARK  5 active torsions:
REMARK  status: ('A' for Active; 'I' for Inactive)
REMARK    1  A    between atoms: C_1  and  C_2
REMARK    2  A    between atoms: C_5  and  C_30
REMARK    3  A    between atoms: C_6  and  N_8
REMARK    4  A    between atoms: C_19  and  C_29
REMARK    5  A    between atoms: C_21  and  N_23
REMARK                            x       y       z     vdW  Elec       q    Type
REMARK                         _______ _______ _______ _____ _____    ______ ____
ROOT
ATOM      1  N   UNL     1       1.205  -1.870   2.947  0.00  0.00    -0.269 N 
ATOM      2  C   UNL     1       0.317  -1.186   2.198  0.00  0.00    +0.307 C 
ATOM      3  O   UNL     1      -0.874  -1.397   2.324  0.00  0.00    -0.252 OA
ATOM      4  N   UNL     1       0.749  -0.268   1.311  0.00  0.00    -0.282 N 
ATOM      5  C   UNL     1      -0.193   0.408   0.405  0.00  0.00    +0.128 C 
ATOM      6  C   UNL     1       0.031   1.920   0.511  0.00  0.00    +0.127 C 
ATOM      7  N   UNL     1       1.449   2.220   0.270  0.00  0.00    -0.297 N 
ATOM      8  C   UNL     1       2.305   1.608   1.296  0.00  0.00    +0.127 C 
ATOM      9  C   UNL     1       2.174   0.083   1.222  0.00  0.00    +0.128 C 
ATOM     10  C   UNL     1       1.661   3.586   0.197  0.00  0.00    +0.220 A 
ATOM     11  N   UNL     1       0.632   4.408   0.337  0.00  0.00    -0.219 NA
ATOM     12  C   UNL     1       0.796   5.721   0.278  0.00  0.00    +0.045 A 
ATOM     13  C   UNL     1       2.059   6.235   0.056  0.00  0.00    +0.066 A 
ATOM     14  C   UNL     1       3.124   5.343  -0.093  0.00  0.00    +0.127 A 
ATOM     15  N   UNL     1       2.888   4.038  -0.017  0.00  0.00    -0.199 NA
ATOM     16  C   UNL     1      -0.383   6.645   0.445  0.00  0.00    +0.066 C 
ATOM     17  H   UNL     1       2.148  -1.649   2.902  0.00  0.00    +0.156 HD
ENDROOT
BRANCH   1  23
ATOM     18  C   UNL     1      -2.246  -5.148   4.178  0.00  0.00    +0.044 C 
ATOM     19  C   UNL     1      -0.903  -4.505   4.408  0.00  0.00    -0.049 A 
ATOM     20  C   UNL     1      -0.103  -4.931   5.452  0.00  0.00    +0.004 A 
ATOM     21  C   UNL     1       1.130  -4.343   5.667  0.00  0.00    +0.005 A 
ATOM     22  C   UNL     1       1.567  -3.328   4.838  0.00  0.00    -0.029 A 
ATOM     23  C   UNL     1       0.766  -2.898   3.788  0.00  0.00    +0.038 A 
ATOM     24  C   UNL     1      -0.475  -3.487   3.579  0.00  0.00    +0.027 A 
ATOM     25  C   UNL     1       2.911  -2.689   5.072  0.00  0.00    +0.045 C 
ENDBRANCH   1  23
BRANCH  14  26
ATOM     26  N   UNL     1       4.408   5.813  -0.317  0.00  0.00    -0.315 N 
ATOM     27  C   UNL     1       4.450   6.685  -1.498  0.00  0.00    +0.106 C 
ATOM     28  C   UNL     1       5.846   7.299  -1.631  0.00  0.00    +0.019 C 
ATOM     29  C   UNL     1       6.881   6.179  -1.762  0.00  0.00    +0.003 C 
ATOM     30  C   UNL     1       6.783   5.258  -0.543  0.00  0.00    +0.019 C 
ATOM     31  C   UNL     1       5.361   4.703  -0.442  0.00  0.00    +0.106 C 
ENDBRANCH  14  26
TORSDOF 2
