REMARK  Name = ZINC51710143
REMARK  5 active torsions:
REMARK  status: ('A' for Active; 'I' for Inactive)
REMARK    1  A    between atoms: C_4  and  O_21
REMARK    2  A    between atoms: C_5  and  C_7
REMARK    3  A    between atoms: C_7  and  N_8
REMARK    4  A    between atoms: C_15  and  C_18
REMARK    5  A    between atoms: O_21  and  C_22
REMARK                            x       y       z     vdW  Elec       q    Type
REMARK                         _______ _______ _______ _____ _____    ______ ____
ROOT
ATOM      1  N   UNL     1       1.528  -2.173   1.903  0.00  0.00    -0.295 N 
ATOM      2  C   UNL     1       1.562  -3.372   2.519  0.00  0.00    +0.303 C 
ATOM      3  O   UNL     1       1.473  -4.394   1.866  0.00  0.00    -0.253 OA
ATOM      4  N   UNL     1       1.696  -3.438   3.859  0.00  0.00    -0.281 N 
ATOM      5  C   UNL     1       1.685  -2.218   4.682  0.00  0.00    +0.137 C 
ATOM      6  C   UNL     1       2.907  -2.248   5.607  0.00  0.00    +0.180 C 
ATOM      7  O   UNL     1       2.931  -3.491   6.314  0.00  0.00    -0.364 OA
ATOM      8  C   UNL     1       3.069  -4.639   5.474  0.00  0.00    +0.221 C 
ATOM      9  C   UNL     1       1.850  -4.732   4.542  0.00  0.00    +0.150 C 
ATOM     10  H   UNL     1       1.686  -1.362   2.411  0.00  0.00    +0.151 HD
ENDROOT
BRANCH   8  11
ATOM     11  C   UNL     1       3.146  -5.880   6.326  0.00  0.00    +0.241 C 
ATOM     12  O   UNL     1       2.997  -5.801   7.527  0.00  0.00    -0.273 OA
ATOM     13  N   UNL     1       3.379  -7.077   5.753  0.00  0.00    -0.327 N 
ATOM     14  H   UNL     1       3.498  -7.141   4.792  0.00  0.00    +0.145 HD
ATOM     15  H   UNL     1       3.428  -7.876   6.301  0.00  0.00    +0.145 HD
ENDBRANCH   8  11
BRANCH   1  16
ATOM     16  C   UNL     1       1.252  -2.096   0.467  0.00  0.00    +0.144 C 
BRANCH  16  21
ATOM     17  C   UNL     1       0.098   1.355  -0.543  0.00  0.00    +0.001 A 
ATOM     18  C   UNL     1       1.302   1.995  -0.776  0.00  0.00    +0.004 A 
ATOM     19  C   UNL     1       2.491   1.313  -0.608  0.00  0.00    +0.046 A 
ATOM     20  C   UNL     1       2.478  -0.014  -0.204  0.00  0.00    +0.126 A 
ATOM     21  C   UNL     1       1.270  -0.654   0.029  0.00  0.00    +0.011 A 
ATOM     22  C   UNL     1       0.082   0.032  -0.141  0.00  0.00    +0.009 A 
BRANCH  20  23
ATOM     23  O   UNL     1       3.647  -0.687  -0.038  0.00  0.00    -0.488 OA
BRANCH  23  24
ATOM     24  C   UNL     1       4.854   0.066  -0.176  0.00  0.00    +0.173 C 
ATOM     25  C   UNL     1       5.273   0.126  -1.659  0.00  0.00    +0.044 C 
ATOM     26  C   UNL     1       6.819   0.038  -1.621  0.00  0.00    +0.004 C 
ATOM     27  C   UNL     1       7.075  -0.973  -0.476  0.00  0.00    +0.004 C 
ATOM     28  C   UNL     1       6.000  -0.633   0.576  0.00  0.00    +0.044 C 
ENDBRANCH  23  24
ENDBRANCH  20  23
ENDBRANCH  16  21
ENDBRANCH   1  16
TORSDOF 5
