REMARK  Name = ZINC62320993
REMARK  6 active torsions:
REMARK  status: ('A' for Active; 'I' for Inactive)
REMARK    1  A    between atoms: C_1  and  C_2
REMARK    2  A    between atoms: C_2  and  C_3
REMARK    3  A    between atoms: C_10  and  C_12
REMARK    4  A    between atoms: N_14  and  C_24
REMARK    5  A    between atoms: C_19  and  N_23
REMARK    6  A    between atoms: C_24  and  C_25
REMARK                            x       y       z     vdW  Elec       q    Type
REMARK                         _______ _______ _______ _____ _____    ______ ____
ROOT
ATOM      1  C   UNL     1      -1.975   1.345   3.419  0.00  0.00    +0.100 A 
ATOM      2  C   UNL     1      -1.257   2.165   4.264  0.00  0.00    +0.103 A 
ATOM      3  N   UNL     1      -1.690   2.478   5.493  0.00  0.00    -0.346 N 
ATOM      4  C   UNL     1      -2.880   2.007   6.007  0.00  0.00    +0.055 A 
ATOM      5  C   UNL     1      -3.284   2.362   7.290  0.00  0.00    +0.026 A 
ATOM      6  C   UNL     1      -4.476   1.887   7.797  0.00  0.00    +0.004 A 
ATOM      7  C   UNL     1      -5.286   1.054   7.045  0.00  0.00    +0.023 A 
ATOM      8  C   UNL     1      -4.908   0.685   5.763  0.00  0.00    +0.037 A 
ATOM      9  C   UNL     1      -3.698   1.162   5.238  0.00  0.00    +0.066 A 
ATOM     10  C   UNL     1      -3.262   0.800   3.880  0.00  0.00    +0.203 A 
ATOM     11  O   UNL     1      -3.936   0.075   3.169  0.00  0.00    -0.286 OA
ENDROOT
BRANCH   1  18
ATOM     12  C   UNL     1      -0.654  -0.588   0.423  0.00  0.00    +0.076 C 
ATOM     13  C   UNL     1       0.567  -1.485   0.647  0.00  0.00    +0.022 C 
ATOM     14  C   UNL     1       0.154  -2.704   1.476  0.00  0.00    +0.003 C 
ATOM     15  C   UNL     1      -0.364  -2.243   2.841  0.00  0.00    +0.019 C 
ATOM     16  C   UNL     1      -1.595  -1.353   2.642  0.00  0.00    +0.108 C 
ATOM     17  N   UNL     1      -1.248  -0.258   1.726  0.00  0.00    -0.294 N 
ATOM     18  C   UNL     1      -1.465   1.026   2.076  0.00  0.00    +0.252 C 
ATOM     19  O   UNL     1      -1.241   1.919   1.282  0.00  0.00    -0.270 OA
BRANCH  12  21
ATOM     20  C   UNL     1      -1.448   1.382  -0.894  0.00  0.00    +0.006 C 
ATOM     21  C   UNL     1      -0.222   0.699  -0.284  0.00  0.00    +0.019 C 
ENDBRANCH  12  21
ENDBRANCH   1  18
BRANCH   8  22
ATOM     22  N   UNL     1      -5.720  -0.151   5.006  0.00  0.00    -0.357 N 
ATOM     23  H   UNL     1      -6.605  -0.386   5.324  0.00  0.00    +0.142 HD
ATOM     24  H   UNL     1      -5.400  -0.501   4.159  0.00  0.00    +0.142 HD
ENDBRANCH   8  22
BRANCH   3  25
ATOM     25  C   UNL     1      -0.864   3.355   6.326  0.00  0.00    +0.118 C 
ATOM     26  C   UNL     1      -1.262   4.812   6.082  0.00  0.00    +0.027 C 
ENDBRANCH   3  25
TORSDOF 4
