REMARK  Name = ZINC03600445
REMARK  5 active torsions:
REMARK  status: ('A' for Active; 'I' for Inactive)
REMARK    1  A    between atoms: C_1  and  C_2
REMARK    2  A    between atoms: C_2  and  C_18
REMARK    3  A    between atoms: N_5  and  C_9
REMARK    4  A    between atoms: C_9  and  C_10
REMARK    5  A    between atoms: N_12  and  C_13
REMARK                            x       y       z     vdW  Elec       q    Type
REMARK                         _______ _______ _______ _____ _____    ______ ____
ROOT
ATOM      1  C   UNL     1       5.447   0.149  -1.162  0.00  0.00    +0.047 C 
ATOM      2  C   UNL     1       4.088  -0.356  -0.673  0.00  0.00    +0.135 C 
ATOM      3  C   UNL     1       2.978   0.565  -1.138  0.00  0.00    +0.251 C 
ATOM      4  O   UNL     1       2.668   0.818  -2.283  0.00  0.00    -0.272 OA
ATOM      5  N   UNL     1       2.407   1.043  -0.015  0.00  0.00    -0.215 N 
ATOM      6  C   UNL     1       2.999   0.561   1.083  0.00  0.00    +0.310 C 
ATOM      7  O   UNL     1       2.662   0.851   2.215  0.00  0.00    -0.252 OA
ATOM      8  N   UNL     1       4.006  -0.283   0.796  0.00  0.00    -0.281 N 
ATOM      9  H   UNL     1       4.570  -0.750   1.432  0.00  0.00    +0.152 HD
ENDROOT
BRANCH   2  10
ATOM     10  C   UNL     1       3.843  -1.765  -1.149  0.00  0.00    -0.015 A 
ATOM     11  C   UNL     1       3.156  -1.986  -2.328  0.00  0.00    +0.007 A 
ATOM     12  C   UNL     1       2.936  -3.278  -2.768  0.00  0.00    +0.020 A 
ATOM     13  C   UNL     1       3.392  -4.350  -2.021  0.00  0.00    +0.041 A 
ATOM     14  C   UNL     1       4.074  -4.128  -0.838  0.00  0.00    +0.020 A 
ATOM     15  C   UNL     1       4.299  -2.835  -0.402  0.00  0.00    +0.007 A 
ATOM     16 CL   UNL     1       3.110  -5.973  -2.569  0.00  0.00    -0.084 Cl
ENDBRANCH   2  10
BRANCH   5  17
ATOM     17  C   UNL     1       1.280   1.980   0.001  0.00  0.00    +0.213 C 
BRANCH  17  18
ATOM     18  C   UNL     1      -0.014   1.209   0.009  0.00  0.00    +0.231 C 
ATOM     19  O   UNL     1       0.002  -0.004   0.002  0.00  0.00    -0.274 OA
ATOM     20  N   UNL     1      -1.191   1.867   0.018  0.00  0.00    -0.311 N 
ATOM     21  H   UNL     1      -1.204   2.837   0.023  0.00  0.00    +0.149 HD
BRANCH  20  22
ATOM     22  C   UNL     1      -2.449   1.117   0.020  0.00  0.00    +0.073 C 
ATOM     23  C   UNL     1      -2.873   0.791  -1.427  0.00  0.00    +0.022 C 
ATOM     24  C   UNL     1      -4.416   0.929  -1.411  0.00  0.00    +0.002 C 
ATOM     25  C   UNL     1      -4.641   2.143  -0.476  0.00  0.00    +0.002 C 
ATOM     26  C   UNL     1      -3.573   1.976   0.625  0.00  0.00    +0.022 C 
ENDBRANCH  20  22
ENDBRANCH  17  18
ENDBRANCH   5  17
TORSDOF 4
