REMARK  Name = ZINC19216705
REMARK  6 active torsions:
REMARK  status: ('A' for Active; 'I' for Inactive)
REMARK    1  A    between atoms: C_1  and  C_2
REMARK    2  A    between atoms: C_5  and  C_7
REMARK    3  A    between atoms: C_9  and  N_20
REMARK    4  A    between atoms: N_12  and  C_14
REMARK    5  A    between atoms: C_14  and  C_16
REMARK    6  A    between atoms: C_14  and  C_17
REMARK                            x       y       z     vdW  Elec       q    Type
REMARK                         _______ _______ _______ _____ _____    ______ ____
ROOT
ATOM      1  C   UNL     1      -2.480   1.084   4.379  0.00  0.00    +0.128 A 
ATOM      2  C   UNL     1      -2.598  -0.303   4.615  0.00  0.00    +0.061 A 
ATOM      3  C   UNL     1      -3.228  -0.744   5.742  0.00  0.00    +0.094 A 
ATOM      4  C   UNL     1      -3.754   0.204   6.657  0.00  0.00    +0.289 A 
ATOM      5  O   UNL     1      -4.321  -0.170   7.670  0.00  0.00    -0.264 OA
ATOM      6  N   UNL     1      -3.623   1.521   6.399  0.00  0.00    -0.216 N 
ATOM      7  N   UNL     1      -2.969   1.952   5.240  0.00  0.00    -0.164 NA
ENDROOT
BRANCH   1  12
ATOM      8  C   UNL     1      -0.013   1.086   0.008  0.00  0.00    +0.086 C 
ATOM      9  C   UNL     1      -0.718   1.572   1.248  0.00  0.00    +0.103 A 
ATOM     10  C   UNL     1      -0.916   2.861   1.585  0.00  0.00    +0.045 A 
ATOM     11  C   UNL     1      -1.614   2.866   2.809  0.00  0.00    +0.052 A 
ATOM     12  C   UNL     1      -1.798   1.565   3.160  0.00  0.00    +0.155 A 
ATOM     13  O   UNL     1      -1.249   0.792   2.203  0.00  0.00    -0.458 OA
ENDBRANCH   1  12
BRANCH   3  14
ATOM     14  N   UNL     1      -3.353  -2.110   5.991  0.00  0.00    -0.354 N 
ATOM     15  H   UNL     1      -3.862  -2.459   6.902  0.00  0.00    +0.142 HD
ATOM     16  H   UNL     1      -2.942  -2.840   5.277  0.00  0.00    +0.142 HD
ENDBRANCH   3  14
BRANCH   6  17
ATOM     17  C   UNL     1      -4.164   2.505   7.340  0.00  0.00    +0.193 C 
ATOM     18  C   UNL     1      -3.030   3.394   7.856  0.00  0.00    +0.043 C 
BRANCH  17  19
ATOM     19  C   UNL     1      -5.191   3.357   6.640  0.00  0.00    +0.235 C 
ATOM     20  O   UNL     1      -5.447   3.161   5.471  0.00  0.00    -0.274 OA
ATOM     21  N   UNL     1      -5.826   4.336   7.314  0.00  0.00    -0.328 N 
ATOM     22  H   UNL     1      -6.576   4.958   6.803  0.00  0.00    +0.145 HD
ATOM     23  H   UNL     1      -5.595   4.514   8.374  0.00  0.00    +0.145 HD
ENDBRANCH  17  19
ENDBRANCH   6  17
TORSDOF 4
