REMARK  Name = ZINC09359508
REMARK  6 active torsions:
REMARK  status: ('A' for Active; 'I' for Inactive)
REMARK    1  A    between atoms: C_1  and  C_2
REMARK    2  A    between atoms: C_16  and  C_18
REMARK    3  A    between atoms: C_18  and  C_19
REMARK    4  A    between atoms: C_19  and  C_20
REMARK    5  A    between atoms: N_25  and  C_28
REMARK    6  A    between atoms: C_32  and  N_34
REMARK                            x       y       z     vdW  Elec       q    Type
REMARK                         _______ _______ _______ _____ _____    ______ ____
ROOT
ATOM      1  C   UNL     1       5.929  -4.624  -0.709  0.00  0.00    +0.047 C 
ATOM      2  C   UNL     1       4.679  -4.626   0.134  0.00  0.00    -0.011 A 
ATOM      3  C   UNL     1       4.692  -5.215   1.382  0.00  0.00    +0.046 A 
ATOM      4  C   UNL     1       3.550  -5.220   2.164  0.00  0.00    +0.020 A 
ATOM      5  C   UNL     1       2.390  -4.632   1.690  0.00  0.00    +0.006 A 
ATOM      6  C   UNL     1       2.373  -4.045   0.446  0.00  0.00    -0.027 A 
ATOM      7  C   UNL     1       3.516  -4.033  -0.349  0.00  0.00    +0.040 A 
ATOM      8  N   UNL     1       3.256  -3.385  -1.558  0.00  0.00    -0.286 N 
ATOM      9  C   UNL     1       1.985  -2.946  -1.637  0.00  0.00    +0.211 C 
ATOM     10  O   UNL     1       1.482  -2.349  -2.565  0.00  0.00    -0.277 OA
ATOM     11  C   UNL     1       1.310  -3.338  -0.349  0.00  0.00    +0.050 C 
ATOM     12  C   UNL     1       0.744  -2.138   0.388  0.00  0.00    +0.088 C 
ATOM     13  C   UNL     1      -0.670  -2.106  -0.318  0.00  0.00    +0.073 C 
ATOM     14  C   UNL     1      -1.092  -3.514  -0.229  0.00  0.00    -0.057 C 
ATOM     15  C   UNL     1      -1.131  -0.780   0.008  0.00  0.00    +0.228 C 
ATOM     16  O   UNL     1      -2.268  -0.427   0.238  0.00  0.00    -0.275 OA
ATOM     17  N   UNL     1       0.002  -0.004   0.002  0.00  0.00    -0.210 N 
ATOM     18  C   UNL     1       1.149  -0.745  -0.018  0.00  0.00    +0.229 C 
ATOM     19  O   UNL     1       2.263  -0.360  -0.302  0.00  0.00    -0.275 OA
ATOM     20 CL   UNL     1       6.148  -5.952   1.975  0.00  0.00    -0.083 Cl
ATOM     21  H   UNL     1       3.914  -3.264  -2.260  0.00  0.00    +0.155 HD
ATOM     22  N   UNL     1       0.165  -4.233  -0.611  0.00  0.00    +0.394 N 
ATOM     23  H   UNL     1       0.259  -5.089  -0.052  0.00  0.00    -0.083 HD
ATOM     24  H   UNL     1       0.136  -4.477  -1.608  0.00  0.00    -0.083 HD
ENDROOT
BRANCH  17  25
ATOM     25  C   UNL     1      -0.017   1.398   0.010  0.00  0.00    +0.046 A 
ATOM     26  C   UNL     1       1.175   2.110   0.002  0.00  0.00    +0.024 A 
ATOM     27  C   UNL     1       1.153   3.490   0.009  0.00  0.00    +0.004 A 
ATOM     28  C   UNL     1      -0.054   4.164   0.024  0.00  0.00    +0.033 A 
ATOM     29  C   UNL     1      -1.243   3.458   0.031  0.00  0.00    +0.128 A 
ATOM     30  C   UNL     1      -1.228   2.077   0.019  0.00  0.00    +0.056 A 
BRANCH  29  31
ATOM     31  N   UNL     1      -2.534   4.183   0.046  0.00  0.00    +0.056 N 
ATOM     32  O   UNL     1      -2.548   5.401   0.052  0.00  0.00    -0.126 OA
ATOM     33  O   UNL     1      -3.581   3.561   0.053  0.00  0.00    -0.126 OA
ENDBRANCH  29  31
ENDBRANCH  17  25
BRANCH  14  34
ATOM     34  C   UNL     1      -1.515  -3.868   1.199  0.00  0.00    -0.006 C 
BRANCH  34  35
ATOM     35  C   UNL     1      -2.063  -5.296   1.230  0.00  0.00    +0.094 C 
BRANCH  35  36
ATOM     36  C   UNL     1      -2.480  -5.644   2.635  0.00  0.00    +0.210 C 
ATOM     37  O   UNL     1      -2.351  -4.829   3.525  0.00  0.00    -0.276 OA
ATOM     38  N   UNL     1      -2.995  -6.859   2.904  0.00  0.00    -0.329 N 
ATOM     39  H   UNL     1      -3.098  -7.511   2.193  0.00  0.00    +0.145 HD
ATOM     40  H   UNL     1      -3.264  -7.083   3.809  0.00  0.00    +0.145 HD
ENDBRANCH  35  36
ENDBRANCH  34  35
ENDBRANCH  14  34
TORSDOF 5
