REMARK  Name = ZINC57420365
REMARK  9 active torsions:
REMARK  status: ('A' for Active; 'I' for Inactive)
REMARK    1  A    between atoms: C_1  and  C_2
REMARK    2  A    between atoms: C_2  and  C_3
REMARK    3  A    between atoms: C_2  and  N_4
REMARK    4  A    between atoms: C_13  and  C_15
REMARK    5  A    between atoms: N_17  and  N_18
REMARK    6  A    between atoms: C_19  and  C_20
REMARK    7  A    between atoms: C_22  and  O_28
REMARK    8  A    between atoms: C_23  and  O_27
REMARK    9  A    between atoms: O_28  and  C_29
REMARK                            x       y       z     vdW  Elec       q    Type
REMARK                         _______ _______ _______ _____ _____    ______ ____
ROOT
ATOM      1  C   UNL     1      -4.169  -0.161   2.294  0.00  0.00    +0.284 C 
ATOM      2  O   UNL     1      -5.324  -0.524   2.405  0.00  0.00    -0.267 OA
ATOM      3  N   UNL     1      -3.615   0.623   3.239  0.00  0.00    -0.202 N 
ATOM      4  H   UNL     1      -2.693   0.913   3.150  0.00  0.00    +0.178 HD
ENDROOT
BRANCH   1  14
ATOM      5  N   UNL     1      -1.372  -0.511   0.012  0.00  0.00    -0.226 N 
ATOM      6  C   UNL     1      -1.774  -1.288  -1.014  0.00  0.00    +0.275 A 
ATOM      7  O   UNL     1      -1.012  -1.560  -1.924  0.00  0.00    -0.266 OA
ATOM      8  C   UNL     1      -3.151  -1.800  -1.009  0.00  0.00    +0.050 A 
ATOM      9  C   UNL     1      -3.662  -2.608  -2.020  0.00  0.00    +0.014 A 
ATOM     10  C   UNL     1      -4.966  -3.046  -1.940  0.00  0.00    +0.001 A 
ATOM     11  C   UNL     1      -5.771  -2.690  -0.866  0.00  0.00    +0.001 A 
ATOM     12  C   UNL     1      -5.284  -1.890   0.146  0.00  0.00    +0.011 A 
ATOM     13  C   UNL     1      -3.970  -1.437   0.086  0.00  0.00    +0.020 A 
ATOM     14  C   UNL     1      -3.374  -0.580   1.123  0.00  0.00    +0.155 A 
ATOM     15  N   UNL     1      -2.126  -0.197   0.997  0.00  0.00    -0.163 NA
BRANCH   5  17
ATOM     16  C   UNL     1      -0.019   1.526   0.010  0.00  0.00    +0.032 C 
ATOM     17  C   UNL     1       0.002  -0.004   0.002  0.00  0.00    +0.105 C 
ATOM     18  C   UNL     1       0.742  -0.511   1.242  0.00  0.00    +0.032 C 
ENDBRANCH   5  17
ENDBRANCH   1  14
BRANCH   3  19
ATOM     19  N   UNL     1      -4.369   1.021   4.350  0.00  0.00    -0.187 NA
ATOM     20  C   UNL     1      -3.836   1.777   5.261  0.00  0.00    +0.138 C 
BRANCH  20  21
ATOM     21  C   UNL     1      -4.630   2.195   6.430  0.00  0.00    -0.000 A 
ATOM     22  C   UNL     1      -4.058   3.013   7.409  0.00  0.00    +0.059 A 
ATOM     23  C   UNL     1      -4.807   3.403   8.503  0.00  0.00    +0.163 A 
ATOM     24  C   UNL     1      -6.129   2.980   8.630  0.00  0.00    +0.177 A 
ATOM     25  C   UNL     1      -6.697   2.168   7.659  0.00  0.00    +0.087 A 
ATOM     26  C   UNL     1      -5.957   1.779   6.560  0.00  0.00    +0.033 A 
ATOM     27 CL   UNL     1      -8.344   1.644   7.822  0.00  0.00    -0.080 Cl
BRANCH  24  28
ATOM     28  O   UNL     1      -6.863   3.364   9.707  0.00  0.00    -0.502 OA
ATOM     29  H   UNL     1      -7.347   4.192   9.579  0.00  0.00    +0.292 HD
ENDBRANCH  24  28
BRANCH  23  30
ATOM     30  O   UNL     1      -4.254   4.199   9.457  0.00  0.00    -0.491 OA
ATOM     31  C   UNL     1      -2.894   4.595   9.263  0.00  0.00    +0.277 C 
ENDBRANCH  23  30
ENDBRANCH  20  21
ENDBRANCH   3  19
TORSDOF 6
