REMARK  Name = ZINC47872041
REMARK  10 active torsions:
REMARK  status: ('A' for Active; 'I' for Inactive)
REMARK    1  A    between atoms: C_1  and  C_2
REMARK    2  A    between atoms: C_7  and  N_12
REMARK    3  A    between atoms: C_9  and  C_11
REMARK    4  A    between atoms: N_12  and  C_13
REMARK    5  A    between atoms: C_13  and  N_15
REMARK    6  A    between atoms: N_15  and  N_16
REMARK    7  A    between atoms: C_17  and  C_19
REMARK    8  A    between atoms: C_23  and  S_25
REMARK    9  A    between atoms: S_25  and  N_28
REMARK   10  A    between atoms: N_28  and  C_29
REMARK                            x       y       z     vdW  Elec       q    Type
REMARK                         _______ _______ _______ _____ _____    ______ ____
ROOT
ATOM      1  N   UNL     1       2.068  -1.440   5.868  0.00  0.00    -0.231 N 
ATOM      2  C   UNL     1       2.720  -1.886   6.960  0.00  0.00    +0.260 C 
ATOM      3  O   UNL     1       2.629  -1.283   8.011  0.00  0.00    -0.269 OA
ATOM      4  H   UNL     1       2.140  -1.921   5.029  0.00  0.00    +0.173 HD
ENDROOT
BRANCH   2   5
ATOM      5  C   UNL     1       3.546  -3.110   6.879  0.00  0.00    +0.040 A 
ATOM      6  C   UNL     1       3.657  -3.802   5.672  0.00  0.00    +0.013 A 
ATOM      7  C   UNL     1       4.429  -4.943   5.603  0.00  0.00    +0.003 A 
ATOM      8  C   UNL     1       5.092  -5.402   6.728  0.00  0.00    +0.028 A 
ATOM      9  C   UNL     1       4.986  -4.721   7.927  0.00  0.00    +0.106 A 
ATOM     10  C   UNL     1       4.222  -3.575   8.008  0.00  0.00    +0.041 A 
BRANCH   9  11
ATOM     11  S   UNL     1       5.834  -5.314   9.353  0.00  0.00    +0.058 S 
ATOM     12  O   UNL     1       5.136  -4.807  10.482  0.00  0.00    -0.153 OA
ATOM     13  O   UNL     1       6.047  -6.704   9.150  0.00  0.00    -0.153 OA
BRANCH  11  14
ATOM     14  N   UNL     1       7.330  -4.603   9.364  0.00  0.00    -0.193 NA
ATOM     15  C   UNL     1       7.451  -3.153   9.530  0.00  0.00    +0.127 C 
ATOM     16  H   UNL     1       8.126  -5.147   9.260  0.00  0.00    +0.148 HD
ENDBRANCH  11  14
ENDBRANCH   9  11
ENDBRANCH   2   5
BRANCH   1  17
ATOM     17  N   UNL     1       1.286  -0.280   5.945  0.00  0.00    -0.246 N 
ATOM     18  H   UNL     1       1.213   0.201   6.784  0.00  0.00    +0.172 HD
BRANCH  17  19
ATOM     19  C   UNL     1       0.634   0.166   4.853  0.00  0.00    +0.147 C 
ATOM     20  S   UNL     1      -0.323   1.583   4.946  0.00  0.00    -0.017 S 
BRANCH  19  21
ATOM     21  N   UNL     1       0.735  -0.503   3.687  0.00  0.00    -0.322 N 
ATOM     22  H   UNL     1       1.276  -1.306   3.634  0.00  0.00    +0.148 HD
BRANCH  21  28
ATOM     23  C   UNL     1      -0.019   1.526   0.010  0.00  0.00    +0.008 C 
ATOM     24  C   UNL     1       0.002  -0.004   0.002  0.00  0.00    -0.009 C 
ATOM     25  C   UNL     1      -1.433  -0.534   0.013  0.00  0.00    +0.003 C 
ATOM     26  C   UNL     1      -2.149  -0.040   1.272  0.00  0.00    +0.002 C 
ATOM     27  C   UNL     1      -1.409  -0.547   2.511  0.00  0.00    +0.022 C 
ATOM     28  C   UNL     1       0.026  -0.018   2.500  0.00  0.00    +0.075 C 
ATOM     29  C   UNL     1       0.742  -0.511   1.242  0.00  0.00    +0.009 C 
ATOM     30  C   UNL     1       2.178   0.019   1.231  0.00  0.00    +0.009 C 
ENDBRANCH  21  28
ENDBRANCH  19  21
ENDBRANCH  17  19
ENDBRANCH   1  17
TORSDOF 7
