REMARK  Name = ZINC61911507
REMARK  9 active torsions:
REMARK  status: ('A' for Active; 'I' for Inactive)
REMARK    1  A    between atoms: C_1  and  C_2
REMARK    2  A    between atoms: C_2  and  C_4
REMARK    3  A    between atoms: C_2  and  C_17
REMARK    4  A    between atoms: C_4  and  C_5
REMARK    5  A    between atoms: C_5  and  N_6
REMARK    6  A    between atoms: N_6  and  S_7
REMARK    7  A    between atoms: S_7  and  C_10
REMARK    8  A    between atoms: C_13  and  C_15
REMARK    9  A    between atoms: C_15  and  N_16
REMARK                            x       y       z     vdW  Elec       q    Type
REMARK                         _______ _______ _______ _____ _____    ______ ____
ROOT
ATOM      1  S   UNL     1       0.266  -0.029   5.183  0.00  0.00    +0.065 S 
ATOM      2  O   UNL     1       1.100  -0.703   6.115  0.00  0.00    -0.153 OA
ATOM      3  O   UNL     1       0.232   1.387   5.075  0.00  0.00    -0.153 OA
ENDROOT
BRANCH   1   4
ATOM      4  C   UNL     1      -1.385  -0.548   5.517  0.00  0.00    +0.143 A 
ATOM      5  C   UNL     1      -1.817  -1.680   6.124  0.00  0.00    +0.036 A 
ATOM      6  C   UNL     1      -3.176  -1.879   6.281  0.00  0.00    +0.011 A 
ATOM      7  C   UNL     1      -4.036  -0.936   5.824  0.00  0.00    -0.026 A 
ATOM      8  S   UNL     1      -2.921   0.285   5.152  0.00  0.00    -0.075 S 
BRANCH   7   9
ATOM      9  C   UNL     1      -5.542  -0.920   5.875  0.00  0.00    -0.043 C 
BRANCH   9  10
ATOM     10  N   UNL     1      -5.983  -0.276   7.120  0.00  0.00    +0.381 N 
ATOM     11  H   UNL     1      -5.635   0.671   7.149  0.00  0.00    -0.090 HD
ATOM     12  H   UNL     1      -6.991  -0.265   7.154  0.00  0.00    -0.090 HD
ATOM     13  H   UNL     1      -5.625  -0.790   7.910  0.00  0.00    -0.090 HD
ENDBRANCH   9  10
ENDBRANCH   7   9
ENDBRANCH   1   4
BRANCH   1  14
ATOM     14  N   UNL     1       0.667  -0.609   3.684  0.00  0.00    -0.189 NA
ATOM     15  H   UNL     1       1.371  -1.270   3.592  0.00  0.00    +0.148 HD
BRANCH  14  16
ATOM     16  C   UNL     1      -0.042  -0.124   2.497  0.00  0.00    +0.106 C 
BRANCH  16  17
ATOM     17  C   UNL     1       0.742  -0.511   1.242  0.00  0.00    +0.025 C 
BRANCH  17  19
ATOM     18  C   UNL     1      -0.019   1.526   0.010  0.00  0.00    +0.012 C 
ATOM     19  C   UNL     1       0.002  -0.004   0.002  0.00  0.00    +0.017 C 
BRANCH  19  20
ATOM     20  C   UNL     1       0.707  -0.490  -1.238  0.00  0.00    -0.044 A 
ATOM     21  C   UNL     1       2.026  -0.142  -1.464  0.00  0.00    +0.004 A 
ATOM     22  C   UNL     1       2.673  -0.587  -2.602  0.00  0.00    +0.000 A 
ATOM     23  C   UNL     1       2.002  -1.382  -3.512  0.00  0.00    +0.000 A 
ATOM     24  C   UNL     1       0.684  -1.731  -3.285  0.00  0.00    +0.000 A 
ATOM     25  C   UNL     1       0.038  -1.289  -2.146  0.00  0.00    +0.004 A 
ENDBRANCH  19  20
ENDBRANCH  17  19
ENDBRANCH  16  17
ENDBRANCH  14  16
ENDBRANCH   1  14
TORSDOF 8
