REMARK  Name = ZINC16872576
REMARK  9 active torsions:
REMARK  status: ('A' for Active; 'I' for Inactive)
REMARK    1  A    between atoms: C_1  and  C_2
REMARK    2  A    between atoms: C_2  and  C_4
REMARK    3  A    between atoms: C_2  and  S_14
REMARK    4  A    between atoms: N_9  and  C_10
REMARK    5  A    between atoms: C_10  and  C_11
REMARK    6  A    between atoms: C_10  and  C_12
REMARK    7  A    between atoms: C_10  and  C_13
REMARK    8  A    between atoms: S_14  and  C_15
REMARK    9  A    between atoms: C_21  and  C_25
REMARK                            x       y       z     vdW  Elec       q    Type
REMARK                         _______ _______ _______ _____ _____    ______ ____
ROOT
ATOM      1  S   UNL     1       4.269  -2.031  -0.052  0.00  0.00    -0.073 S 
ENDROOT
BRANCH   1   2
ATOM      2  C   UNL     1       3.667  -0.375  -0.037  0.00  0.00    +0.197 A 
ATOM      3  N   UNL     1       4.396   0.719  -0.038  0.00  0.00    -0.122 NA
ATOM      4  N   UNL     1       3.640   1.759  -0.024  0.00  0.00    -0.127 NA
ATOM      5  C   UNL     1       2.373   1.388  -0.014  0.00  0.00    +0.180 A 
ATOM      6  N   UNL     1       2.359   0.009  -0.021  0.00  0.00    -0.276 N 
ATOM      7  C   UNL     1       1.173  -0.671  -0.013  0.00  0.00    +0.107 A 
ATOM      8  C   UNL     1       0.002  -0.004   0.002  0.00  0.00    +0.073 A 
ATOM      9  C   UNL     1      -0.017   1.403   0.010  0.00  0.00    +0.037 A 
ATOM     10  C   UNL     1       1.153   2.096   0.002  0.00  0.00    +0.086 A 
ATOM     11 CL   UNL     1       1.146   3.832   0.011  0.00  0.00    -0.080 Cl
BRANCH   8  12
ATOM     12  C   UNL     1      -1.296  -0.770   0.010  0.00  0.00    +0.419 C 
ATOM     13  F   UNL     1      -2.368   0.129   0.025  0.00  0.00    -0.166 F 
ATOM     14  F   UNL     1      -1.373  -1.569  -1.136  0.00  0.00    -0.166 F 
ATOM     15  F   UNL     1      -1.351  -1.581   1.149  0.00  0.00    -0.166 F 
ENDBRANCH   8  12
ENDBRANCH   1   2
BRANCH   1  17
ATOM     16  C   UNL     1       6.531  -1.189   1.237  0.00  0.00    +0.029 C 
ATOM     17  C   UNL     1       6.074  -1.842  -0.069  0.00  0.00    +0.137 C 
BRANCH  17  18
ATOM     18  C   UNL     1       6.719  -3.196  -0.207  0.00  0.00    +0.233 C 
ATOM     19  O   UNL     1       6.095  -4.197   0.073  0.00  0.00    -0.274 OA
ATOM     20  N   UNL     1       7.991  -3.296  -0.642  0.00  0.00    -0.239 N 
ATOM     21  C   UNL     1       8.569  -4.507  -0.765  0.00  0.00    +0.306 C 
ATOM     22  O   UNL     1       7.942  -5.510  -0.484  0.00  0.00    -0.252 OA
ATOM     23  N   UNL     1       9.840  -4.606  -1.200  0.00  0.00    -0.294 N 
ATOM     24  H   UNL     1       8.491  -2.495  -0.866  0.00  0.00    +0.159 HD
ATOM     25  H   UNL     1      10.340  -3.806  -1.424  0.00  0.00    +0.151 HD
BRANCH  23  26
ATOM     26  C   UNL     1      10.468  -5.923  -1.333  0.00  0.00    +0.028 C 
ATOM     27  C   UNL     1       9.671  -6.770  -2.328  0.00  0.00    +0.031 C 
ATOM     28  C   UNL     1      11.902  -5.756  -1.841  0.00  0.00    +0.031 C 
ATOM     29  C   UNL     1      10.488  -6.620   0.029  0.00  0.00    +0.031 C 
ENDBRANCH  23  26
ENDBRANCH  17  18
ENDBRANCH   1  17
TORSDOF 5
