REMARK  Name = ZINC66684536
REMARK  14 active torsions:
REMARK  status: ('A' for Active; 'I' for Inactive)
REMARK    1  A    between atoms: C_1  and  C_2
REMARK    2  A    between atoms: C_2  and  N_3
REMARK    3  A    between atoms: N_3  and  C_4
REMARK    4  A    between atoms: N_3  and  C_6
REMARK    5  A    between atoms: C_4  and  C_5
REMARK    6  A    between atoms: C_6  and  C_8
REMARK    7  A    between atoms: C_6  and  C_9
REMARK    8  A    between atoms: C_9  and  N_10
REMARK    9  A    between atoms: N_13  and  C_14
REMARK   10  A    between atoms: C_17  and  C_26
REMARK   11  A    between atoms: C_18  and  C_20
REMARK   12  A    between atoms: N_22  and  C_23
REMARK   13  A    between atoms: C_23  and  C_24
REMARK   14  A    between atoms: C_23  and  C_25
REMARK                            x       y       z     vdW  Elec       q    Type
REMARK                         _______ _______ _______ _____ _____    ______ ____
ROOT
ATOM      1  N   UNL     1       0.714  -2.027   1.074  0.00  0.00    -0.301 N 
ATOM      2  C   UNL     1       1.520  -2.435   2.074  0.00  0.00    +0.304 C 
ATOM      3  O   UNL     1       1.153  -3.312   2.832  0.00  0.00    -0.253 OA
ATOM      4  N   UNL     1       2.734  -1.871   2.234  0.00  0.00    -0.269 N 
ATOM      5  H   UNL     1       1.007  -1.327   0.470  0.00  0.00    +0.150 HD
ATOM      6  H   UNL     1       2.988  -1.107   1.694  0.00  0.00    +0.156 HD
ENDROOT
BRANCH   4   7
ATOM      7  C   UNL     1       3.627  -2.389   3.179  0.00  0.00    +0.035 A 
ATOM      8  C   UNL     1       3.643  -3.753   3.446  0.00  0.00    +0.023 A 
ATOM      9  C   UNL     1       4.523  -4.270   4.378  0.00  0.00    +0.006 A 
ATOM     10  C   UNL     1       5.393  -3.434   5.050  0.00  0.00    -0.038 A 
ATOM     11  C   UNL     1       5.385  -2.063   4.788  0.00  0.00    +0.041 A 
ATOM     12  C   UNL     1       4.500  -1.543   3.844  0.00  0.00    +0.036 A 
ATOM     13  C   UNL     1       6.350  -4.003   6.065  0.00  0.00    +0.044 C 
BRANCH  11  14
ATOM     14  C   UNL     1       6.315  -1.166   5.506  0.00  0.00    +0.245 C 
ATOM     15  O   UNL     1       7.176  -1.634   6.226  0.00  0.00    -0.270 OA
ATOM     16  N   UNL     1       6.209   0.170   5.363  0.00  0.00    -0.309 N 
ATOM     17  H   UNL     1       5.522   0.542   4.788  0.00  0.00    +0.149 HD
BRANCH  16  18
ATOM     18  C   UNL     1       7.131   1.058   6.074  0.00  0.00    +0.067 C 
ATOM     19  C   UNL     1       7.242   2.386   5.322  0.00  0.00    +0.027 C 
ATOM     20  C   UNL     1       6.603   1.316   7.487  0.00  0.00    +0.027 C 
ENDBRANCH  16  18
ENDBRANCH  11  14
ENDBRANCH   4   7
BRANCH   1  21
ATOM     21  C   UNL     1      -0.606  -2.640   0.900  0.00  0.00    +0.090 C 
BRANCH  21  22
ATOM     22  C   UNL     1      -1.405  -1.845  -0.133  0.00  0.00    -0.054 C 
ATOM     23  C   UNL     1      -2.528  -2.720  -0.693  0.00  0.00    -0.012 C 
BRANCH  22  24
ATOM     24  N   UNL     1      -1.984  -0.655   0.505  0.00  0.00    +0.382 N 
ATOM     25  H   UNL     1      -2.625  -0.209  -0.134  0.00  0.00    -0.081 HD
BRANCH  24  27
ATOM     26  C   UNL     1      -3.472   0.148   2.277  0.00  0.00    -0.017 C 
ATOM     27  C   UNL     1      -2.704  -1.054   1.722  0.00  0.00    -0.082 C 
ENDBRANCH  24  27
BRANCH  24  28
ATOM     28  C   UNL     1      -0.910   0.284   0.857  0.00  0.00    -0.082 C 
ATOM     29  C   UNL     1      -0.165   0.704  -0.412  0.00  0.00    -0.017 C 
ENDBRANCH  24  28
ENDBRANCH  22  24
ENDBRANCH  21  22
ENDBRANCH   1  21
TORSDOF 8
