REMARK  Name = ZINC64435929
REMARK  4 active torsions:
REMARK  status: ('A' for Active; 'I' for Inactive)
REMARK    1  A    between atoms: C_1  and  C_2
REMARK    2  A    between atoms: C_2  and  C_4
REMARK    3  A    between atoms: C_2  and  N_17
REMARK    4  A    between atoms: N_6  and  C_7
REMARK                            x       y       z     vdW  Elec       q    Type
REMARK                         _______ _______ _______ _____ _____    ______ ____
ROOT
ATOM      1  N   UNL     1      -1.052  -0.696  -0.015  0.00  0.00    -0.288 N 
ATOM      2  C   UNL     1      -1.742  -0.808  -1.168  0.00  0.00    +0.303 C 
ATOM      3  O   UNL     1      -1.232  -0.462  -2.216  0.00  0.00    -0.253 OA
ATOM      4  N   UNL     1      -2.995  -1.303  -1.158  0.00  0.00    -0.283 N 
ATOM      5  C   UNL     1      -3.585  -1.822   0.084  0.00  0.00    +0.128 C 
ATOM      6  C   UNL     1      -4.907  -1.090   0.342  0.00  0.00    +0.125 C 
ATOM      7  N   UNL     1      -5.709  -1.120  -0.889  0.00  0.00    -0.314 N 
ATOM      8  C   UNL     1      -5.119  -0.601  -2.131  0.00  0.00    +0.125 C 
ATOM      9  C   UNL     1      -3.799  -1.328  -2.388  0.00  0.00    +0.128 C 
ATOM     10  C   UNL     1      -7.002  -1.631  -0.879  0.00  0.00    +0.099 A 
ATOM     11  C   UNL     1      -7.595  -1.983   0.329  0.00  0.00    +0.042 A 
ATOM     12  C   UNL     1      -8.881  -2.490   0.324  0.00  0.00    +0.005 A 
ATOM     13  C   UNL     1      -9.534  -2.629  -0.894  0.00  0.00    +0.018 A 
ATOM     14  C   UNL     1      -8.886  -2.260  -2.055  0.00  0.00    +0.084 A 
ATOM     15  N   UNL     1      -7.659  -1.774  -2.020  0.00  0.00    -0.350 N 
ATOM     16  H   UNL     1      -1.429  -1.039   0.811  0.00  0.00    +0.151 HD
ATOM     17  H   UNL     1      -7.228  -1.518  -2.850  0.00  0.00    +0.166 HD
ENDROOT
BRANCH   1  19
ATOM     18  C   UNL     1       0.096   1.460   0.117  0.00  0.00    +0.038 C 
ATOM     19  C   UNL     1       0.265  -0.056  -0.008  0.00  0.00    +0.158 C 
BRANCH  19  20
ATOM     20  C   UNL     1       1.068  -0.569   1.159  0.00  0.00    +0.237 C 
ATOM     21  O   UNL     1       0.586  -1.389   1.912  0.00  0.00    -0.273 OA
ATOM     22  N   UNL     1       2.320  -0.117   1.367  0.00  0.00    -0.284 N 
ATOM     23  H   UNL     1       2.731   0.484   0.727  0.00  0.00    +0.155 HD
BRANCH  22  24
ATOM     24  C   UNL     1       3.028  -0.517   2.507  0.00  0.00    +0.032 C 
ATOM     25  C   UNL     1       4.233  -1.091   2.348  0.00  0.00    +0.027 C 
ATOM     26  C   UNL     1       5.024  -1.473   3.563  0.00  0.00    +0.160 C 
ATOM     27  C   UNL     1       4.040  -1.750   4.684  0.00  0.00    -0.018 C 
ATOM     28  C   UNL     1       4.413  -2.930   5.207  0.00  0.00    +0.025 C 
ATOM     29  C   UNL     1       5.437  -3.492   4.411  0.00  0.00    +0.106 C 
ATOM     30  N   UNL     1       5.792  -2.703   3.436  0.00  0.00    -0.279 NA
ATOM     31  C   UNL     1       2.915  -0.934   4.921  0.00  0.00    +0.008 C 
ATOM     32  C   UNL     1       2.427  -0.284   3.822  0.00  0.00    +0.023 C 
ENDBRANCH  22  24
ENDBRANCH  19  20
ENDBRANCH   1  19
TORSDOF 3
