REMARK  Name = ZINC06658122
REMARK  8 active torsions:
REMARK  status: ('A' for Active; 'I' for Inactive)
REMARK    1  A    between atoms: C_1  and  O_2
REMARK    2  A    between atoms: O_2  and  C_3
REMARK    3  A    between atoms: C_3  and  C_5
REMARK    4  A    between atoms: C_5  and  C_6
REMARK    5  A    between atoms: C_5  and  C_23
REMARK    6  A    between atoms: C_5  and  O_27
REMARK    7  A    between atoms: C_7  and  N_22
REMARK    8  A    between atoms: N_8  and  C_15
REMARK                            x       y       z     vdW  Elec       q    Type
REMARK                         _______ _______ _______ _____ _____    ______ ____
ROOT
ATOM      1  C   UNL     1       4.090   4.936   1.459  0.00  0.00    +0.106 A 
ATOM      2  C   UNL     1       2.955   4.228   1.179  0.00  0.00    +0.117 A 
ATOM      3  N   UNL     1       2.617   3.986  -0.131  0.00  0.00    -0.247 N 
ATOM      4  C   UNL     1       3.389   4.450  -1.130  0.00  0.00    +0.335 A 
ATOM      5  O   UNL     1       3.073   4.231  -2.284  0.00  0.00    -0.246 OA
ATOM      6  N   UNL     1       4.507   5.153  -0.872  0.00  0.00    -0.274 N 
ATOM      7  H   UNL     1       5.067   5.489  -1.629  0.00  0.00    +0.173 HD
ATOM      8  C   UNL     1       4.878   5.409   0.398  0.00  0.00    +0.263 A 
ATOM      9  O   UNL     1       5.893   6.046   0.624  0.00  0.00    -0.267 OA
ENDROOT
BRANCH   3  10
ATOM     10  C   UNL     1       1.457   3.256  -0.428  0.00  0.00    +0.088 A 
ATOM     11  C   UNL     1       1.518   1.875  -0.557  0.00  0.00    +0.029 A 
ATOM     12  C   UNL     1       0.374   1.159  -0.850  0.00  0.00    +0.002 A 
ATOM     13  C   UNL     1      -0.832   1.815  -1.020  0.00  0.00    +0.003 A 
ATOM     14  C   UNL     1      -0.899   3.189  -0.887  0.00  0.00    +0.040 A 
ATOM     15  C   UNL     1       0.243   3.913  -0.594  0.00  0.00    +0.147 A 
ATOM     16  F   UNL     1       0.179   5.257  -0.470  0.00  0.00    -0.203 F 
ENDBRANCH   3  10
BRANCH   2  17
ATOM     17  N   UNL     1       2.164   3.758   2.197  0.00  0.00    -0.344 N 
ATOM     18  H   UNL     1       1.323   3.319   1.994  0.00  0.00    +0.144 HD
ATOM     19  H   UNL     1       2.446   3.865   3.119  0.00  0.00    +0.144 HD
ENDBRANCH   2  17
BRANCH   1  20
ATOM     20  C   UNL     1       4.488   5.211   2.887  0.00  0.00    +0.291 C 
BRANCH  20  21
ATOM     21  C   UNL     1       3.444   6.118   3.541  0.00  0.00    +0.433 C 
ATOM     22  F   UNL     1       2.222   5.442   3.621  0.00  0.00    -0.167 F 
ATOM     23  F   UNL     1       3.869   6.466   4.828  0.00  0.00    -0.167 F 
ATOM     24  F   UNL     1       3.286   7.277   2.773  0.00  0.00    -0.167 F 
ENDBRANCH  20  21
BRANCH  20  25
ATOM     25  C   UNL     1       4.569   3.911   3.645  0.00  0.00    +0.353 C 
ATOM     26  O   UNL     1       3.928   2.955   3.275  0.00  0.00    -0.247 OA
BRANCH  25  28
ATOM     27  C   UNL     1       5.382   2.532   5.410  0.00  0.00    +0.280 C 
ATOM     28  O   UNL     1       5.353   3.814   4.730  0.00  0.00    -0.465 OA
ENDBRANCH  25  28
ENDBRANCH  20  25
BRANCH  20  29
ATOM     29  O   UNL     1       5.762   5.857   2.911  0.00  0.00    -0.367 OA
ATOM     30  H   UNL     1       6.458   5.371   2.447  0.00  0.00    +0.212 HD
ENDBRANCH  20  29
ENDBRANCH   1  20
TORSDOF 7
