REMARK  Name = ZINC43509800
REMARK  13 active torsions:
REMARK  status: ('A' for Active; 'I' for Inactive)
REMARK    1  A    between atoms: C_1  and  C_2
REMARK    2  A    between atoms: C_2  and  C_4
REMARK    3  A    between atoms: C_2  and  O_34
REMARK    4  A    between atoms: C_4  and  C_6
REMARK    5  A    between atoms: C_4  and  O_33
REMARK    6  A    between atoms: C_7  and  C_8
REMARK    7  A    between atoms: C_9  and  C_10
REMARK    8  A    between atoms: C_10  and  O_12
REMARK    9  A    between atoms: O_12  and  C_13
REMARK   10  A    between atoms: C_21  and  O_32
REMARK   11  A    between atoms: C_22  and  C_31
REMARK   12  A    between atoms: C_25  and  C_29
REMARK   13  A    between atoms: C_25  and  C_30
REMARK                            x       y       z     vdW  Elec       q    Type
REMARK                         _______ _______ _______ _____ _____    ______ ____
ROOT
ATOM      1  C   UNL     1       4.661  -7.488   0.971  0.00  0.00    +0.204 C 
ATOM      2  C   UNL     1       4.109  -7.868   2.314  0.00  0.00    +0.023 C 
ATOM      3  C   UNL     1       4.632  -8.793   3.034  0.00  0.00    +0.009 C 
ATOM      4  C   UNL     1       4.263  -9.389   4.371  0.00  0.00    +0.266 C 
ATOM      5  O   UNL     1       4.614 -10.779   4.238  0.00  0.00    -0.458 OA
ATOM      6  C   UNL     1       5.593 -10.939   3.326  0.00  0.00    +0.344 C 
ATOM      7  O   UNL     1       6.160 -11.976   3.085  0.00  0.00    -0.247 OA
ATOM      8  C   UNL     1       5.869  -9.605   2.668  0.00  0.00    +0.192 C 
ATOM      9  C   UNL     1       5.923  -9.681   1.152  0.00  0.00    +0.018 C 
ATOM     10  C   UNL     1       5.843  -8.309   0.502  0.00  0.00    +0.049 C 
ATOM     11  C   UNL     1       7.136  -7.543   0.359  0.00  0.00    -0.028 C 
ATOM     12  C   UNL     1       8.307  -8.432  -0.074  0.00  0.00    +0.007 C 
ATOM     13  C   UNL     1       8.421  -9.665   0.812  0.00  0.00    +0.001 C 
ATOM     14  C   UNL     1       7.139 -10.480   0.693  0.00  0.00    +0.011 C 
ATOM     15  C   UNL     1       6.980  -6.504  -0.780  0.00  0.00    +0.011 C 
ATOM     16  C   UNL     1       7.532  -6.786   1.626  0.00  0.00    +0.011 C 
ATOM     17  C   UNL     1       4.678 -10.481   0.681  0.00  0.00    +0.015 C 
ENDROOT
BRANCH   8  18
ATOM     18  O   UNL     1       7.041  -9.035   3.250  0.00  0.00    -0.373 OA
ATOM     19  H   UNL     1       7.014  -8.981   4.216  0.00  0.00    +0.211 HD
ENDBRANCH   8  18
BRANCH   1  20
ATOM     20  O   UNL     1       4.897  -6.088   0.967  0.00  0.00    -0.454 OA
BRANCH  20  21
ATOM     21  C   UNL     1       3.845  -5.290   0.689  0.00  0.00    +0.332 C 
ATOM     22  O   UNL     1       2.756  -5.779   0.458  0.00  0.00    -0.246 OA
BRANCH  21  24
ATOM     23  C   UNL     1       2.954  -3.082   0.390  0.00  0.00    +0.007 C 
ATOM     24  C   UNL     1       4.009  -3.882   0.668  0.00  0.00    +0.091 C 
BRANCH  23  26
ATOM     25  C   UNL     1       2.083  -0.840   0.093  0.00  0.00    +0.006 C 
ATOM     26  C   UNL     1       3.124  -1.629   0.367  0.00  0.00    -0.001 C 
BRANCH  25  27
ATOM     27  C   UNL     1       2.257   0.656   0.070  0.00  0.00    +0.166 C 
BRANCH  27  29
ATOM     28  C   UNL     1       2.074   2.705  -1.349  0.00  0.00    +0.040 C 
ATOM     29  C   UNL     1       1.782   1.205  -1.277  0.00  0.00    +0.144 C 
BRANCH  29  30
ATOM     30  O   UNL     1       2.472   0.534  -2.334  0.00  0.00    -0.389 OA
ATOM     31  H   UNL     1       3.433   0.640  -2.306  0.00  0.00    +0.210 HD
ENDBRANCH  29  30
ENDBRANCH  27  29
BRANCH  27  32
ATOM     32  O   UNL     1       3.638   0.978   0.256  0.00  0.00    -0.385 OA
ATOM     33  H   UNL     1       4.221   0.612  -0.423  0.00  0.00    +0.210 HD
ENDBRANCH  27  32
ENDBRANCH  25  27
ENDBRANCH  23  26
ENDBRANCH  21  24
ENDBRANCH  20  21
ENDBRANCH   1  20
TORSDOF 9
