REMARK  Name = ZINC40572073
REMARK  6 active torsions:
REMARK  status: ('A' for Active; 'I' for Inactive)
REMARK    1  A    between atoms: C_1  and  O_2
REMARK    2  A    between atoms: O_2  and  C_3
REMARK    3  A    between atoms: C_5  and  O_19
REMARK    4  A    between atoms: C_8  and  N_9
REMARK    5  A    between atoms: C_11  and  N_17
REMARK    6  A    between atoms: O_19  and  C_20
REMARK                            x       y       z     vdW  Elec       q    Type
REMARK                         _______ _______ _______ _____ _____    ______ ____
ROOT
ATOM      1  N   UNL     1       0.096  -2.777   0.082  0.00  0.00    -0.295 N 
ATOM      2  C   UNL     1       0.687  -3.968  -0.318  0.00  0.00    +0.149 A 
ATOM      3  C   UNL     1       0.174  -4.689  -1.404  0.00  0.00    +0.103 A 
ATOM      4  C   UNL     1       0.804  -5.873  -1.762  0.00  0.00    +0.155 A 
ATOM      5  N   UNL     1       1.860  -6.277  -1.069  0.00  0.00    -0.222 NA
ATOM      6  C   UNL     1       2.315  -5.574  -0.052  0.00  0.00    +0.225 A 
ATOM      7  N   UNL     1       1.753  -4.441   0.321  0.00  0.00    -0.219 NA
ATOM      8 CL   UNL     1       0.217  -6.812  -3.099  0.00  0.00    -0.060 Cl
ATOM      9  H   UNL     1      -0.618  -2.388  -0.447  0.00  0.00    +0.154 HD
ENDROOT
BRANCH   1  15
ATOM     10  C   UNL     1       0.372  -0.760   1.392  0.00  0.00    +0.145 A 
ATOM     11  C   UNL     1       0.797  -0.131   2.550  0.00  0.00    +0.094 A 
ATOM     12  C   UNL     1       1.384  -0.870   3.566  0.00  0.00    +0.142 A 
ATOM     13  C   UNL     1       1.546  -2.241   3.422  0.00  0.00    +0.084 A 
ATOM     14  C   UNL     1       1.124  -2.872   2.267  0.00  0.00    +0.050 A 
ATOM     15  C   UNL     1       0.530  -2.136   1.252  0.00  0.00    +0.076 A 
ATOM     16 CL   UNL     1       2.282  -3.165   4.695  0.00  0.00    -0.080 Cl
BRANCH  10  18
ATOM     17  C   UNL     1      -0.333   1.372   0.608  0.00  0.00    +0.277 C 
ATOM     18  O   UNL     1      -0.204  -0.035   0.395  0.00  0.00    -0.493 OA
ENDBRANCH  10  18
BRANCH  12  19
ATOM     19  O   UNL     1       1.801  -0.252   4.703  0.00  0.00    -0.494 OA
ATOM     20  C   UNL     1       1.603   1.161   4.784  0.00  0.00    +0.277 C 
ENDBRANCH  12  19
ENDBRANCH   1  15
BRANCH   3  21
ATOM     21  N   UNL     1      -0.945  -4.227  -2.110  0.00  0.00    -0.353 N 
ATOM     22  H   UNL     1      -1.375  -3.397  -1.849  0.00  0.00    +0.143 HD
ATOM     23  H   UNL     1      -1.289  -4.736  -2.861  0.00  0.00    +0.143 HD
ENDBRANCH   3  21
TORSDOF 4
