REMARK  Name = ZINC13799369
REMARK  10 active torsions:
REMARK  status: ('A' for Active; 'I' for Inactive)
REMARK    1  A    between atoms: C_1  and  C_2
REMARK    2  A    between atoms: C_2  and  O_3
REMARK    3  A    between atoms: O_3  and  C_4
REMARK    4  A    between atoms: C_4  and  C_5
REMARK    5  A    between atoms: C_5  and  C_18
REMARK    6  A    between atoms: C_7  and  C_10
REMARK    7  A    between atoms: C_14  and  C_16
REMARK    8  A    between atoms: C_24  and  C_27
REMARK    9  A    between atoms: C_32  and  S_33
REMARK   10  A    between atoms: S_33  and  N_36
REMARK                            x       y       z     vdW  Elec       q    Type
REMARK                         _______ _______ _______ _____ _____    ______ ____
ROOT
ATOM      1  C   UNL     1      -1.252   3.711  -0.408  0.00  0.00    +0.242 C 
ATOM      2  C   UNL     1      -0.527   2.808  -1.433  0.00  0.00    +0.122 C 
ATOM      3  C   UNL     1      -0.572   3.643  -2.699  0.00  0.00    +0.092 C 
ATOM      4  N   UNL     1      -0.875   4.854  -2.373  0.00  0.00    -0.088 NA
ATOM      5  O   UNL     1      -1.059   5.021  -0.981  0.00  0.00    -0.375 OA
ENDROOT
BRANCH   1   6
ATOM      6  C   UNL     1      -2.718   3.369  -0.329  0.00  0.00    +0.268 C 
ATOM      7  O   UNL     1      -3.091   2.242  -0.578  0.00  0.00    -0.271 OA
ATOM      8  N   UNL     1      -3.613   4.314   0.019  0.00  0.00    -0.267 N 
ATOM      9  C   UNL     1      -4.976   4.027  -0.009  0.00  0.00    +0.125 A 
ATOM     10  C   UNL     1      -5.897   5.039   0.243  0.00  0.00    +0.044 A 
ATOM     11  C   UNL     1      -7.246   4.747   0.212  0.00  0.00    +0.013 A 
ATOM     12  C   UNL     1      -7.636   3.434  -0.074  0.00  0.00    +0.002 A 
ATOM     13  C   UNL     1      -6.657   2.475  -0.316  0.00  0.00    +0.121 A 
ATOM     14  N   UNL     1      -5.379   2.795  -0.282  0.00  0.00    -0.240 NA
ATOM     15  H   UNL     1      -3.309   5.194   0.290  0.00  0.00    +0.156 HD
BRANCH  12  16
ATOM     16  C   UNL     1      -9.073   3.069  -0.120  0.00  0.00    +0.010 A 
ATOM     17  C   UNL     1      -9.570   2.075   0.723  0.00  0.00    +0.010 A 
ATOM     18  C   UNL     1     -10.908   1.740   0.676  0.00  0.00    +0.001 A 
ATOM     19  C   UNL     1     -11.756   2.388  -0.204  0.00  0.00    +0.002 A 
ATOM     20  C   UNL     1     -11.268   3.374  -1.042  0.00  0.00    +0.029 A 
ATOM     21  C   UNL     1      -9.933   3.722  -1.001  0.00  0.00    +0.113 A 
BRANCH  21  22
ATOM     22  S   UNL     1      -9.316   4.984  -2.063  0.00  0.00    +0.057 S 
ATOM     23  O   UNL     1      -8.091   4.501  -2.599  0.00  0.00    -0.153 OA
ATOM     24  O   UNL     1     -10.401   5.388  -2.888  0.00  0.00    -0.153 OA
BRANCH  22  25
ATOM     25  N   UNL     1      -8.936   6.284  -1.111  0.00  0.00    -0.203 NA
ATOM     26  H   UNL     1      -8.257   6.914  -1.398  0.00  0.00    +0.144 HD
ATOM     27  H   UNL     1      -9.393   6.415  -0.265  0.00  0.00    +0.144 HD
ENDBRANCH  22  25
ENDBRANCH  21  22
ENDBRANCH  12  16
ENDBRANCH   1   6
BRANCH   3  28
ATOM     28  C   UNL     1      -0.313   3.153  -4.067  0.00  0.00    +0.000 A 
ATOM     29  C   UNL     1       0.008   1.810  -4.282  0.00  0.00    +0.010 A 
ATOM     30  C   UNL     1       0.250   1.352  -5.562  0.00  0.00    +0.001 A 
ATOM     31  C   UNL     1       0.177   2.217  -6.637  0.00  0.00    +0.011 A 
ATOM     32  C   UNL     1      -0.142   3.560  -6.436  0.00  0.00    +0.013 A 
ATOM     33  C   UNL     1      -0.393   4.029  -5.149  0.00  0.00    +0.021 A 
BRANCH  32  34
ATOM     34  C   UNL     1      -0.221   4.485  -7.590  0.00  0.00    +0.094 C 
ATOM     35  N   UNL     1       0.022   4.018  -8.864  0.00  0.00    -0.345 N 
ATOM     36  H   UNL     1      -0.595   6.421  -8.094  0.00  0.00    +0.157 HD
ATOM     37  H   UNL     1       0.244   3.085  -9.004  0.00  0.00    +0.144 HD
ATOM     38  H   UNL     1      -0.029   4.624  -9.620  0.00  0.00    +0.144 HD
ATOM     39  N   UNL     1      -0.528   5.746  -7.332  0.00  0.00    -0.387 N 
ATOM     40  H   UNL     1      -0.700   6.045  -6.365  0.00  0.00    +0.157 HD
ENDBRANCH  32  34
ENDBRANCH   3  28
BRANCH   1  41
ATOM     41  C   UNL     1      -0.595   3.614   0.970  0.00  0.00    +0.220 C 
BRANCH  41  42
ATOM     42  O   UNL     1      -1.316   4.425   1.900  0.00  0.00    -0.375 OA
BRANCH  42  44
ATOM     43  C   UNL     1      -1.627   5.303   4.130  0.00  0.00    +0.034 C 
ATOM     44  C   UNL     1      -0.781   4.405   3.225  0.00  0.00    +0.156 C 
ENDBRANCH  42  44
ENDBRANCH  41  42
ENDBRANCH   1  41
TORSDOF 9
