REMARK  Name = ZINC58168425
REMARK  12 active torsions:
REMARK  status: ('A' for Active; 'I' for Inactive)
REMARK    1  A    between atoms: C_1  and  C_2
REMARK    2  A    between atoms: C_2  and  C_4
REMARK    3  A    between atoms: C_2  and  N_24
REMARK    4  A    between atoms: C_11  and  C_13
REMARK    5  A    between atoms: C_13  and  C_14
REMARK    6  A    between atoms: C_14  and  C_15
REMARK    7  A    between atoms: C_15  and  C_17
REMARK    8  A    between atoms: C_25  and  O_27
REMARK    9  A    between atoms: O_27  and  C_28
REMARK   10  A    between atoms: C_28  and  C_29
REMARK   11  A    between atoms: C_28  and  C_30
REMARK   12  A    between atoms: C_28  and  C_31
REMARK                            x       y       z     vdW  Elec       q    Type
REMARK                         _______ _______ _______ _____ _____    ______ ____
ROOT
ATOM      1  C   UNL     1      -1.345  -0.747  -0.006  0.00  0.00    +0.096 C 
ATOM      2  C   UNL     1      -2.119  -0.356   1.257  0.00  0.00    +0.024 C 
ATOM      3  C   UNL     1      -3.521  -0.968   1.201  0.00  0.00    +0.003 C 
ATOM      4  C   UNL     1      -4.271  -0.419  -0.015  0.00  0.00    +0.019 C 
ATOM      5  C   UNL     1      -3.521  -0.811  -1.292  0.00  0.00    +0.108 C 
ATOM      6  N   UNL     1      -2.128  -0.354  -1.185  0.00  0.00    -0.297 N 
ATOM      7  C   UNL     1      -1.581   0.413  -2.148  0.00  0.00    +0.216 C 
ATOM      8  O   UNL     1      -0.468   0.872  -1.999  0.00  0.00    -0.276 OA
ENDROOT
BRANCH   1  10
ATOM      9  C   UNL     1       0.741  -0.291   1.292  0.00  0.00    +0.030 C 
ATOM     10  C   UNL     1       0.005  -0.028  -0.024  0.00  0.00    +0.093 C 
BRANCH  10  11
ATOM     11  N   UNL     1       0.810  -0.527  -1.141  0.00  0.00    -0.277 N 
ATOM     12  C   UNL     1       1.910   0.146  -1.533  0.00  0.00    +0.401 C 
ATOM     13  O   UNL     1       2.234   1.167  -0.960  0.00  0.00    -0.226 OA
ATOM     14  H   UNL     1       0.551  -1.342  -1.599  0.00  0.00    +0.152 HD
BRANCH  12  15
ATOM     15  O   UNL     1       2.650  -0.312  -2.561  0.00  0.00    -0.445 OA
BRANCH  15  16
ATOM     16  C   UNL     1       3.802   0.451  -2.922  0.00  0.00    +0.107 C 
ATOM     17  C   UNL     1       4.757   0.528  -1.730  0.00  0.00    +0.055 C 
ATOM     18  C   UNL     1       4.510  -0.221  -4.100  0.00  0.00    +0.055 C 
ATOM     19  C   UNL     1       3.372   1.864  -3.324  0.00  0.00    +0.055 C 
ENDBRANCH  15  16
ENDBRANCH  12  15
ENDBRANCH  10  11
ENDBRANCH   1  10
BRANCH   7  20
ATOM     20  C   UNL     1      -2.352   0.702  -3.410  0.00  0.00    +0.104 C 
BRANCH  20  21
ATOM     21  C   UNL     1      -1.510   1.589  -4.330  0.00  0.00    +0.089 C 
BRANCH  21  22
ATOM     22  C   UNL     1      -2.281   1.878  -5.593  0.00  0.00    +0.164 C 
ATOM     23  O   UNL     1      -3.394   1.420  -5.742  0.00  0.00    -0.292 OA
BRANCH  22  24
ATOM     24  C   UNL     1      -1.684   2.715  -6.643  0.00  0.00    +0.018 A 
ATOM     25  C   UNL     1      -0.398   3.240  -6.477  0.00  0.00    +0.014 A 
ATOM     26  C   UNL     1       0.155   4.024  -7.465  0.00  0.00    +0.039 A 
ATOM     27  C   UNL     1      -0.559   4.293  -8.623  0.00  0.00    +0.123 A 
ATOM     28  C   UNL     1      -1.835   3.776  -8.794  0.00  0.00    +0.039 A 
ATOM     29  C   UNL     1      -2.398   2.985  -7.817  0.00  0.00    +0.014 A 
ATOM     30  F   UNL     1      -0.011   5.064  -9.589  0.00  0.00    -0.205 F 
ENDBRANCH  22  24
ENDBRANCH  21  22
ENDBRANCH  20  21
ENDBRANCH   7  20
TORSDOF 8
