REMARK  Name = ZINC61097948
REMARK  4 active torsions:
REMARK  status: ('A' for Active; 'I' for Inactive)
REMARK    1  A    between atoms: C_6  and  N_7
REMARK    2  A    between atoms: N_7  and  C_8
REMARK    3  A    between atoms: C_8  and  C_9
REMARK    4  A    between atoms: C_14  and  O_15
REMARK                            x       y       z     vdW  Elec       q    Type
REMARK                         _______ _______ _______ _____ _____    ______ ____
ROOT
ATOM      1  C   UNL     1      -2.478  -0.007   0.027  0.00  0.00    +0.140 C 
ENDROOT
BRANCH   1   2
ATOM      2  C   UNL     1      -3.609  -1.003   0.033  0.00  0.00    +0.015 A 
ATOM      3  C   UNL     1      -4.324  -1.228   1.194  0.00  0.00    +0.058 A 
ATOM      4  C   UNL     1      -5.364  -2.143   1.203  0.00  0.00    +0.167 A 
ATOM      5  C   UNL     1      -5.690  -2.836   0.039  0.00  0.00    +0.170 A 
ATOM      6  C   UNL     1      -4.972  -2.608  -1.123  0.00  0.00    +0.095 A 
ATOM      7  C   UNL     1      -3.935  -1.687  -1.128  0.00  0.00    +0.125 A 
ATOM      8  O   UNL     1      -6.738  -3.668   0.306  0.00  0.00    -0.452 OA
ATOM      9  C   UNL     1      -6.787  -3.778   1.740  0.00  0.00    +0.466 C 
ATOM     10  O   UNL     1      -6.210  -2.541   2.199  0.00  0.00    -0.453 OA
BRANCH   7  11
ATOM     11  O   UNL     1      -3.233  -1.460  -2.271  0.00  0.00    -0.506 OA
ATOM     12  H   UNL     1      -2.465  -2.036  -2.382  0.00  0.00    +0.292 HD
ENDBRANCH   7  11
ENDBRANCH   1   2
BRANCH   1  13
ATOM     13  N   UNL     1      -1.199  -0.721   0.010  0.00  0.00    -0.337 N 
ATOM     14  H   UNL     1      -1.185  -1.691   0.005  0.00  0.00    +0.146 HD
BRANCH  13  20
ATOM     15  C   UNL     1      -0.017   1.384   0.010  0.00  0.00    +0.064 A 
ATOM     16  C   UNL     1       1.173   2.091   0.002  0.00  0.00    +0.128 A 
ATOM     17  C   UNL     1       2.381   1.417  -0.013  0.00  0.00    +0.079 A 
ATOM     18  C   UNL     1       2.404   0.032  -0.022  0.00  0.00    +0.163 A 
ATOM     19  C   UNL     1       1.217  -0.680  -0.014  0.00  0.00    +0.179 A 
ATOM     20  C   UNL     1       0.002  -0.004   0.002  0.00  0.00    +0.069 A 
ATOM     21  F   UNL     1       1.239  -2.031  -0.023  0.00  0.00    -0.201 F 
ATOM     22  F   UNL     1       3.585  -0.624  -0.037  0.00  0.00    -0.202 F 
ATOM     23  F   UNL     1       1.154   3.442   0.009  0.00  0.00    -0.205 F 
ENDBRANCH  13  20
ENDBRANCH   1  13
TORSDOF 4
