REMARK  Name = ZINC14424285
REMARK  4 active torsions:
REMARK  status: ('A' for Active; 'I' for Inactive)
REMARK    1  A    between atoms: C_1  and  C_2
REMARK    2  A    between atoms: C_5  and  C_7
REMARK    3  A    between atoms: C_8  and  C_9
REMARK    4  A    between atoms: N_11  and  C_12
REMARK                            x       y       z     vdW  Elec       q    Type
REMARK                         _______ _______ _______ _____ _____    ______ ____
ROOT
ATOM      1  C   UNL     1      -5.956   2.877   2.771  0.00  0.00    +0.241 C 
ATOM      2  O   UNL     1      -6.085   3.242   3.925  0.00  0.00    -0.270 OA
ATOM      3  N   UNL     1      -7.032   2.800   1.964  0.00  0.00    -0.280 N 
ATOM      4  H   UNL     1      -6.922   2.572   1.028  0.00  0.00    +0.155 HD
ENDROOT
BRANCH   3   5
ATOM      5  C   UNL     1      -8.310   3.048   2.477  0.00  0.00    +0.071 A 
ATOM      6  C   UNL     1      -8.488   4.000   3.471  0.00  0.00    +0.046 A 
ATOM      7  C   UNL     1      -9.752   4.243   3.976  0.00  0.00    +0.043 A 
ATOM      8  C   UNL     1     -10.840   3.538   3.492  0.00  0.00    +0.023 A 
ATOM      9  C   UNL     1     -10.667   2.588   2.502  0.00  0.00    +0.041 A 
ATOM     10  C   UNL     1      -9.406   2.344   1.989  0.00  0.00    +0.145 A 
ATOM     11  F   UNL     1      -9.239   1.420   1.018  0.00  0.00    -0.204 F 
ATOM     12 CL   UNL     1      -9.975   5.435   5.219  0.00  0.00    -0.083 Cl
ENDBRANCH   3   5
BRANCH   1  14
ATOM     13  C   UNL     1      -3.591   2.613   3.088  0.00  0.00    +0.051 C 
ATOM     14  C   UNL     1      -4.675   2.535   2.276  0.00  0.00    +0.071 C 
BRANCH  13  19
ATOM     15  C   UNL     1      -0.003   1.144  -0.006  0.00  0.00    +0.086 C 
ATOM     16  C   UNL     1      -0.710   1.622   1.236  0.00  0.00    +0.103 A 
ATOM     17  C   UNL     1      -0.119   1.887   2.422  0.00  0.00    +0.045 A 
ATOM     18  C   UNL     1      -1.128   2.304   3.304  0.00  0.00    +0.049 A 
ATOM     19  C   UNL     1      -2.309   2.271   2.593  0.00  0.00    +0.128 A 
ATOM     20  O   UNL     1      -2.025   1.858   1.340  0.00  0.00    -0.461 OA
ENDBRANCH  13  19
ENDBRANCH   1  14
TORSDOF 3
