REMARK  Name = ZINC13979045
REMARK  13 active torsions:
REMARK  status: ('A' for Active; 'I' for Inactive)
REMARK    1  A    between atoms: C_1  and  C_2
REMARK    2  A    between atoms: C_7  and  O_8
REMARK    3  A    between atoms: O_8  and  C_9
REMARK    4  A    between atoms: C_9  and  C_10
REMARK    5  A    between atoms: N_12  and  C_13
REMARK    6  A    between atoms: C_13  and  N_15
REMARK    7  A    between atoms: N_15  and  N_16
REMARK    8  A    between atoms: C_17  and  C_19
REMARK    9  A    between atoms: C_22  and  N_25
REMARK   10  A    between atoms: C_26  and  C_28
REMARK   11  A    between atoms: C_28  and  C_29
REMARK   12  A    between atoms: C_29  and  C_30
REMARK   13  A    between atoms: C_29  and  C_31
REMARK                            x       y       z     vdW  Elec       q    Type
REMARK                         _______ _______ _______ _____ _____    ______ ____
ROOT
ATOM      1  N   UNL     1      -5.138   4.823  -0.286  0.00  0.00    -0.231 N 
ATOM      2  C   UNL     1      -5.057   3.483  -0.167  0.00  0.00    +0.260 C 
ATOM      3  O   UNL     1      -6.071   2.817  -0.097  0.00  0.00    -0.269 OA
ATOM      4  H   UNL     1      -4.328   5.355  -0.341  0.00  0.00    +0.173 HD
ENDROOT
BRANCH   2   5
ATOM      5  C   UNL     1      -3.737   2.825  -0.120  0.00  0.00    +0.038 A 
ATOM      6  C   UNL     1      -3.651   1.435   0.003  0.00  0.00    +0.015 A 
ATOM      7  C   UNL     1      -2.418   0.824   0.045  0.00  0.00    +0.024 A 
ATOM      8  C   UNL     1      -1.258   1.588  -0.035  0.00  0.00    +0.033 A 
ATOM      9  C   UNL     1      -1.340   2.972  -0.152  0.00  0.00    +0.024 A 
ATOM     10  C   UNL     1      -2.570   3.589  -0.201  0.00  0.00    +0.015 A 
BRANCH   8  11
ATOM     11  N   UNL     1      -0.011   0.966   0.007  0.00  0.00    -0.285 N 
ATOM     12  C   UNL     1       1.025   1.575   0.617  0.00  0.00    +0.217 C 
ATOM     13  O   UNL     1       0.894   2.696   1.060  0.00  0.00    -0.275 OA
ATOM     14  H   UNL     1       0.112   0.097  -0.405  0.00  0.00    +0.155 HD
BRANCH  12  15
ATOM     15  C   UNL     1       2.347   0.862   0.748  0.00  0.00    +0.099 C 
BRANCH  15  16
ATOM     16  C   UNL     1       3.344   1.767   1.474  0.00  0.00    -0.008 C 
ATOM     17  C   UNL     1       4.645   1.000   1.717  0.00  0.00    +0.008 C 
ATOM     18  C   UNL     1       3.633   3.000   0.614  0.00  0.00    +0.008 C 
ENDBRANCH  15  16
ENDBRANCH  12  15
ENDBRANCH   8  11
ENDBRANCH   2   5
BRANCH   1  19
ATOM     19  N   UNL     1      -6.391   5.448  -0.329  0.00  0.00    -0.245 N 
ATOM     20  H   UNL     1      -7.200   4.916  -0.274  0.00  0.00    +0.172 HD
BRANCH  19  21
ATOM     21  C   UNL     1      -6.472   6.788  -0.448  0.00  0.00    +0.153 C 
ATOM     22  S   UNL     1      -8.003   7.552  -0.502  0.00  0.00    -0.017 S 
BRANCH  21  25
ATOM     23  C   UNL     1      -5.428   8.867  -0.644  0.00  0.00    +0.256 C 
ATOM     24  O   UNL     1      -6.512   9.408  -0.682  0.00  0.00    -0.272 OA
ATOM     25  N   UNL     1      -5.347   7.527  -0.525  0.00  0.00    -0.264 N 
ATOM     26  H   UNL     1      -4.479   7.094  -0.495  0.00  0.00    +0.157 HD
BRANCH  23  27
ATOM     27  C   UNL     1      -4.170   9.693  -0.731  0.00  0.00    +0.325 C 
BRANCH  27  28
ATOM     28  O   UNL     1      -4.515  11.075  -0.851  0.00  0.00    -0.483 OA
BRANCH  28  35
ATOM     29  C   UNL     1      -5.176  13.811  -1.088  0.00  0.00    +0.047 C 
ATOM     30  C   UNL     1      -3.752  13.318  -1.059  0.00  0.00    -0.009 A 
ATOM     31  C   UNL     1      -2.707  14.217  -1.149  0.00  0.00    +0.007 A 
ATOM     32  C   UNL     1      -1.400  13.766  -1.122  0.00  0.00    +0.000 A 
ATOM     33  C   UNL     1      -1.136  12.414  -1.003  0.00  0.00    +0.004 A 
ATOM     34  C   UNL     1      -2.177  11.511  -0.907  0.00  0.00    +0.046 A 
ATOM     35  C   UNL     1      -3.489  11.961  -0.940  0.00  0.00    +0.124 A 
ENDBRANCH  28  35
ENDBRANCH  27  28
ENDBRANCH  23  27
ENDBRANCH  21  25
ENDBRANCH  19  21
ENDBRANCH   1  19
TORSDOF 10
