REMARK  Name = ZINC62714990
REMARK  7 active torsions:
REMARK  status: ('A' for Active; 'I' for Inactive)
REMARK    1  A    between atoms: C_1  and  C_2
REMARK    2  A    between atoms: C_2  and  C_3
REMARK    3  A    between atoms: C_9  and  C_19
REMARK    4  A    between atoms: C_10  and  C_12
REMARK    5  A    between atoms: N_14  and  N_15
REMARK    6  A    between atoms: N_15  and  C_16
REMARK    7  A    between atoms: C_16  and  N_18
REMARK                            x       y       z     vdW  Elec       q    Type
REMARK                         _______ _______ _______ _____ _____    ______ ____
ROOT
ATOM      1  C   UNL     1      -1.412  -0.526   0.013  0.00  0.00    -0.047 A 
ATOM      2  C   UNL     1      -2.049  -0.765   1.223  0.00  0.00    +0.007 A 
ATOM      3  C   UNL     1      -3.341  -1.242   1.256  0.00  0.00    +0.047 A 
ATOM      4  C   UNL     1      -4.019  -1.487   0.067  0.00  0.00    +0.136 A 
ATOM      5  C   UNL     1      -3.369  -1.242  -1.157  0.00  0.00    +0.024 A 
ATOM      6  C   UNL     1      -2.060  -0.754  -1.168  0.00  0.00    +0.015 A 
ATOM      7  C   UNL     1      -4.335  -1.594  -2.197  0.00  0.00    +0.008 A 
ATOM      8  C   UNL     1      -5.452  -2.009  -1.547  0.00  0.00    +0.195 A 
ATOM      9  O   UNL     1      -5.256  -1.942  -0.214  0.00  0.00    -0.450 OA
ATOM     10  C   UNL     1      -4.131  -1.512  -3.688  0.00  0.00    +0.048 C 
ENDROOT
BRANCH   8  11
ATOM     11  C   UNL     1      -6.690  -2.463  -2.198  0.00  0.00    +0.296 C 
ATOM     12  O   UNL     1      -6.765  -2.486  -3.412  0.00  0.00    -0.265 OA
ATOM     13  N   UNL     1      -7.740  -2.854  -1.450  0.00  0.00    -0.229 N 
ATOM     14  H   UNL     1      -7.680  -2.836  -0.482  0.00  0.00    +0.173 HD
BRANCH  13  15
ATOM     15  N   UNL     1      -8.920  -3.286  -2.070  0.00  0.00    -0.246 N 
ATOM     16  H   UNL     1      -8.980  -3.304  -3.038  0.00  0.00    +0.172 HD
BRANCH  15  17
ATOM     17  C   UNL     1      -9.971  -3.677  -1.322  0.00  0.00    +0.144 C 
ATOM     18  S   UNL     1     -11.412  -4.205  -2.080  0.00  0.00    -0.018 S 
BRANCH  17  19
ATOM     19  N   UNL     1      -9.887  -3.652   0.023  0.00  0.00    -0.340 N 
ATOM     20  H   UNL     1      -9.070  -3.352   0.452  0.00  0.00    +0.144 HD
ATOM     21  H   UNL     1     -10.643  -3.933   0.561  0.00  0.00    +0.144 HD
ENDBRANCH  17  19
ENDBRANCH  15  17
ENDBRANCH  13  15
ENDBRANCH   8  11
BRANCH   1  23
ATOM     22  C   UNL     1      -0.019   1.526   0.010  0.00  0.00    +0.009 C 
ATOM     23  C   UNL     1       0.002  -0.004   0.002  0.00  0.00    +0.032 C 
ENDBRANCH   1  23
TORSDOF 5
