REMARK  Name = ZINC08829311
REMARK  7 active torsions:
REMARK  status: ('A' for Active; 'I' for Inactive)
REMARK    1  A    between atoms: C_1  and  C_2
REMARK    2  A    between atoms: C_9  and  N_27
REMARK    3  A    between atoms: C_10  and  C_13
REMARK    4  A    between atoms: C_14  and  C_15
REMARK    5  A    between atoms: C_14  and  S_17
REMARK    6  A    between atoms: S_17  and  C_20
REMARK    7  A    between atoms: C_30  and  C_33
REMARK                            x       y       z     vdW  Elec       q    Type
REMARK                         _______ _______ _______ _____ _____    ______ ____
ROOT
ATOM      1  C   UNL     1       0.916   1.411   0.055  0.00  0.00    +0.047 C 
ATOM      2  C   UNL     1       0.591  -0.060   0.016  0.00  0.00    -0.007 A 
ATOM      3  C   UNL     1       0.588  -0.732  -1.170  0.00  0.00    +0.008 A 
ATOM      4  C   UNL     1       0.284  -2.100  -1.190  0.00  0.00    +0.019 A 
ATOM      5  C   UNL     1      -0.005  -2.747  -0.038  0.00  0.00    +0.096 A 
ATOM      6  N   UNL     1      -0.005  -2.084   1.153  0.00  0.00    -0.267 N 
ATOM      7  C   UNL     1       0.293  -0.751   1.205  0.00  0.00    +0.145 A 
ATOM      8  N   UNL     1       0.303  -0.088   2.361  0.00  0.00    -0.213 NA
ATOM      9  C   UNL     1       0.031  -0.690   3.510  0.00  0.00    +0.136 A 
ATOM     10  C   UNL     1      -0.279  -2.069   3.519  0.00  0.00    +0.082 A 
ATOM     11  C   UNL     1      -0.298  -2.760   2.285  0.00  0.00    +0.267 A 
ATOM     12  O   UNL     1      -0.560  -3.950   2.246  0.00  0.00    -0.267 OA
ENDROOT
BRANCH   9  13
ATOM     13  N   UNL     1       0.050   0.024   4.689  0.00  0.00    -0.314 N 
ATOM     14  C   UNL     1       0.626  -0.559   5.908  0.00  0.00    +0.107 C 
ATOM     15  C   UNL     1       1.677   0.405   6.467  0.00  0.00    +0.031 C 
ATOM     16  C   UNL     1       1.044   1.784   6.668  0.00  0.00    +0.078 C 
ATOM     17  C   UNL     1       0.558   2.325   5.322  0.00  0.00    +0.031 C 
ATOM     18  C   UNL     1      -0.500   1.385   4.748  0.00  0.00    +0.107 C 
BRANCH  16  19
ATOM     19  C   UNL     1       2.066   2.726   7.249  0.00  0.00    +0.214 C 
ATOM     20  O   UNL     1       3.190   2.334   7.480  0.00  0.00    -0.276 OA
ATOM     21  N   UNL     1       1.731   4.005   7.513  0.00  0.00    -0.329 N 
ATOM     22  H   UNL     1       0.832   4.318   7.329  0.00  0.00    +0.145 HD
ATOM     23  H   UNL     1       2.389   4.611   7.887  0.00  0.00    +0.145 HD
ENDBRANCH  16  19
ENDBRANCH   9  13
BRANCH  10  24
ATOM     24  C   UNL     1      -0.574  -2.740   4.732  0.00  0.00    +0.055 C 
ATOM     25  C   UNL     1       0.247  -3.721   5.182  0.00  0.00    +0.170 C 
BRANCH  25  26
ATOM     26  S   UNL     1      -0.199  -4.660   6.604  0.00  0.00    +0.035 S 
ATOM     27  O   UNL     1       0.938  -4.671   7.457  0.00  0.00    -0.164 OA
ATOM     28  O   UNL     1      -1.466  -4.176   7.029  0.00  0.00    -0.164 OA
BRANCH  26  29
ATOM     29  C   UNL     1      -0.447  -6.322   6.074  0.00  0.00    +0.094 A 
ATOM     30  C   UNL     1      -1.699  -6.735   5.656  0.00  0.00    +0.029 A 
ATOM     31  C   UNL     1      -1.894  -8.038   5.240  0.00  0.00    +0.022 A 
ATOM     32  C   UNL     1      -0.837  -8.931   5.243  0.00  0.00    +0.041 A 
ATOM     33  C   UNL     1       0.415  -8.518   5.662  0.00  0.00    +0.022 A 
ATOM     34  C   UNL     1       0.611  -7.212   6.072  0.00  0.00    +0.029 A 
ATOM     35 CL   UNL     1      -1.081 -10.568   4.721  0.00  0.00    -0.084 Cl
ENDBRANCH  26  29
ENDBRANCH  25  26
BRANCH  25  36
ATOM     36  C   UNL     1       1.477  -3.994   4.501  0.00  0.00    +0.119 C 
ATOM     37  N   UNL     1       2.453  -4.210   3.961  0.00  0.00    -0.189 NA
ENDBRANCH  25  36
ENDBRANCH  10  24
TORSDOF 6
