REMARK  Name = ZINC04839143
REMARK  5 active torsions:
REMARK  status: ('A' for Active; 'I' for Inactive)
REMARK    1  A    between atoms: C_1  and  C_2
REMARK    2  A    between atoms: C_5  and  N_9
REMARK    3  A    between atoms: C_13  and  C_14
REMARK    4  A    between atoms: C_15  and  C_16
REMARK    5  A    between atoms: C_19  and  N_21
REMARK                            x       y       z     vdW  Elec       q    Type
REMARK                         _______ _______ _______ _____ _____    ______ ____
ROOT
ATOM      1  N   UNL     1      -2.427   1.041   0.019  0.00  0.00    -0.184 N 
ATOM      2  C   UNL     1      -3.651   1.601   0.033  0.00  0.00    +0.272 C 
ATOM      3  O   UNL     1      -3.904   2.792   0.047  0.00  0.00    -0.268 OA
ATOM      4  C   UNL     1      -4.626   0.500   0.026  0.00  0.00    +0.102 C 
ATOM      5  C   UNL     1      -6.015   0.599   0.033  0.00  0.00    +0.018 C 
ATOM      6  C   UNL     1      -3.818  -0.730   0.017  0.00  0.00    +0.266 C 
ATOM      7  O   UNL     1      -4.238  -1.872   0.013  0.00  0.00    -0.268 OA
ATOM      8  N   UNL     1      -2.526  -0.350   0.013  0.00  0.00    -0.223 N 
ATOM      9  H   UNL     1      -1.771  -0.959   0.006  0.00  0.00    +0.174 HD
ENDROOT
BRANCH   1  14
ATOM     10  C   UNL     1       2.451   3.938  -0.001  0.00  0.00    +0.045 C 
ATOM     11  C   UNL     1       1.156   3.168   0.008  0.00  0.00    -0.032 A 
ATOM     12  C   UNL     1      -0.049   3.846   0.022  0.00  0.00    +0.006 A 
ATOM     13  C   UNL     1      -1.238   3.144   0.029  0.00  0.00    +0.025 A 
ATOM     14  C   UNL     1      -1.224   1.755   0.017  0.00  0.00    +0.058 A 
ATOM     15  C   UNL     1      -0.013   1.076   0.008  0.00  0.00    +0.045 A 
ATOM     16  C   UNL     1       1.175   1.784   0.000  0.00  0.00    +0.046 A 
ATOM     17 CL   UNL     1       2.690   0.937  -0.017  0.00  0.00    -0.083 Cl
ENDBRANCH   1  14
BRANCH   5  18
ATOM     18  C   UNL     1      -6.624   1.853   0.043  0.00  0.00    +0.004 C 
ATOM     19  C   UNL     1      -7.998   1.952   0.050  0.00  0.00    +0.046 C 
BRANCH  19  20
ATOM     20  C   UNL     1      -8.614   3.220   0.059  0.00  0.00    +0.131 A 
ATOM     21  C   UNL     1      -9.976   3.466   0.061  0.00  0.00    +0.052 A 
ATOM     22  C   UNL     1     -10.129   4.858   0.074  0.00  0.00    +0.076 A 
ATOM     23  C   UNL     1      -8.888   5.398   0.071  0.00  0.00    +0.280 A 
ATOM     24  O   UNL     1      -7.981   4.412   0.062  0.00  0.00    -0.435 OA
BRANCH  23  25
ATOM     25  N   UNL     1      -8.581   6.846   0.077  0.00  0.00    +0.093 N 
ATOM     26  O   UNL     1      -9.487   7.660   0.085  0.00  0.00    -0.123 OA
ATOM     27  O   UNL     1      -7.423   7.224   0.074  0.00  0.00    -0.123 OA
ENDBRANCH  23  25
ENDBRANCH  19  20
ENDBRANCH   5  18
TORSDOF 4
