REMARK  Name = ZINC12979206
REMARK  4 active torsions:
REMARK  status: ('A' for Active; 'I' for Inactive)
REMARK    1  A    between atoms: C_1  and  C_2
REMARK    2  A    between atoms: C_2  and  C_13
REMARK    3  A    between atoms: N_5  and  C_9
REMARK    4  A    between atoms: C_9  and  C_10
REMARK                            x       y       z     vdW  Elec       q    Type
REMARK                         _______ _______ _______ _____ _____    ______ ____
ROOT
ATOM      1  C   UNL     1      -1.220   4.063   1.292  0.00  0.00    +0.042 C 
ATOM      2  C   UNL     1      -0.727   3.357   0.027  0.00  0.00    +0.113 C 
ATOM      3  C   UNL     1       0.787   3.284   0.012  0.00  0.00    +0.247 C 
ATOM      4  O   UNL     1       1.565   4.213   0.010  0.00  0.00    -0.273 OA
ATOM      5  N   UNL     1       1.087   1.970   0.002  0.00  0.00    -0.215 N 
ATOM      6  C   UNL     1      -0.014   1.211   0.009  0.00  0.00    +0.310 C 
ATOM      7  O   UNL     1       0.002  -0.004   0.002  0.00  0.00    -0.252 OA
ATOM      8  N   UNL     1      -1.143   1.944   0.018  0.00  0.00    -0.285 N 
ATOM      9  H   UNL     1      -2.212   1.685   0.019  0.00  0.00    +0.151 HD
ENDROOT
BRANCH   2  10
ATOM     10  C   UNL     1      -1.244   4.073  -1.222  0.00  0.00    +0.021 C 
ATOM     11  C   UNL     1      -0.582   5.448  -1.332  0.00  0.00    +0.006 C 
ATOM     12  C   UNL     1      -1.099   6.164  -2.582  0.00  0.00    +0.000 C 
ATOM     13  C   UNL     1      -2.616   6.335  -2.482  0.00  0.00    +0.000 C 
ATOM     14  C   UNL     1      -3.277   4.959  -2.372  0.00  0.00    +0.000 C 
ATOM     15  C   UNL     1      -2.761   4.243  -1.122  0.00  0.00    +0.006 C 
ENDBRANCH   2  10
BRANCH   5  16
ATOM     16  C   UNL     1       2.453   1.438  -0.013  0.00  0.00    +0.213 C 
BRANCH  16  17
ATOM     17  C   UNL     1       2.908   1.264  -1.439  0.00  0.00    +0.228 C 
ATOM     18  O   UNL     1       2.165   1.554  -2.352  0.00  0.00    -0.274 OA
ATOM     19  N   UNL     1       4.140   0.784  -1.699  0.00  0.00    -0.328 N 
ATOM     20  H   UNL     1       4.473   0.657  -2.740  0.00  0.00    +0.145 HD
ATOM     21  H   UNL     1       4.814   0.521  -0.870  0.00  0.00    +0.145 HD
ENDBRANCH  16  17
ENDBRANCH   5  16
TORSDOF 3
