REMARK  Name = ZINC33703730
REMARK  10 active torsions:
REMARK  status: ('A' for Active; 'I' for Inactive)
REMARK    1  A    between atoms: C_1  and  C_2
REMARK    2  A    between atoms: C_2  and  C_3
REMARK    3  A    between atoms: C_2  and  C_4
REMARK    4  A    between atoms: C_2  and  N_5
REMARK    5  A    between atoms: C_10  and  C_28
REMARK    6  A    between atoms: C_13  and  C_18
REMARK    7  A    between atoms: C_13  and  C_25
REMARK    8  A    between atoms: C_18  and  C_19
REMARK    9  A    between atoms: C_19  and  C_20
REMARK   10  A    between atoms: C_20  and  N_21
REMARK                            x       y       z     vdW  Elec       q    Type
REMARK                         _______ _______ _______ _____ _____    ______ ____
ROOT
ATOM      1  N   UNL     1       0.139   3.664  -0.312  0.00  0.00    -0.236 N 
ATOM      2  C   UNL     1       1.305   3.312   0.304  0.00  0.00    +0.225 C 
ATOM      3  O   UNL     1       2.027   4.028   0.964  0.00  0.00    -0.275 OA
ATOM      4  C   UNL     1       1.512   1.853  -0.002  0.00  0.00    +0.077 C 
ATOM      5  C   UNL     1       1.936   0.910   1.131  0.00  0.00    -0.027 C 
ATOM      6  N   UNL     1       1.227  -0.365   0.790  0.00  0.00    +0.395 N 
ATOM      7  C   UNL     1       0.002  -0.004   0.002  0.00  0.00    +0.048 C 
ATOM      8  C   UNL     1      -0.018   1.463   0.010  0.00  0.00    +0.086 C 
ATOM      9  C   UNL     1      -0.618   2.579  -0.679  0.00  0.00    +0.225 C 
ATOM     10  O   UNL     1      -1.579   2.563  -1.418  0.00  0.00    -0.275 OA
ATOM     11  H   UNL     1       1.892  -1.006   0.193  0.00  0.00    -0.083 HD
ATOM     12  H   UNL     1       0.947  -0.888   1.716  0.00  0.00    -0.083 HD
ENDROOT
BRANCH   5  13
ATOM     13  C   UNL     1       3.430   0.706   1.129  0.00  0.00    -0.061 A 
ATOM     14  C   UNL     1       4.014  -0.111   0.179  0.00  0.00    +0.003 A 
ATOM     15  C   UNL     1       5.384  -0.295   0.174  0.00  0.00    +0.015 A 
ATOM     16  C   UNL     1       6.169   0.331   1.126  0.00  0.00    +0.018 A 
ATOM     17  C   UNL     1       5.583   1.145   2.078  0.00  0.00    +0.015 A 
ATOM     18  C   UNL     1       4.214   1.332   2.079  0.00  0.00    +0.003 A 
ATOM     19 BR   UNL     1       8.043   0.074   1.124  0.00  0.00    -0.050 Br
ENDBRANCH   5  13
BRANCH   1  21
ATOM     20  C   UNL     1       0.817   5.996  -0.021  0.00  0.00    +0.031 C 
ATOM     21  C   UNL     1      -0.261   5.052  -0.557  0.00  0.00    +0.036 C 
ATOM     22  C   UNL     1      -0.432   5.276  -2.061  0.00  0.00    +0.031 C 
ATOM     23  C   UNL     1      -1.586   5.334   0.153  0.00  0.00    +0.031 C 
ENDBRANCH   1  21
BRANCH   7  24
ATOM     24  C   UNL     1      -1.235  -0.551   0.667  0.00  0.00    +0.346 C 
ATOM     25  O   UNL     1      -2.244   0.113   0.705  0.00  0.00    -0.248 OA
ATOM     26  O   UNL     1      -1.216  -1.776   1.216  0.00  0.00    -0.248 OA
ENDBRANCH   7  24
BRANCH   7  27
ATOM     27  C   UNL     1       0.114  -0.529  -1.431  0.00  0.00    +0.001 C 
BRANCH  27  28
ATOM     28  C   UNL     1       0.133  -2.059  -1.413  0.00  0.00    +0.018 C 
BRANCH  28  29
ATOM     29  C   UNL     1       0.245  -2.584  -2.846  0.00  0.00    +0.105 C 
BRANCH  29  30
ATOM     30  N   UNL     1       0.263  -4.049  -2.829  0.00  0.00    -0.300 N 
ATOM     31  C   UNL     1       0.357  -4.735  -3.985  0.00  0.00    +0.297 C 
ATOM     32  O   UNL     1       0.427  -4.138  -5.042  0.00  0.00    -0.253 OA
ATOM     33  N   UNL     1       0.374  -6.083  -3.970  0.00  0.00    -0.313 N 
ATOM     34  H   UNL     1       0.200  -4.589  -1.873  0.00  0.00    +0.150 HD
ATOM     35  H   UNL     1       0.450  -6.643  -4.913  0.00  0.00    +0.146 HD
ATOM     36  H   UNL     1       0.311  -6.623  -3.013  0.00  0.00    +0.146 HD
ENDBRANCH  29  30
ENDBRANCH  28  29
ENDBRANCH  27  28
ENDBRANCH   7  27
TORSDOF 7
