REMARK  Name = ZINC12346964
REMARK  4 active torsions:
REMARK  status: ('A' for Active; 'I' for Inactive)
REMARK    1  A    between atoms: C_6  and  C_7
REMARK    2  A    between atoms: N_12  and  C_15
REMARK    3  A    between atoms: C_15  and  C_16
REMARK    4  A    between atoms: C_16  and  O_17
REMARK                            x       y       z     vdW  Elec       q    Type
REMARK                         _______ _______ _______ _____ _____    ______ ____
ROOT
ATOM      1  C   UNL     1       0.483   4.634   4.855  0.00  0.00    +0.142 C 
ATOM      2  C   UNL     1       0.272   4.196   3.420  0.00  0.00    +0.058 C 
ATOM      3  C   UNL     1      -0.996   4.121   2.967  0.00  0.00    +0.039 C 
ATOM      4  C   UNL     1      -0.908   3.673   1.526  0.00  0.00    +0.159 C 
ATOM      5  N   UNL     1       0.530   3.511   1.268  0.00  0.00    -0.290 N 
ATOM      6  C   UNL     1       1.177   3.831   2.403  0.00  0.00    +0.247 C 
ATOM      7  O   UNL     1       2.388   3.810   2.535  0.00  0.00    -0.270 OA
ATOM      8  N   UNL     1      -2.055   4.428   3.774  0.00  0.00    -0.271 N 
ATOM      9  C   UNL     1      -1.927   4.819   5.048  0.00  0.00    +0.304 C 
ATOM     10  O   UNL     1      -2.928   5.072   5.690  0.00  0.00    -0.252 OA
ATOM     11  N   UNL     1      -0.723   4.942   5.642  0.00  0.00    -0.288 N 
ATOM     12  H   UNL     1      -2.949   4.359   3.403  0.00  0.00    +0.156 HD
ATOM     13  H   UNL     1      -0.653   5.228   6.566  0.00  0.00    +0.151 HD
ENDROOT
BRANCH   1  19
ATOM     14  C   UNL     1       2.708   5.750   5.111  0.00  0.00    +0.007 A 
ATOM     15  C   UNL     1       3.512   6.875   5.100  0.00  0.00    +0.022 A 
ATOM     16  C   UNL     1       2.963   8.113   4.819  0.00  0.00    +0.059 A 
ATOM     17  C   UNL     1       1.610   8.225   4.550  0.00  0.00    +0.060 A 
ATOM     18  C   UNL     1       0.808   7.098   4.556  0.00  0.00    +0.027 A 
ATOM     19  C   UNL     1       1.357   5.861   4.843  0.00  0.00    -0.021 A 
ATOM     20 CL   UNL     1       0.920   9.778   4.197  0.00  0.00    -0.082 Cl
ATOM     21 CL   UNL     1       3.971   9.526   4.805  0.00  0.00    -0.082 Cl
ENDBRANCH   1  19
BRANCH   5  22
ATOM     22  C   UNL     1       1.145   3.085   0.008  0.00  0.00    +0.136 C 
BRANCH  22  23
ATOM     23  C   UNL     1       1.286   1.562  -0.002  0.00  0.00    +0.174 C 
BRANCH  23  24
ATOM     24  O   UNL     1      -0.011   0.963   0.007  0.00  0.00    -0.393 OA
ATOM     25  H   UNL     1       0.002  -0.004   0.002  0.00  0.00    +0.209 HD
ENDBRANCH  23  24
ENDBRANCH  22  23
ENDBRANCH   5  22
TORSDOF 4
