REMARK  Name = ZINC09066709
REMARK  5 active torsions:
REMARK  status: ('A' for Active; 'I' for Inactive)
REMARK    1  A    between atoms: C_1  and  C_2
REMARK    2  A    between atoms: C_5  and  N_9
REMARK    3  A    between atoms: C_10  and  C_12
REMARK    4  A    between atoms: C_12  and  N_13
REMARK    5  A    between atoms: C_18  and  O_26
REMARK                            x       y       z     vdW  Elec       q    Type
REMARK                         _______ _______ _______ _____ _____    ______ ____
ROOT
ATOM      1  N   UNL     1      -0.234  -6.825  -2.571  0.00  0.00    -0.290 N 
ATOM      2  C   UNL     1      -0.329  -8.147  -2.818  0.00  0.00    +0.307 C 
ATOM      3  O   UNL     1      -0.333  -8.939  -1.895  0.00  0.00    -0.252 OA
ATOM      4  N   UNL     1      -0.419  -8.590  -4.087  0.00  0.00    -0.245 N 
ATOM      5  C   UNL     1      -0.410  -7.660  -5.228  0.00  0.00    +0.210 C 
ATOM      6  C   UNL     1      -1.415  -8.128  -6.249  0.00  0.00    +0.206 C 
ATOM      7  N   UNL     1      -1.740  -9.377  -6.360  0.00  0.00    -0.214 NA
ATOM      8  C   UNL     1      -1.200 -10.338  -5.549  0.00  0.00    +0.089 A 
ATOM      9  C   UNL     1      -0.519  -9.959  -4.379  0.00  0.00    +0.064 A 
ATOM     10  C   UNL     1       0.030 -10.915  -3.548  0.00  0.00    +0.026 A 
ATOM     11  C   UNL     1      -0.085 -12.256  -3.874  0.00  0.00    +0.002 A 
ATOM     12  C   UNL     1      -0.745 -12.640  -5.027  0.00  0.00    +0.002 A 
ATOM     13  C   UNL     1      -1.312 -11.689  -5.866  0.00  0.00    +0.030 A 
ATOM     14  H   UNL     1      -0.231  -6.193  -3.307  0.00  0.00    +0.151 HD
ENDROOT
BRANCH   6  15
ATOM     15  O   UNL     1      -1.990  -7.224  -7.068  0.00  0.00    -0.494 OA
ATOM     16  H   UNL     1      -2.622  -7.605  -7.693  0.00  0.00    +0.293 HD
ENDBRANCH   6  15
BRANCH   1  17
ATOM     17  C   UNL     1      -0.136  -6.343  -1.191  0.00  0.00    +0.202 C 
BRANCH  17  19
ATOM     18  N   UNL     1       0.057  -4.171  -0.023  0.00  0.00    -0.283 N 
ATOM     19  C   UNL     1      -0.042  -4.839  -1.190  0.00  0.00    +0.234 C 
ATOM     20  O   UNL     1      -0.055  -4.230  -2.238  0.00  0.00    -0.274 OA
ATOM     21  H   UNL     1       0.149  -4.660   0.809  0.00  0.00    +0.155 HD
BRANCH  18  26
ATOM     22  C   UNL     1      -0.064   1.502   0.016  0.00  0.00    +0.044 C 
ATOM     23  C   UNL     1      -0.031  -0.005   0.006  0.00  0.00    -0.049 A 
ATOM     24  C   UNL     1      -0.622  -0.701  -1.033  0.00  0.00    +0.005 A 
ATOM     25  C   UNL     1      -0.594  -2.082  -1.045  0.00  0.00    +0.025 A 
ATOM     26  C   UNL     1       0.028  -2.772  -0.014  0.00  0.00    +0.052 A 
ATOM     27  C   UNL     1       0.621  -2.070   1.029  0.00  0.00    +0.062 A 
ATOM     28  C   UNL     1       0.595  -0.688   1.032  0.00  0.00    +0.025 A 
ATOM     29 CL   UNL     1       1.401  -2.928   2.321  0.00  0.00    -0.082 Cl
ENDBRANCH  18  26
ENDBRANCH  17  19
ENDBRANCH   1  17
TORSDOF 4
