REMARK  Name = ZINC13687495
REMARK  4 active torsions:
REMARK  status: ('A' for Active; 'I' for Inactive)
REMARK    1  A    between atoms: C_1  and  C_2
REMARK    2  A    between atoms: C_9  and  C_11
REMARK    3  A    between atoms: C_24  and  C_27
REMARK    4  A    between atoms: C_31  and  N_33
REMARK                            x       y       z     vdW  Elec       q    Type
REMARK                         _______ _______ _______ _____ _____    ______ ____
ROOT
ATOM      1  C   UNL     1       0.006   8.764  -0.167  0.00  0.00    +0.037 A 
ATOM      2  C   UNL     1       0.877   8.885  -1.254  0.00  0.00    +0.015 A 
ATOM      3  C   UNL     1       1.773   7.875  -1.522  0.00  0.00    +0.024 A 
ATOM      4  C   UNL     1       1.812   6.741  -0.715  0.00  0.00    +0.031 A 
ATOM      5  C   UNL     1       0.951   6.611   0.368  0.00  0.00    -0.019 A 
ATOM      6  C   UNL     1       0.050   7.625   0.638  0.00  0.00    +0.019 A 
ATOM      7  C   UNL     1       0.963   5.409   1.260  0.00  0.00    +0.049 C 
ATOM      8  C   UNL     1      -0.223   4.513   0.991  0.00  0.00    -0.023 C 
ATOM      9  C   UNL     1       0.121   3.255   1.114  0.00  0.00    -0.030 C 
ATOM     10  C   UNL     1       1.586   3.139   1.488  0.00  0.00    +0.033 C 
ATOM     11  C   UNL     1       2.186   4.500   1.028  0.00  0.00    +0.029 C 
ATOM     12  C   UNL     1       2.476   4.389  -0.471  0.00  0.00    +0.105 C 
ATOM     13  N   UNL     1       2.725   5.730  -1.008  0.00  0.00    -0.336 N 
ATOM     14  H   UNL     1       3.507   5.910  -1.553  0.00  0.00    +0.147 HD
ENDROOT
BRANCH   1  22
ATOM     15  C   UNL     1      -2.333  12.014   0.905  0.00  0.00    +0.028 C 
ATOM     16  C   UNL     1      -2.350  11.719  -0.596  0.00  0.00    +0.073 C 
ATOM     17  C   UNL     1      -1.801  12.927  -1.363  0.00  0.00    +0.022 C 
ATOM     18  C   UNL     1      -1.689  12.575  -2.848  0.00  0.00    +0.003 C 
ATOM     19  C   UNL     1      -0.717  11.407  -3.026  0.00  0.00    +0.019 C 
ATOM     20  C   UNL     1      -1.249  10.185  -2.278  0.00  0.00    +0.108 C 
ATOM     21  N   UNL     1      -1.501  10.554  -0.878  0.00  0.00    -0.295 N 
ATOM     22  C   UNL     1      -0.958   9.840   0.128  0.00  0.00    +0.247 C 
ATOM     23  O   UNL     1      -1.264  10.082   1.280  0.00  0.00    -0.270 OA
ENDBRANCH   1  22
BRANCH  12  24
ATOM     24  C   UNL     1       1.290   3.777  -1.171  0.00  0.00    -0.025 A 
ATOM     25  C   UNL     1       0.266   4.585  -1.630  0.00  0.00    +0.005 A 
ATOM     26  C   UNL     1      -0.822   4.025  -2.272  0.00  0.00    +0.003 A 
ATOM     27  C   UNL     1      -0.884   2.657  -2.460  0.00  0.00    +0.033 A 
ATOM     28  C   UNL     1       0.136   1.848  -1.996  0.00  0.00    +0.127 A 
ATOM     29  C   UNL     1       1.225   2.409  -1.353  0.00  0.00    +0.038 A 
BRANCH  28  30
ATOM     30  N   UNL     1       0.067   0.383  -2.192  0.00  0.00    +0.056 N 
ATOM     31  O   UNL     1       0.969  -0.329  -1.787  0.00  0.00    -0.126 OA
ATOM     32  O   UNL     1      -0.892  -0.111  -2.758  0.00  0.00    -0.126 OA
ENDBRANCH  28  30
ENDBRANCH  12  24
TORSDOF 3
