REMARK  Name = ZINC13643674
REMARK  6 active torsions:
REMARK  status: ('A' for Active; 'I' for Inactive)
REMARK    1  A    between atoms: C_1  and  N_2
REMARK    2  A    between atoms: N_2  and  C_3
REMARK    3  A    between atoms: N_2  and  C_4
REMARK    4  A    between atoms: C_7  and  C_10
REMARK    5  A    between atoms: C_20  and  N_27
REMARK    6  A    between atoms: C_23  and  O_26
REMARK                            x       y       z     vdW  Elec       q    Type
REMARK                         _______ _______ _______ _____ _____    ______ ____
ROOT
ATOM      1  C   UNL     1      -2.723   3.938   0.016  0.00  0.00    +0.105 C 
ATOM      2  C   UNL     1      -3.259   4.049  -1.403  0.00  0.00    +0.029 C 
ATOM      3  C   UNL     1      -4.752   4.456  -1.385  0.00  0.00    +0.033 C 
ATOM      4  C   UNL     1      -5.307   3.791  -2.631  0.00  0.00    -0.030 C 
ATOM      5  C   UNL     1      -4.539   2.797  -3.001  0.00  0.00    -0.023 C 
ATOM      6  C   UNL     1      -3.358   2.655  -2.055  0.00  0.00    +0.051 C 
ATOM      7  C   UNL     1      -3.700   1.597  -1.039  0.00  0.00    +0.014 A 
ATOM      8  C   UNL     1      -3.898   0.301  -1.501  0.00  0.00    +0.132 A 
ATOM      9  C   UNL     1      -4.213  -0.718  -0.627  0.00  0.00    +0.037 A 
ATOM     10  C   UNL     1      -4.335  -0.457   0.726  0.00  0.00    +0.049 A 
ATOM     11  C   UNL     1      -4.141   0.828   1.197  0.00  0.00    +0.138 A 
ATOM     12  C   UNL     1      -3.822   1.862   0.310  0.00  0.00    +0.076 A 
ATOM     13  N   UNL     1      -3.639   3.144   0.836  0.00  0.00    -0.334 N 
ATOM     14  H   UNL     1      -4.085   3.580   1.742  0.00  0.00    +0.147 HD
ENDROOT
BRANCH   1  18
ATOM     15  C   UNL     1       1.112   2.053  -0.059  0.00  0.00    +0.029 A 
ATOM     16  C   UNL     1       0.679   2.794  -1.152  0.00  0.00    +0.023 A 
ATOM     17  C   UNL     1      -0.558   3.406  -1.122  0.00  0.00    +0.007 A 
ATOM     18  C   UNL     1      -1.371   3.274  -0.011  0.00  0.00    -0.027 A 
ATOM     19  C   UNL     1      -0.943   2.536   1.078  0.00  0.00    +0.007 A 
ATOM     20  C   UNL     1       0.296   1.925   1.057  0.00  0.00    +0.023 A 
BRANCH  15  22
ATOM     21  C   UNL     1       3.226   1.573  -1.262  0.00  0.00    +0.129 C 
ATOM     22  N   UNL     1       2.366   1.437  -0.084  0.00  0.00    -0.336 N 
ATOM     23  C   UNL     1       2.820   0.656   1.069  0.00  0.00    +0.129 C 
ENDBRANCH  15  22
ENDBRANCH   1  18
BRANCH   8  24
ATOM     24  N   UNL     1      -3.769   0.011  -2.947  0.00  0.00    +0.057 N 
ATOM     25  O   UNL     1      -4.525  -0.781  -3.479  0.00  0.00    -0.126 OA
ATOM     26  O   UNL     1      -2.906   0.566  -3.604  0.00  0.00    -0.126 OA
ENDBRANCH   8  24
BRANCH  11  27
ATOM     27  O   UNL     1      -4.260   1.088   2.526  0.00  0.00    -0.505 OA
ATOM     28  H   UNL     1      -4.105   2.110   2.903  0.00  0.00    +0.292 HD
ENDBRANCH  11  27
TORSDOF 4
