REMARK  Name = ZINC65260063
REMARK  6 active torsions:
REMARK  status: ('A' for Active; 'I' for Inactive)
REMARK    1  A    between atoms: C_1  and  C_2
REMARK    2  A    between atoms: C_6  and  C_7
REMARK    3  A    between atoms: N_24  and  C_25
REMARK    4  A    between atoms: C_25  and  C_26
REMARK    5  A    between atoms: C_25  and  C_27
REMARK    6  A    between atoms: C_25  and  C_28
REMARK                            x       y       z     vdW  Elec       q    Type
REMARK                         _______ _______ _______ _____ _____    ______ ____
ROOT
ATOM      1  C   UNL     1       1.823  -1.017   3.170  0.00  0.00    +0.254 C 
ATOM      2  O   UNL     1       1.681   0.190   3.229  0.00  0.00    -0.269 OA
ATOM      3  N   UNL     1       1.493  -1.787   4.226  0.00  0.00    -0.295 N 
ATOM      4  C   UNL     1       1.733  -3.236   4.201  0.00  0.00    +0.108 C 
ATOM      5  C   UNL     1       0.424  -3.961   4.527  0.00  0.00    +0.021 C 
ATOM      6  C   UNL     1      -0.123  -3.441   5.859  0.00  0.00    +0.036 C 
ATOM      7  C   UNL     1      -0.405  -1.945   5.749  0.00  0.00    +0.102 C 
ATOM      8  C   UNL     1       0.890  -1.192   5.427  0.00  0.00    +0.141 C 
ATOM      9  C   UNL     1      -0.977  -1.435   7.055  0.00  0.00    +0.098 C 
ATOM     10  N   UNL     1      -1.497  -0.153   7.042  0.00  0.00    -0.301 N 
ATOM     11  C   UNL     1      -2.198   0.254   5.894  0.00  0.00    +0.053 A 
ATOM     12  C   UNL     1      -2.948   1.419   5.921  0.00  0.00    +0.025 A 
ATOM     13  C   UNL     1      -3.633   1.825   4.790  0.00  0.00    +0.002 A 
ATOM     14  C   UNL     1      -3.571   1.071   3.632  0.00  0.00    +0.002 A 
ATOM     15  C   UNL     1      -2.827  -0.093   3.598  0.00  0.00    +0.025 A 
ATOM     16  C   UNL     1      -2.141  -0.509   4.730  0.00  0.00    +0.049 A 
ATOM     17  N   UNL     1      -1.402  -1.701   4.698  0.00  0.00    -0.329 N 
ATOM     18  N   UNL     1      -0.979  -2.160   8.127  0.00  0.00    -0.370 N 
ATOM     19  H   UNL     1      -1.546  -2.353   3.994  0.00  0.00    +0.147 HD
ATOM     20  H   UNL     1      -0.730  -3.097   8.079  0.00  0.00    +0.161 HD
ATOM     21  H   UNL     1      -1.382   0.443   7.799  0.00  0.00    +0.153 HD
ENDROOT
BRANCH   1  27
ATOM     22  C   UNL     1       1.095  -0.255   0.238  0.00  0.00    +0.045 C 
ATOM     23  C   UNL     1       2.068  -1.339   0.626  0.00  0.00    -0.031 A 
ATOM     24  C   UNL     1       2.733  -2.093  -0.310  0.00  0.00    +0.011 A 
ATOM     25  C   UNL     1       3.596  -3.052   0.107  0.00  0.00    +0.046 A 
ATOM     26  S   UNL     1       3.532  -2.961   1.784  0.00  0.00    -0.092 S 
ATOM     27  C   UNL     1       2.353  -1.634   1.950  0.00  0.00    +0.077 A 
ENDBRANCH   1  27
BRANCH  18  28
ATOM     28  C   UNL     1      -1.357  -1.567   9.412  0.00  0.00    +0.031 C 
ATOM     29  C   UNL     1      -2.747  -0.940   9.295  0.00  0.00    +0.033 C 
ATOM     30  C   UNL     1      -1.376  -2.654  10.489  0.00  0.00    +0.033 C 
ATOM     31  C   UNL     1      -0.341  -0.488   9.794  0.00  0.00    +0.033 C 
ENDBRANCH  18  28
TORSDOF 2
