REMARK  Name = ZINC18150633
REMARK  5 active torsions:
REMARK  status: ('A' for Active; 'I' for Inactive)
REMARK    1  A    between atoms: C_4  and  N_21
REMARK    2  A    between atoms: N_7  and  C1*_10
REMARK    3  A    between atoms: C3*_13  and  O3*_20
REMARK    4  A    between atoms: C4*_15  and  C5*_18
REMARK    5  A    between atoms: C5*_18  and  O5*_19
REMARK                            x       y       z     vdW  Elec       q    Type
REMARK                         _______ _______ _______ _____ _____    ______ ____
ROOT
ATOM      1  C   UNL     1      -3.587   3.036   0.035  0.00  0.00    +0.048 A 
ATOM      2  C   UNL     1      -2.370   3.657   0.032  0.00  0.00    +0.115 A 
ATOM      3  N   UNL     1      -1.241   2.966   0.029  0.00  0.00    -0.238 NA
ATOM      4  C   UNL     1      -1.223   1.644   0.017  0.00  0.00    +0.144 A 
ATOM      5  C   UNL     1      -2.429   0.926   0.019  0.00  0.00    +0.128 A 
ATOM      6  C   UNL     1      -3.637   1.644   0.028  0.00  0.00    +0.076 A 
ATOM      7  N   UNL     1      -4.640   0.704   0.028  0.00  0.00    -0.303 N 
ATOM      8  C   UNL     1      -4.046  -0.523   0.018  0.00  0.00    +0.202 A 
ATOM      9  N   UNL     1      -2.751  -0.391   0.013  0.00  0.00    -0.232 NA
ENDROOT
BRANCH   7  10
ATOM     10  C1* UNL     1      -6.080   0.971   0.036  0.00  0.00    +0.223 C 
ATOM     11  C2* UNL     1      -6.580   1.185   1.482  0.00  0.00    +0.088 C 
ATOM     12  C3* UNL     1      -7.974   0.520   1.500  0.00  0.00    +0.150 C 
ATOM     13  C4* UNL     1      -8.152  -0.018   0.063  0.00  0.00    +0.175 C 
ATOM     14  O4* UNL     1      -6.808  -0.183  -0.439  0.00  0.00    -0.348 OA
BRANCH  12  15
ATOM     15  O3* UNL     1      -8.005  -0.552   2.443  0.00  0.00    -0.389 OA
ATOM     16  H3* UNL     1      -7.838  -0.279   3.356  0.00  0.00    +0.210 HD
ENDBRANCH  12  15
BRANCH  13  17
ATOM     17  C5* UNL     1      -8.885  -1.361   0.084  0.00  0.00    +0.190 C 
BRANCH  17  18
ATOM     18  O5* UNL     1      -9.142  -1.784  -1.256  0.00  0.00    -0.392 OA
ATOM     19  H5* UNL     1      -9.605  -2.631  -1.320  0.00  0.00    +0.210 HD
ENDBRANCH  17  18
ENDBRANCH  13  17
ENDBRANCH   7  10
BRANCH   4  20
ATOM     20  N   UNL     1      -0.011   0.966   0.007  0.00  0.00    -0.341 N 
ATOM     21  H   UNL     1       0.002  -0.004   0.002  0.00  0.00    +0.144 HD
ATOM     22  H   UNL     1       0.822   1.462   0.002  0.00  0.00    +0.144 HD
ENDBRANCH   4  20
TORSDOF 5
