REMARK  Name = ZINC63489298
REMARK  11 active torsions:
REMARK  status: ('A' for Active; 'I' for Inactive)
REMARK    1  A    between atoms: C_1  and  C_2
REMARK    2  A    between atoms: C_2  and  C_3
REMARK    3  A    between atoms: C_6  and  N_9
REMARK    4  A    between atoms: C_10  and  C_12
REMARK    5  A    between atoms: C_12  and  S_13
REMARK    6  A    between atoms: S_13  and  C_14
REMARK    7  A    between atoms: C_18  and  C_29
REMARK    8  A    between atoms: N_20  and  C_21
REMARK    9  A    between atoms: C_24  and  O_27
REMARK   10  A    between atoms: O_27  and  C_28
REMARK   11  A    between atoms: C_29  and  C_30
REMARK                            x       y       z     vdW  Elec       q    Type
REMARK                         _______ _______ _______ _____ _____    ______ ____
ROOT
ATOM      1  C   UNL     1      -9.691  -3.224  -2.497  0.00  0.00    +0.217 C 
ATOM      2  N   UNL     1      -9.768  -4.454  -1.677  0.00  0.00    -0.226 NA
ATOM      3  N   UNL     1     -11.076  -4.365  -1.008  0.00  0.00    -0.234 NA
ATOM      4  C   UNL     1     -11.197  -2.916  -0.701  0.00  0.00    +0.163 C 
ATOM      5  N   UNL     1     -10.600  -2.245  -1.875  0.00  0.00    -0.287 N 
ATOM      6  H   UNL     1      -9.714  -5.279  -2.256  0.00  0.00    +0.143 HD
ATOM      7  H   UNL     1     -11.818  -4.668  -1.621  0.00  0.00    +0.143 HD
ENDROOT
BRANCH   5   8
ATOM      8  C   UNL     1     -10.849  -0.939  -2.311  0.00  0.00    +0.033 A 
ATOM      9  C   UNL     1     -11.486  -0.721  -3.526  0.00  0.00    +0.027 A 
ATOM     10  C   UNL     1     -11.732   0.568  -3.955  0.00  0.00    +0.047 A 
ATOM     11  C   UNL     1     -11.343   1.646  -3.174  0.00  0.00    +0.120 A 
ATOM     12  C   UNL     1     -10.706   1.430  -1.960  0.00  0.00    +0.047 A 
ATOM     13  C   UNL     1     -10.464   0.141  -1.527  0.00  0.00    +0.027 A 
BRANCH  11  14
ATOM     14  O   UNL     1     -11.585   2.915  -3.597  0.00  0.00    -0.495 OA
ATOM     15  C   UNL     1     -11.157   3.977  -2.742  0.00  0.00    +0.277 C 
ENDBRANCH  11  14
ENDBRANCH   5   8
BRANCH   1  16
ATOM     16  S   UNL     1      -7.994  -2.583  -2.496  0.00  0.00    -0.112 S 
BRANCH  16  17
ATOM     17  C   UNL     1      -7.628  -2.312  -0.740  0.00  0.00    +0.168 C 
BRANCH  17  19
ATOM     18  N   UNL     1      -5.736  -1.494   0.628  0.00  0.00    -0.285 N 
ATOM     19  C   UNL     1      -6.228  -1.772  -0.596  0.00  0.00    +0.227 C 
ATOM     20  O   UNL     1      -5.545  -1.589  -1.581  0.00  0.00    -0.275 OA
ATOM     21  H   UNL     1      -6.253  -1.709   1.419  0.00  0.00    +0.155 HD
BRANCH  18  25
ATOM     22  C   UNL     1      -1.989   0.288   1.010  0.00  0.00    -0.048 A 
ATOM     23  C   UNL     1      -2.790   0.591  -0.076  0.00  0.00    +0.005 A 
ATOM     24  C   UNL     1      -4.032   0.002  -0.206  0.00  0.00    +0.023 A 
ATOM     25  C   UNL     1      -4.477  -0.896   0.756  0.00  0.00    +0.033 A 
ATOM     26  C   UNL     1      -3.671  -1.198   1.845  0.00  0.00    +0.023 A 
ATOM     27  C   UNL     1      -2.427  -0.610   1.967  0.00  0.00    +0.005 A 
BRANCH  22  29
ATOM     28  C   UNL     1       0.416   0.068   0.450  0.00  0.00    +0.009 C 
ATOM     29  C   UNL     1      -0.634   0.933   1.149  0.00  0.00    +0.032 C 
ENDBRANCH  22  29
ENDBRANCH  18  25
ENDBRANCH  17  19
ENDBRANCH  16  17
ENDBRANCH   1  16
BRANCH   4  30
ATOM     30  C   UNL     1     -12.667  -2.522  -0.547  0.00  0.00    +0.093 C 
BRANCH  30  31
ATOM     31  C   UNL     1     -13.254  -3.229   0.648  0.00  0.00    +0.029 A 
ATOM     32  N   UNL     1     -13.739  -4.502   0.524  0.00  0.00    -0.311 N 
ATOM     33  C   UNL     1     -14.264  -5.141   1.585  0.00  0.00    +0.327 A 
ATOM     34  O   UNL     1     -14.690  -6.272   1.452  0.00  0.00    -0.247 OA
ATOM     35  N   UNL     1     -14.324  -4.547   2.791  0.00  0.00    -0.275 N 
ATOM     36  C   UNL     1     -13.856  -3.293   2.955  0.00  0.00    +0.254 A 
ATOM     37  O   UNL     1     -13.910  -2.755   4.045  0.00  0.00    -0.268 OA
ATOM     38  C   UNL     1     -13.297  -2.610   1.848  0.00  0.00    +0.091 A 
ATOM     39  H   UNL     1     -14.706  -5.022   3.545  0.00  0.00    +0.173 HD
ATOM     40  H   UNL     1     -13.705  -4.947  -0.337  0.00  0.00    +0.170 HD
ENDBRANCH  30  31
ENDBRANCH   4  30
TORSDOF 9
