REMARK  Name = ZINC00452036
REMARK  7 active torsions:
REMARK  status: ('A' for Active; 'I' for Inactive)
REMARK    1  A    between atoms: C_1  and  C_2
REMARK    2  A    between atoms: C_5  and  N_8
REMARK    3  A    between atoms: N_8  and  C_9
REMARK    4  A    between atoms: N_8  and  S_16
REMARK    5  A    between atoms: C_9  and  C_10
REMARK    6  A    between atoms: N_12  and  C_13
REMARK    7  A    between atoms: S_16  and  C_19
REMARK                            x       y       z     vdW  Elec       q    Type
REMARK                         _______ _______ _______ _____ _____    ______ ____
ROOT
ATOM      1  N   UNL     1       2.556  -2.641   0.381  0.00  0.00    -0.199 N 
ENDROOT
BRANCH   1   6
ATOM      2  C   UNL     1       6.193  -3.105  -3.946  0.00  0.00    +0.044 C 
ATOM      3  C   UNL     1       5.226  -2.982  -2.796  0.00  0.00    -0.050 A 
ATOM      4  C   UNL     1       3.967  -3.546  -2.889  0.00  0.00    +0.005 A 
ATOM      5  C   UNL     1       3.079  -3.435  -1.838  0.00  0.00    +0.025 A 
ATOM      6  C   UNL     1       3.452  -2.756  -0.685  0.00  0.00    +0.051 A 
ATOM      7  C   UNL     1       4.715  -2.185  -0.596  0.00  0.00    +0.025 A 
ATOM      8  C   UNL     1       5.601  -2.304  -1.650  0.00  0.00    +0.005 A 
ENDBRANCH   1   6
BRANCH   1   9
ATOM      9  S   UNL     1       2.946  -3.271   1.861  0.00  0.00    +0.043 S 
ATOM     10  O   UNL     1       4.361  -3.397   1.841  0.00  0.00    -0.155 OA
ATOM     11  O   UNL     1       2.308  -2.415   2.799  0.00  0.00    -0.155 OA
ATOM     12  C   UNL     1       2.173  -4.912   1.887  0.00  0.00    +0.218 C 
ENDBRANCH   1   9
BRANCH   1  13
ATOM     13  C   UNL     1       1.272  -1.963   0.188  0.00  0.00    +0.226 C 
BRANCH  13  14
ATOM     14  C   UNL     1       1.455  -0.479   0.371  0.00  0.00    +0.232 C 
ATOM     15  O   UNL     1       2.550  -0.031   0.636  0.00  0.00    -0.274 OA
ATOM     16  N   UNL     1       0.401   0.352   0.240  0.00  0.00    -0.311 N 
ATOM     17  H   UNL     1      -0.475  -0.007   0.028  0.00  0.00    +0.149 HD
BRANCH  16  18
ATOM     18  C   UNL     1       0.579   1.795   0.418  0.00  0.00    +0.073 C 
ATOM     19  C   UNL     1      -0.474   2.540   1.240  0.00  0.00    +0.024 C 
ATOM     20  C   UNL     1      -0.420   2.721  -0.279  0.00  0.00    +0.024 C 
ENDBRANCH  16  18
ENDBRANCH  13  14
ENDBRANCH   1  13
TORSDOF 5
