REMARK  Name = ZINC33320382
REMARK  6 active torsions:
REMARK  status: ('A' for Active; 'I' for Inactive)
REMARK    1  A    between atoms: C_1  and  C_2
REMARK    2  A    between atoms: C_7  and  C_8
REMARK    3  A    between atoms: C_11  and  C_24
REMARK    4  A    between atoms: C_12  and  C_22
REMARK    5  A    between atoms: C_16  and  C_19
REMARK    6  A    between atoms: C_17  and  C_18
REMARK                            x       y       z     vdW  Elec       q    Type
REMARK                         _______ _______ _______ _____ _____    ______ ____
ROOT
ATOM      1  C   UNL     1      -1.041   0.128   2.547  0.00  0.00    +0.017 C 
ATOM      2  C   UNL     1      -0.788  -0.609   3.686  0.00  0.00    -0.011 C 
ATOM      3  C   UNL     1      -0.543  -0.067   5.039  0.00  0.00    +0.013 A 
ATOM      4  C   UNL     1      -0.492   1.221   5.555  0.00  0.00    -0.020 A 
ATOM      5  C   UNL     1      -0.230   1.377   6.920  0.00  0.00    +0.095 A 
ATOM      6  C   UNL     1      -0.030   0.230   7.714  0.00  0.00    +0.135 A 
ATOM      7  N   UNL     1      -0.086  -0.979   7.188  0.00  0.00    -0.230 NA
ATOM      8  C   UNL     1      -0.332  -1.169   5.894  0.00  0.00    +0.092 A 
ATOM      9  C   UNL     1      -0.447  -2.385   5.070  0.00  0.00    +0.081 C 
ATOM     10  C   UNL     1      -0.724  -2.019   3.770  0.00  0.00    -0.023 C 
ATOM     11  C   UNL     1      -0.922  -2.972   2.619  0.00  0.00    +0.046 C 
ATOM     12  N   UNL     1       0.231   0.373   9.066  0.00  0.00    -0.342 N 
ATOM     13  C   UNL     1      -0.712   2.420   4.668  0.00  0.00    +0.046 C 
ATOM     14  H   UNL     1       0.274   1.259   9.460  0.00  0.00    +0.144 HD
ATOM     15  H   UNL     1       0.370  -0.411   9.619  0.00  0.00    +0.144 HD
ENDROOT
BRANCH   1  22
ATOM     16  C   UNL     1      -3.300   0.469   0.770  0.00  0.00    +0.044 C 
ATOM     17  C   UNL     1      -2.116  -0.369   0.362  0.00  0.00    -0.043 A 
ATOM     18  C   UNL     1      -2.095  -0.982  -0.872  0.00  0.00    +0.004 A 
ATOM     19  C   UNL     1      -1.008  -1.752  -1.249  0.00  0.00    +0.000 A 
ATOM     20  C   UNL     1       0.067  -1.915  -0.391  0.00  0.00    +0.001 A 
ATOM     21  C   UNL     1       0.063  -1.310   0.847  0.00  0.00    +0.008 A 
ATOM     22  C   UNL     1      -1.030  -0.524   1.235  0.00  0.00    -0.022 A 
ENDBRANCH   1  22
BRANCH   9  23
ATOM     23  C   UNL     1      -0.301  -3.729   5.543  0.00  0.00    +0.102 C 
ATOM     24  N   UNL     1      -0.186  -4.795   5.919  0.00  0.00    -0.191 NA
ENDBRANCH   9  23
BRANCH   5  25
ATOM     25  C   UNL     1      -0.166   2.683   7.503  0.00  0.00    +0.103 C 
ATOM     26  N   UNL     1      -0.116   3.720   7.966  0.00  0.00    -0.191 NA
ENDBRANCH   5  25
TORSDOF 3
