REMARK  Name = ZINC48340262
REMARK  4 active torsions:
REMARK  status: ('A' for Active; 'I' for Inactive)
REMARK    1  A    between atoms: C_1  and  C_2
REMARK    2  A    between atoms: C_2  and  C_3
REMARK    3  A    between atoms: C_4  and  C_9
REMARK    4  A    between atoms: C_5  and  C_8
REMARK                            x       y       z     vdW  Elec       q    Type
REMARK                         _______ _______ _______ _____ _____    ______ ____
ROOT
ATOM      1  C   UNL     1      -1.338  -0.644  -2.875  0.00  0.00    +0.256 C 
ATOM      2  O   UNL     1      -1.764   0.408  -3.313  0.00  0.00    -0.269 OA
ATOM      3  N   UNL     1      -2.171  -1.688  -2.701  0.00  0.00    -0.257 N 
ATOM      4  C   UNL     1      -1.683  -2.969  -2.167  0.00  0.00    +0.210 C 
ATOM      5  C   UNL     1      -2.309  -4.097  -2.947  0.00  0.00    +0.235 C 
ATOM      6  O   UNL     1      -1.711  -5.145  -3.067  0.00  0.00    -0.274 OA
ATOM      7  N   UNL     1      -3.523  -3.955  -3.510  0.00  0.00    -0.283 N 
ATOM      8  C   UNL     1      -4.213  -2.741  -3.428  0.00  0.00    +0.055 A 
ATOM      9  C   UNL     1      -3.535  -1.588  -3.019  0.00  0.00    +0.058 A 
ATOM     10  C   UNL     1      -4.200  -0.378  -2.933  0.00  0.00    +0.025 A 
ATOM     11  C   UNL     1      -5.546  -0.312  -3.248  0.00  0.00    +0.002 A 
ATOM     12  C   UNL     1      -6.224  -1.450  -3.647  0.00  0.00    +0.002 A 
ATOM     13  C   UNL     1      -5.559  -2.667  -3.745  0.00  0.00    +0.025 A 
ATOM     14  H   UNL     1      -3.925  -4.704  -3.978  0.00  0.00    +0.155 HD
ENDROOT
BRANCH   1  16
ATOM     15  C   UNL     1       0.707  -0.490  -1.238  0.00  0.00    +0.096 A 
ATOM     16  C   UNL     1       0.090  -0.776  -2.534  0.00  0.00    +0.102 A 
ATOM     17  C   UNL     1       1.091  -1.188  -3.366  0.00  0.00    +0.147 A 
ATOM     18  O   UNL     1       2.235  -1.171  -2.677  0.00  0.00    -0.359 OA
ATOM     19  N   UNL     1       1.980  -0.729  -1.359  0.00  0.00    -0.082 NA
ATOM     20  C   UNL     1       0.932  -1.594  -4.809  0.00  0.00    +0.090 C 
BRANCH  15  22
ATOM     21  C   UNL     1      -0.019   1.526   0.010  0.00  0.00    +0.010 C 
ATOM     22  C   UNL     1       0.002  -0.004   0.002  0.00  0.00    +0.056 C 
ENDBRANCH  15  22
ENDBRANCH   1  16
TORSDOF 2
