REMARK  Name = ZINC21944666
REMARK  1 active torsions:
REMARK  status: ('A' for Active; 'I' for Inactive)
REMARK    1  A    between atoms: N_21  and  C_22
REMARK                            x       y       z     vdW  Elec       q    Type
REMARK                         _______ _______ _______ _____ _____    ______ ____
ROOT
ATOM      1  C   UNL     1       1.815   4.916   0.950  0.00  0.00    +0.020 A 
ATOM      2  C   UNL     1       0.409   4.875   1.077  0.00  0.00    +0.025 A 
ATOM      3  C   UNL     1       0.019   3.625   0.802  0.00  0.00    +0.047 A 
ATOM      4  N   UNL     1       1.137   2.884   0.485  0.00  0.00    -0.316 N 
ATOM      5  C   UNL     1       2.228   3.679   0.593  0.00  0.00    +0.092 A 
ATOM      6  C   UNL     1       1.037   1.528   0.135  0.00  0.00    +0.067 A 
ATOM      7  C   UNL     1       2.153   0.719   0.039  0.00  0.00    +0.031 A 
ATOM      8  C   UNL     1       2.005  -0.623  -0.265  0.00  0.00    +0.040 A 
ATOM      9  C   UNL     1       0.742  -1.153  -0.471  0.00  0.00    +0.125 A 
ATOM     10  C   UNL     1      -0.379  -0.346  -0.384  0.00  0.00    +0.063 A 
ATOM     11  C   UNL     1      -0.239   1.002  -0.091  0.00  0.00    +0.055 A 
ATOM     12  N   UNL     1      -1.360   1.839  -0.048  0.00  0.00    -0.331 N 
ATOM     13  C   UNL     1      -1.363   3.023   0.823  0.00  0.00    +0.075 C 
ATOM     14  C   UNL     1      -2.377   4.041   0.299  0.00  0.00    +0.051 C 
ATOM     15  C   UNL     1      -3.771   3.405   0.279  0.00  0.00    +0.112 C 
ATOM     16  N   UNL     1      -4.070   2.882   1.619  0.00  0.00    -0.285 N 
ATOM     17  C   UNL     1      -3.115   1.960   2.248  0.00  0.00    +0.112 C 
ATOM     18  C   UNL     1      -1.728   2.610   2.248  0.00  0.00    +0.051 C 
ATOM     19  C   UNL     1      -5.200   3.242   2.259  0.00  0.00    +0.307 C 
ATOM     20  O   UNL     1      -5.482   2.734   3.328  0.00  0.00    -0.252 OA
ATOM     21  N   UNL     1      -6.018   4.165   1.715  0.00  0.00    -0.267 N 
ATOM     22  F   UNL     1       0.604  -2.466  -0.757  0.00  0.00    -0.205 F 
ATOM     23  H   UNL     1      -2.239   1.610  -0.668  0.00  0.00    +0.147 HD
ATOM     24  H   UNL     1      -5.811   4.559   0.710  0.00  0.00    +0.156 HD
ENDROOT
BRANCH  21  25
ATOM     25  C   UNL     1      -7.132   4.622   2.431  0.00  0.00    +0.073 A 
ATOM     26  C   UNL     1      -7.193   4.451   3.807  0.00  0.00    +0.064 A 
ATOM     27  C   UNL     1      -8.293   4.908   4.511  0.00  0.00    +0.125 A 
ATOM     28  C   UNL     1      -9.337   5.526   3.843  0.00  0.00    +0.041 A 
ATOM     29  C   UNL     1      -9.281   5.693   2.472  0.00  0.00    +0.043 A 
ATOM     30  C   UNL     1      -8.182   5.243   1.763  0.00  0.00    +0.145 A 
ATOM     31  F   UNL     1      -8.128   5.407   0.423  0.00  0.00    -0.204 F 
ATOM     32  F   UNL     1      -8.351   4.746   5.851  0.00  0.00    -0.205 F 
ENDBRANCH  21  25
TORSDOF 1
