REMARK  Name = ZINC13474013
REMARK  9 active torsions:
REMARK  status: ('A' for Active; 'I' for Inactive)
REMARK    1  A    between atoms: C_1  and  C_2
REMARK    2  A    between atoms: C_4  and  O_19
REMARK    3  A    between atoms: C_6  and  O_9
REMARK    4  A    between atoms: O_9  and  C_10
REMARK    5  A    between atoms: C_14  and  N_16
REMARK    6  A    between atoms: N_16  and  C_17
REMARK    7  A    between atoms: N_16  and  C_18
REMARK    8  A    between atoms: O_19  and  C_20
REMARK    9  A    between atoms: C_24  and  C_26
REMARK                            x       y       z     vdW  Elec       q    Type
REMARK                         _______ _______ _______ _____ _____    ______ ____
ROOT
ATOM      1  C   UNL     1       5.114  -2.033   1.345  0.00  0.00    +0.050 C 
ATOM      2  C   UNL     1       3.712  -1.872   0.816  0.00  0.00    +0.030 A 
ATOM      3  C   UNL     1       3.400  -2.234  -0.487  0.00  0.00    +0.191 A 
ATOM      4  C   UNL     1       2.098  -2.072  -0.942  0.00  0.00    +0.260 A 
ATOM      5  N   UNL     1       1.160  -1.579  -0.148  0.00  0.00    -0.172 NA
ATOM      6  C   UNL     1       1.424  -1.224   1.099  0.00  0.00    +0.260 A 
ATOM      7  C   UNL     1       2.705  -1.359   1.620  0.00  0.00    +0.191 A 
ATOM      8  F   UNL     1       2.966  -0.994   2.894  0.00  0.00    -0.200 F 
ATOM      9  F   UNL     1       4.352  -2.737  -1.303  0.00  0.00    -0.200 F 
ENDROOT
BRANCH   6  10
ATOM     10  O   UNL     1       0.432  -0.718   1.876  0.00  0.00    -0.436 OA
BRANCH  10  11
ATOM     11  C   UNL     1      -0.837  -1.147   1.651  0.00  0.00    +0.132 A 
ATOM     12  C   UNL     1      -1.075  -2.163   0.735  0.00  0.00    +0.046 A 
ATOM     13  C   UNL     1      -2.365  -2.600   0.505  0.00  0.00    +0.005 A 
ATOM     14  C   UNL     1      -3.423  -2.029   1.187  0.00  0.00    +0.023 A 
ATOM     15  C   UNL     1      -3.191  -1.013   2.105  0.00  0.00    +0.033 A 
ATOM     16  C   UNL     1      -1.895  -0.576   2.341  0.00  0.00    +0.069 A 
BRANCH  15  17
ATOM     17  N   UNL     1      -4.260  -0.437   2.795  0.00  0.00    -0.336 N 
ATOM     18  C   UNL     1      -5.610  -0.986   2.646  0.00  0.00    +0.129 C 
ATOM     19  C   UNL     1      -4.032   0.718   3.667  0.00  0.00    +0.129 C 
ENDBRANCH  15  17
ENDBRANCH  10  11
ENDBRANCH   6  10
BRANCH   4  20
ATOM     20  O   UNL     1       1.783  -2.423  -2.215  0.00  0.00    -0.436 OA
BRANCH  20  21
ATOM     21  C   UNL     1       0.492  -2.281  -2.616  0.00  0.00    +0.131 A 
ATOM     22  C   UNL     1      -0.247  -1.183  -2.196  0.00  0.00    +0.046 A 
ATOM     23  C   UNL     1      -1.560  -1.033  -2.601  0.00  0.00    +0.004 A 
ATOM     24  C   UNL     1      -2.145  -1.974  -3.425  0.00  0.00    +0.011 A 
ATOM     25  C   UNL     1      -1.409  -3.079  -3.852  0.00  0.00    +0.016 A 
ATOM     26  C   UNL     1      -0.084  -3.227  -3.447  0.00  0.00    +0.057 A 
BRANCH  25  27
ATOM     27  C   UNL     1      -2.033  -4.090  -4.736  0.00  0.00    +0.094 C 
ATOM     28  N   UNL     1      -3.342  -3.940  -5.138  0.00  0.00    -0.345 N 
ATOM     29  H   UNL     1      -1.665  -5.838  -5.713  0.00  0.00    +0.157 HD
ATOM     30  H   UNL     1      -3.855  -3.171  -4.843  0.00  0.00    +0.144 HD
ATOM     31  H   UNL     1      -3.751  -4.602  -5.717  0.00  0.00    +0.144 HD
ATOM     32  N   UNL     1      -1.280  -5.115  -5.104  0.00  0.00    -0.387 N 
ATOM     33  H   UNL     1      -0.309  -5.183  -4.777  0.00  0.00    +0.157 HD
ENDBRANCH  25  27
ENDBRANCH  20  21
ENDBRANCH   4  20
TORSDOF 6
