REMARK  Name = ZINC55575337
REMARK  7 active torsions:
REMARK  status: ('A' for Active; 'I' for Inactive)
REMARK    1  A    between atoms: C_1  and  C_2
REMARK    2  A    between atoms: N_8  and  C_9
REMARK    3  A    between atoms: C_9  and  C_10
REMARK    4  A    between atoms: C_10  and  N_11
REMARK    5  A    between atoms: N_11  and  C_12
REMARK    6  A    between atoms: C_12  and  C_13
REMARK    7  A    between atoms: C_18  and  C_19
REMARK                            x       y       z     vdW  Elec       q    Type
REMARK                         _______ _______ _______ _____ _____    ______ ____
ROOT
ATOM      1  N   UNL     1       0.063  -2.473   6.038  0.00  0.00    -0.310 NA
ATOM      2  H   UNL     1       0.836  -1.827   6.103  0.00  0.00    +0.122 HD
ENDROOT
BRANCH   1   3
ATOM      3  C   UNL     1       0.067  -3.170   4.745  0.00  0.00    +0.100 C 
BRANCH   3   4
ATOM      4  C   UNL     1       0.048  -2.142   3.611  0.00  0.00    +0.118 C 
BRANCH   4  12
ATOM      5  C   UNL     1      -0.018   1.503   0.010  0.00  0.00    +0.044 C 
ATOM      6  C   UNL     1       0.002  -0.004   0.002  0.00  0.00    -0.046 A 
ATOM      7  C   UNL     1       0.006  -0.708  -1.196  0.00  0.00    +0.021 A 
ATOM      8  C   UNL     1       0.025  -2.087  -1.169  0.00  0.00    +0.084 A 
ATOM      9  N   UNL     1       0.040  -2.742  -0.023  0.00  0.00    -0.350 N 
ATOM     10  C   UNL     1       0.036  -2.108   1.139  0.00  0.00    +0.096 A 
ATOM     11  C   UNL     1       0.023  -0.717   1.187  0.00  0.00    +0.045 A 
ATOM     12  N   UNL     1       0.052  -2.838   2.322  0.00  0.00    -0.329 N 
ATOM     13  H   UNL     1       0.065  -3.807   2.294  0.00  0.00    +0.147 HD
ATOM     14  H   UNL     1       0.054  -3.712  -0.033  0.00  0.00    +0.166 HD
ENDBRANCH   4  12
ENDBRANCH   3   4
ENDBRANCH   1   3
BRANCH   1  15
ATOM     15  C   UNL     1       0.081  -3.430   7.152  0.00  0.00    +0.120 C 
BRANCH  15  16
ATOM     16  C   UNL     1       0.077  -2.680   8.459  0.00  0.00    +0.011 A 
ATOM     17  C   UNL     1       1.153  -2.428   9.236  0.00  0.00    +0.110 A 
ATOM     18  N   UNL     1       0.734  -1.734  10.316  0.00  0.00    -0.284 N 
ATOM     19  H   UNL     1       1.295  -1.418  11.041  0.00  0.00    +0.188 HD
ATOM     20  N   UNL     1      -0.649  -1.548  10.205  0.00  0.00    -0.174 NA
ATOM     21  C   UNL     1      -1.050  -2.111   9.085  0.00  0.00    +0.097 A 
BRANCH  21  22
ATOM     22  C   UNL     1      -2.443  -2.145   8.574  0.00  0.00    +0.003 A 
ATOM     23  C   UNL     1      -2.685  -2.083   7.203  0.00  0.00    +0.013 A 
ATOM     24  C   UNL     1      -3.982  -2.115   6.732  0.00  0.00    +0.039 A 
ATOM     25  C   UNL     1      -5.042  -2.207   7.620  0.00  0.00    +0.123 A 
ATOM     26  C   UNL     1      -4.805  -2.268   8.983  0.00  0.00    +0.039 A 
ATOM     27  C   UNL     1      -3.511  -2.243   9.463  0.00  0.00    +0.013 A 
ATOM     28  F   UNL     1      -6.310  -2.236   7.154  0.00  0.00    -0.205 F 
ENDBRANCH  21  22
ENDBRANCH  15  16
ENDBRANCH   1  15
TORSDOF 6
