REMARK  Name = ZINC14129515
REMARK  6 active torsions:
REMARK  status: ('A' for Active; 'I' for Inactive)
REMARK    1  A    between atoms: C_6  and  O_7
REMARK    2  A    between atoms: O_7  and  C_8
REMARK    3  A    between atoms: C_8  and  C_9
REMARK    4  A    between atoms: C_11  and  C_14
REMARK    5  A    between atoms: C_17  and  O_21
REMARK    6  A    between atoms: C_19  and  O_20
REMARK                            x       y       z     vdW  Elec       q    Type
REMARK                         _______ _______ _______ _____ _____    ______ ____
ROOT
ATOM      1  C   UNL     1      -0.018   1.503   0.010  0.00  0.00    +0.116 A 
ATOM      2  N   UNL     1       0.993   2.338   0.005  0.00  0.00    -0.240 NA
ATOM      3  C   UNL     1       0.806   3.648   0.014  0.00  0.00    +0.082 A 
ATOM      4  C   UNL     1      -0.481   4.112   0.029  0.00  0.00    +0.075 A 
ATOM      5  S   UNL     1      -1.387   2.571   0.021  0.00  0.00    -0.077 S 
ENDROOT
BRANCH   3   6
ATOM      6  C   UNL     1       1.957   4.585   0.007  0.00  0.00    +0.043 A 
ATOM      7  C   UNL     1       1.738   5.960   0.011  0.00  0.00    +0.017 A 
ATOM      8  C   UNL     1       2.810   6.829   0.010  0.00  0.00    +0.046 A 
ATOM      9  C   UNL     1       4.108   6.336  -0.005  0.00  0.00    +0.120 A 
ATOM     10  C   UNL     1       4.334   4.968  -0.013  0.00  0.00    +0.091 A 
ATOM     11  C   UNL     1       3.264   4.089  -0.008  0.00  0.00    +0.129 A 
BRANCH  11  12
ATOM     12  O   UNL     1       3.484   2.748  -0.017  0.00  0.00    -0.506 OA
ATOM     13  H   UNL     1       3.539   2.365  -0.903  0.00  0.00    +0.292 HD
ENDBRANCH  11  12
BRANCH   9  14
ATOM     14  O   UNL     1       5.159   7.197  -0.012  0.00  0.00    -0.507 OA
ATOM     15  H   UNL     1       5.455   7.450  -0.897  0.00  0.00    +0.292 HD
ENDBRANCH   9  14
ENDBRANCH   3   6
BRANCH   1  16
ATOM     16  C   UNL     1       0.002  -0.004   0.002  0.00  0.00    +0.291 C 
BRANCH  16  17
ATOM     17  O   UNL     1       0.021  -0.488   1.347  0.00  0.00    -0.485 OA
BRANCH  17  23
ATOM     18  C   UNL     1       0.036  -2.676   0.413  0.00  0.00    +0.048 A 
ATOM     19  C   UNL     1       0.062  -4.046   0.588  0.00  0.00    +0.042 A 
ATOM     20  C   UNL     1       0.082  -4.581   1.865  0.00  0.00    +0.124 A 
ATOM     21  C   UNL     1       0.081  -3.744   2.968  0.00  0.00    +0.042 A 
ATOM     22  C   UNL     1       0.061  -2.374   2.796  0.00  0.00    +0.048 A 
ATOM     23  C   UNL     1       0.041  -1.836   1.517  0.00  0.00    +0.121 A 
ATOM     24  F   UNL     1       0.102  -5.921   2.034  0.00  0.00    -0.205 F 
ENDBRANCH  17  23
ENDBRANCH  16  17
ENDBRANCH   1  16
TORSDOF 6
