REMARK  Name = ZINC39688303
REMARK  8 active torsions:
REMARK  status: ('A' for Active; 'I' for Inactive)
REMARK    1  A    between atoms: C_1  and  C_2
REMARK    2  A    between atoms: C_4  and  C_11
REMARK    3  A    between atoms: C_5  and  C_7
REMARK    4  A    between atoms: C_15  and  C_24
REMARK    5  A    between atoms: N_26  and  C_27
REMARK    6  A    between atoms: C_27  and  C_28
REMARK    7  A    between atoms: C_28  and  O_29
REMARK    8  A    between atoms: O_29  and  C_30
REMARK                            x       y       z     vdW  Elec       q    Type
REMARK                         _______ _______ _______ _____ _____    ______ ____
ROOT
ATOM      1  C   UNL     1      -1.314  -3.208   0.132  0.00  0.00    +0.250 C 
ATOM      2  O   UNL     1      -0.782  -4.299   0.208  0.00  0.00    -0.270 OA
ATOM      3  N   UNL     1      -2.657  -3.109   0.172  0.00  0.00    -0.296 N 
ATOM      4  C   UNL     1      -3.485  -1.898  -0.042  0.00  0.00    +0.121 C 
ATOM      5  C   UNL     1      -4.703  -2.397  -0.853  0.00  0.00    +0.100 C 
ATOM      6  C   UNL     1      -4.801  -3.897  -0.531  0.00  0.00    -0.004 C 
ATOM      7  C   UNL     1      -3.641  -4.187   0.432  0.00  0.00    +0.115 C 
ATOM      8  C   UNL     1      -4.639  -4.722  -1.805  0.00  0.00    -0.010 C 
ATOM      9  C   UNL     1      -4.796  -6.207  -1.469  0.00  0.00    -0.082 C 
ATOM     10  N   UNL     1      -6.120  -6.439  -0.877  0.00  0.00    +0.379 N 
ATOM     11  C   UNL     1      -6.233  -5.715   0.395  0.00  0.00    -0.082 C 
ATOM     12  C   UNL     1      -6.136  -4.209   0.138  0.00  0.00    -0.010 C 
ATOM     13  H   UNL     1      -6.833  -6.114  -1.512  0.00  0.00    -0.086 HD
ATOM     14  H   UNL     1      -6.245  -7.427  -0.713  0.00  0.00    -0.086 HD
ENDROOT
BRANCH   1  18
ATOM     15  C   UNL     1       0.177   1.662  -0.160  0.00  0.00    +0.086 C 
ATOM     16  C   UNL     1       0.149   0.156  -0.129  0.00  0.00    +0.103 A 
ATOM     17  C   UNL     1      -0.948  -0.598   0.036  0.00  0.00    +0.058 A 
ATOM     18  C   UNL     1      -0.489  -1.994  -0.004  0.00  0.00    +0.087 A 
ATOM     19  C   UNL     1       0.861  -1.931  -0.192  0.00  0.00    +0.220 A 
ATOM     20  O   UNL     1       1.216  -0.645  -0.269  0.00  0.00    -0.455 OA
BRANCH  19  21
ATOM     21  C   UNL     1       1.792  -3.111  -0.300  0.00  0.00    +0.451 C 
ATOM     22  F   UNL     1       1.899  -3.499  -1.640  0.00  0.00    -0.163 F 
ATOM     23  F   UNL     1       3.055  -2.755   0.184  0.00  0.00    -0.163 F 
ATOM     24  F   UNL     1       1.286  -4.175   0.454  0.00  0.00    -0.163 F 
ENDBRANCH  19  21
ENDBRANCH   1  18
BRANCH   5  25
ATOM     25  C   UNL     1      -4.473  -2.187  -2.327  0.00  0.00    +0.218 C 
ATOM     26  O   UNL     1      -3.342  -2.135  -2.763  0.00  0.00    -0.275 OA
ATOM     27  N   UNL     1      -5.524  -2.058  -3.161  0.00  0.00    -0.312 N 
ATOM     28  H   UNL     1      -6.425  -2.027  -2.805  0.00  0.00    +0.149 HD
BRANCH  27  29
ATOM     29  C   UNL     1      -5.304  -1.964  -4.607  0.00  0.00    +0.145 C 
BRANCH  29  30
ATOM     30  C   UNL     1      -6.638  -1.701  -5.309  0.00  0.00    +0.247 C 
BRANCH  30  31
ATOM     31  O   UNL     1      -7.131  -0.415  -4.929  0.00  0.00    -0.490 OA
BRANCH  31  32
ATOM     32  C   UNL     1      -8.361  -0.064  -5.389  0.00  0.00    +0.121 A 
ATOM     33  C   UNL     1      -9.124  -0.981  -6.098  0.00  0.00    +0.048 A 
ATOM     34  C   UNL     1     -10.374  -0.623  -6.565  0.00  0.00    +0.042 A 
ATOM     35  C   UNL     1     -10.865   0.649  -6.327  0.00  0.00    +0.124 A 
ATOM     36  C   UNL     1     -10.104   1.565  -5.620  0.00  0.00    +0.042 A 
ATOM     37  C   UNL     1      -8.857   1.208  -5.145  0.00  0.00    +0.048 A 
ATOM     38  F   UNL     1     -12.087   0.998  -6.785  0.00  0.00    -0.205 F 
ENDBRANCH  31  32
ENDBRANCH  30  31
ENDBRANCH  29  30
ENDBRANCH  27  29
ENDBRANCH   5  25
TORSDOF 7
