REMARK  Name = ZINC66327028
REMARK  13 active torsions:
REMARK  status: ('A' for Active; 'I' for Inactive)
REMARK    1  A    between atoms: C_1  and  C_2
REMARK    2  A    between atoms: C_6  and  O_8
REMARK    3  A    between atoms: O_8  and  C_9
REMARK    4  A    between atoms: C_9  and  C_10
REMARK    5  A    between atoms: C_10  and  C_12
REMARK    6  A    between atoms: C_10  and  O_28
REMARK    7  A    between atoms: C_12  and  N_13
REMARK    8  A    between atoms: N_16  and  C_17
REMARK    9  A    between atoms: C_17  and  C_18
REMARK   10  A    between atoms: C_18  and  C_20
REMARK   11  A    between atoms: C_18  and  N_25
REMARK   12  A    between atoms: N_25  and  C_26
REMARK   13  A    between atoms: N_25  and  C_27
REMARK                            x       y       z     vdW  Elec       q    Type
REMARK                         _______ _______ _______ _____ _____    ______ ____
ROOT
ATOM      1  N   UNL     1      -0.729  -6.398   5.833  0.00  0.00    -0.297 N 
ATOM      2  C   UNL     1      -0.586  -7.737   5.784  0.00  0.00    +0.300 C 
ATOM      3  O   UNL     1      -0.367  -8.286   4.721  0.00  0.00    -0.253 OA
ATOM      4  N   UNL     1      -0.687  -8.468   6.912  0.00  0.00    -0.301 N 
ATOM      5  H   UNL     1      -0.904  -5.960   6.681  0.00  0.00    +0.150 HD
ATOM      6  H   UNL     1      -0.862  -8.030   7.759  0.00  0.00    +0.150 HD
ENDROOT
BRANCH   1   7
ATOM      7  C   UNL     1      -0.620  -5.604   4.607  0.00  0.00    +0.140 C 
BRANCH   7   8
ATOM      8  C   UNL     1      -0.820  -4.123   4.938  0.00  0.00    +0.169 C 
BRANCH   8   9
ATOM      9  O   UNL     1       0.247  -3.674   5.776  0.00  0.00    -0.387 OA
ATOM     10  H   UNL     1       1.123  -3.761   5.377  0.00  0.00    +0.210 HD
ENDBRANCH   8   9
BRANCH   8  11
ATOM     11  C   UNL     1      -0.831  -3.308   3.644  0.00  0.00    +0.261 C 
BRANCH  11  12
ATOM     12  O   UNL     1      -1.133  -1.944   3.943  0.00  0.00    -0.489 OA
BRANCH  12  18
ATOM     13  C   UNL     1      -1.834   2.593   2.284  0.00  0.00    +0.044 C 
ATOM     14  C   UNL     1      -1.520   1.138   2.048  0.00  0.00    -0.047 A 
ATOM     15  C   UNL     1      -1.282   0.682   0.764  0.00  0.00    +0.003 A 
ATOM     16  C   UNL     1      -0.994  -0.652   0.545  0.00  0.00    +0.004 A 
ATOM     17  C   UNL     1      -0.944  -1.534   1.607  0.00  0.00    +0.045 A 
ATOM     18  C   UNL     1      -1.182  -1.079   2.896  0.00  0.00    +0.121 A 
ATOM     19  C   UNL     1      -1.465   0.262   3.115  0.00  0.00    +0.049 A 
ENDBRANCH  12  18
ENDBRANCH  11  12
ENDBRANCH   8  11
ENDBRANCH   7   8
ENDBRANCH   1   7
BRANCH   4  20
ATOM     20  C   UNL     1      -0.532  -9.924   6.858  0.00  0.00    +0.095 C 
BRANCH  20  21
ATOM     21  C   UNL     1      -0.561 -10.492   8.278  0.00  0.00    -0.014 C 
BRANCH  21  22
ATOM     22  C   UNL     1       0.639  -9.996   9.043  0.00  0.00    -0.022 A 
ATOM     23  C   UNL     1       0.719  -8.988   9.946  0.00  0.00    +0.009 A 
ATOM     24  C   UNL     1       1.940  -8.706  10.530  0.00  0.00    +0.008 A 
ATOM     25  C   UNL     1       3.021  -9.446  10.182  0.00  0.00    +0.045 A 
ATOM     26  S   UNL     1       2.323 -10.587   9.000  0.00  0.00    -0.103 S 
ENDBRANCH  21  22
BRANCH  21  27
ATOM     27  N   UNL     1      -0.531 -11.960   8.218  0.00  0.00    +0.382 N 
ATOM     28  C   UNL     1      -0.486 -12.505   9.582  0.00  0.00    -0.096 C 
ATOM     29  C   UNL     1      -1.736 -12.447   7.535  0.00  0.00    -0.096 C 
ATOM     30  H   UNL     1       0.288 -12.259   7.710  0.00  0.00    -0.082 HD
ENDBRANCH  21  27
ENDBRANCH  20  21
ENDBRANCH   4  20
TORSDOF 10
