REMARK  Name = ZINC03764631
REMARK  10 active torsions:
REMARK  status: ('A' for Active; 'I' for Inactive)
REMARK    1  A    between atoms: C_1  and  C_2
REMARK    2  A    between atoms: C_2  and  O_3
REMARK    3  A    between atoms: O_3  and  C_4
REMARK    4  A    between atoms: C_4  and  C_6
REMARK    5  A    between atoms: C_12  and  C_13
REMARK    6  A    between atoms: C_13  and  O_15
REMARK    7  A    between atoms: O_15  and  C_16
REMARK    8  A    between atoms: C_18  and  N_31
REMARK    9  A    between atoms: C_19  and  C_29
REMARK   10  A    between atoms: C_20  and  C_22
REMARK                            x       y       z     vdW  Elec       q    Type
REMARK                         _______ _______ _______ _____ _____    ______ ____
ROOT
ATOM      1  C   UNL     1       3.213   1.659  -1.301  0.00  0.00    +0.080 C 
ATOM      2  C   UNL     1       4.468   2.169  -1.218  0.00  0.00    +0.100 A 
ATOM      3  N   UNL     1       5.114   2.457  -0.033  0.00  0.00    -0.257 N 
ATOM      4  C   UNL     1       6.363   2.961  -0.104  0.00  0.00    +0.272 A 
ATOM      5  O   UNL     1       6.985   3.235   0.903  0.00  0.00    -0.266 OA
ATOM      6  C   UNL     1       6.955   3.170  -1.446  0.00  0.00    +0.086 A 
ATOM      7  C   UNL     1       8.177   3.657  -1.784  0.00  0.00    +0.112 C 
ATOM      8  S   UNL     1       5.626   2.609  -2.499  0.00  0.00    -0.065 S 
ATOM      9  C   UNL     1       4.454   2.217   1.179  0.00  0.00    +0.118 C 
ATOM     10  C   UNL     1       3.206   1.716   1.263  0.00  0.00    +0.079 C 
ATOM     11  C   UNL     1       2.461   1.383  -0.014  0.00  0.00    +0.105 C 
ENDROOT
BRANCH  11  12
ATOM     12  C   UNL     1       1.183   2.180  -0.035  0.00  0.00    +0.001 A 
ATOM     13  C   UNL     1       1.229   3.561  -0.065  0.00  0.00    +0.007 A 
ATOM     14  C   UNL     1       0.056   4.293  -0.085  0.00  0.00    +0.000 A 
ATOM     15  C   UNL     1      -1.165   3.643  -0.073  0.00  0.00    +0.003 A 
ATOM     16  C   UNL     1      -1.214   2.263  -0.048  0.00  0.00    +0.038 A 
ATOM     17  C   UNL     1      -0.039   1.529  -0.024  0.00  0.00    +0.127 A 
ATOM     18  F   UNL     1      -0.086   0.179   0.005  0.00  0.00    -0.205 F 
ENDBRANCH  11  12
BRANCH   9  19
ATOM     19  N   UNL     1       5.116   2.512   2.346  0.00  0.00    -0.343 N 
ATOM     20  H   UNL     1       5.787   3.213   2.360  0.00  0.00    +0.144 HD
ATOM     21  H   UNL     1       4.913   2.019   3.157  0.00  0.00    +0.144 HD
ENDBRANCH   9  19
BRANCH   1  22
ATOM     22  C   UNL     1       2.624   1.393  -2.550  0.00  0.00    +0.339 C 
ATOM     23  O   UNL     1       3.242   1.621  -3.575  0.00  0.00    -0.245 OA
BRANCH  22  24
ATOM     24  O   UNL     1       1.374   0.886  -2.613  0.00  0.00    -0.462 OA
BRANCH  24  26
ATOM     25  C   UNL     1      -0.575   0.071  -3.785  0.00  0.00    +0.048 C 
ATOM     26  C   UNL     1       0.839   0.641  -3.915  0.00  0.00    +0.229 C 
ENDBRANCH  24  26
ENDBRANCH  22  24
ENDBRANCH   1  22
BRANCH   7  27
ATOM     27  C   UNL     1       8.552   3.777  -3.193  0.00  0.00    +0.333 C 
ATOM     28  O   UNL     1       7.770   3.441  -4.062  0.00  0.00    -0.246 OA
BRANCH  27  29
ATOM     29  O   UNL     1       9.766   4.261  -3.529  0.00  0.00    -0.465 OA
ATOM     30  C   UNL     1      10.066   4.351  -4.923  0.00  0.00    +0.280 C 
ENDBRANCH  27  29
ENDBRANCH   7  27
BRANCH  10  31
ATOM     31  C   UNL     1       2.596   1.501   2.540  0.00  0.00    +0.099 C 
ATOM     32  N   UNL     1       2.112   1.330   3.554  0.00  0.00    -0.191 NA
ENDBRANCH  10  31
TORSDOF 8
