REMARK  Name = ZINC05482444
REMARK  6 active torsions:
REMARK  status: ('A' for Active; 'I' for Inactive)
REMARK    1  A    between atoms: C_1  and  C_2
REMARK    2  A    between atoms: C_3  and  C_18
REMARK    3  A    between atoms: C_4  and  C_12
REMARK    4  A    between atoms: C_6  and  C_10
REMARK    5  A    between atoms: C_7  and  N_9
REMARK    6  A    between atoms: N_20  and  C_21
REMARK                            x       y       z     vdW  Elec       q    Type
REMARK                         _______ _______ _______ _____ _____    ______ ____
ROOT
ATOM      1  C   UNL     1      -5.174   2.606   2.402  0.00  0.00    +0.087 C 
ATOM      2  C   UNL     1      -4.427   2.321   1.125  0.00  0.00    +0.113 C 
ATOM      3  C   UNL     1      -3.375   1.494   1.158  0.00  0.00    +0.065 C 
ATOM      4  C   UNL     1      -2.595   1.175  -0.087  0.00  0.00    +0.104 C 
ATOM      5  C   UNL     1      -3.390   1.568  -1.303  0.00  0.00    +0.098 C 
ATOM      6  C   UNL     1      -4.453   2.398  -1.201  0.00  0.00    +0.198 C 
ATOM      7  O   UNL     1      -4.837   2.903  -0.014  0.00  0.00    -0.445 OA
ENDROOT
BRANCH   4   8
ATOM      8  C   UNL     1      -1.295   1.937  -0.072  0.00  0.00    -0.016 A 
ATOM      9  C   UNL     1      -0.085   1.261  -0.099  0.00  0.00    +0.007 A 
ATOM     10  C   UNL     1       1.086   2.003  -0.089  0.00  0.00    +0.020 A 
ATOM     11  C   UNL     1       1.009   3.383  -0.047  0.00  0.00    +0.111 A 
ATOM     12  N   UNL     1      -0.160   3.992  -0.017  0.00  0.00    -0.263 NA
ATOM     13  C   UNL     1      -1.294   3.318  -0.025  0.00  0.00    +0.115 A 
ENDBRANCH   4   8
BRANCH   3  14
ATOM     14  C   UNL     1      -2.978   0.890   2.428  0.00  0.00    +0.248 C 
ATOM     15  O   UNL     1      -3.537   1.217   3.459  0.00  0.00    -0.270 OA
ATOM     16  N   UNL     1      -1.993  -0.030   2.458  0.00  0.00    -0.282 N 
ATOM     17  H   UNL     1      -1.505  -0.244   1.648  0.00  0.00    +0.155 HD
BRANCH  16  18
ATOM     18  C   UNL     1      -1.675  -0.675   3.658  0.00  0.00    +0.034 A 
ATOM     19  C   UNL     1      -1.754   0.014   4.861  0.00  0.00    +0.025 A 
ATOM     20  C   UNL     1      -1.443  -0.627   6.044  0.00  0.00    +0.022 A 
ATOM     21  C   UNL     1      -1.045  -1.953   6.030  0.00  0.00    +0.041 A 
ATOM     22  C   UNL     1      -0.962  -2.640   4.832  0.00  0.00    +0.022 A 
ATOM     23  C   UNL     1      -1.275  -2.005   3.647  0.00  0.00    +0.025 A 
ATOM     24 CL   UNL     1      -0.649  -2.754   7.519  0.00  0.00    -0.084 Cl
ENDBRANCH  16  18
ENDBRANCH   3  14
BRANCH   6  25
ATOM     25  N   UNL     1      -5.155   2.734  -2.332  0.00  0.00    -0.328 N 
ATOM     26  H   UNL     1      -5.918   3.329  -2.270  0.00  0.00    +0.145 HD
ATOM     27  H   UNL     1      -4.887   2.377  -3.193  0.00  0.00    +0.145 HD
ENDBRANCH   6  25
BRANCH   5  28
ATOM     28  C   UNL     1      -3.017   1.055  -2.587  0.00  0.00    +0.101 C 
ATOM     29  N   UNL     1      -2.722   0.649  -3.606  0.00  0.00    -0.191 NA
ENDBRANCH   5  28
TORSDOF 5
