REMARK  Name = ZINC04888238
REMARK  12 active torsions:
REMARK  status: ('A' for Active; 'I' for Inactive)
REMARK    1  A    between atoms: C_1  and  C_2
REMARK    2  A    between atoms: C_2  and  O_3
REMARK    3  A    between atoms: O_3  and  C_4
REMARK    4  A    between atoms: C_6  and  C_11
REMARK    5  A    between atoms: C_9  and  O_10
REMARK    6  A    between atoms: C_13  and  C_20
REMARK    7  A    between atoms: C_14  and  C_19
REMARK    8  A    between atoms: C_20  and  O_22
REMARK    9  A    between atoms: O_22  and  C_23
REMARK   10  A    between atoms: C_23  and  C_24
REMARK   11  A    between atoms: C_23  and  C_25
REMARK   12  A    between atoms: C_23  and  C_26
REMARK                            x       y       z     vdW  Elec       q    Type
REMARK                         _______ _______ _______ _____ _____    ______ ____
ROOT
ATOM      1  C   UNL     1       5.263   3.752  -0.167  0.00  0.00    +0.141 C 
ATOM      2  C   UNL     1       6.092   2.483  -0.153  0.00  0.00    +0.078 C 
ATOM      3  C   UNL     1       6.703   2.144   1.004  0.00  0.00    +0.019 C 
ATOM      4  N   UNL     1       6.577   2.919   2.120  0.00  0.00    -0.300 N 
ATOM      5  C   UNL     1       5.858   4.047   2.164  0.00  0.00    +0.135 C 
ATOM      6  S   UNL     1       5.782   4.925   3.632  0.00  0.00    -0.019 S 
ATOM      7  N   UNL     1       5.192   4.516   1.090  0.00  0.00    -0.315 N 
ATOM      8  C   UNL     1       7.537   0.890   1.061  0.00  0.00    +0.061 C 
ATOM      9  H   UNL     1       7.033   2.635   2.927  0.00  0.00    +0.154 HD
ATOM     10  H   UNL     1       4.677   5.336   1.143  0.00  0.00    +0.149 HD
ENDROOT
BRANCH   1  13
ATOM     11  C   UNL     1       1.750   2.368  -0.049  0.00  0.00    +0.162 A 
ATOM     12  C   UNL     1       3.042   2.706   0.318  0.00  0.00    +0.055 A 
ATOM     13  C   UNL     1       3.858   3.384  -0.569  0.00  0.00    -0.019 A 
ATOM     14  C   UNL     1       3.387   3.726  -1.823  0.00  0.00    +0.009 A 
ATOM     15  C   UNL     1       2.101   3.385  -2.198  0.00  0.00    +0.049 A 
ATOM     16  C   UNL     1       1.276   2.711  -1.312  0.00  0.00    +0.158 A 
BRANCH  16  17
ATOM     17  O   UNL     1       0.009   2.381  -1.677  0.00  0.00    -0.503 OA
ATOM     18  H   UNL     1      -0.651   3.055  -1.463  0.00  0.00    +0.292 HD
ENDBRANCH  16  17
BRANCH  11  19
ATOM     19  O   UNL     1       0.947   1.701   0.822  0.00  0.00    -0.489 OA
BRANCH  19  21
ATOM     20  C   UNL     1       0.518   0.457   2.849  0.00  0.00    +0.048 C 
ATOM     21  C   UNL     1       1.536   1.274   2.052  0.00  0.00    +0.226 C 
ENDBRANCH  19  21
ENDBRANCH  11  19
ENDBRANCH   1  13
BRANCH   2  22
ATOM     22  C   UNL     1       6.222   1.681  -1.311  0.00  0.00    +0.339 C 
ATOM     23  O   UNL     1       6.994   0.741  -1.316  0.00  0.00    -0.245 OA
BRANCH  22  24
ATOM     24  O   UNL     1       5.488   1.958  -2.409  0.00  0.00    -0.456 OA
BRANCH  24  25
ATOM     25  C   UNL     1       5.582   1.040  -3.500  0.00  0.00    +0.106 C 
ATOM     26  C   UNL     1       5.199  -0.362  -3.022  0.00  0.00    +0.055 C 
ATOM     27  C   UNL     1       4.630   1.476  -4.616  0.00  0.00    +0.055 C 
ATOM     28  C   UNL     1       7.016   1.024  -4.031  0.00  0.00    +0.055 C 
ENDBRANCH  24  25
ENDBRANCH  22  24
ENDBRANCH   2  22
TORSDOF 7
