REMARK  Name = ZINC60556386
REMARK  7 active torsions:
REMARK  status: ('A' for Active; 'I' for Inactive)
REMARK    1  A    between atoms: C_1  and  C_2
REMARK    2  A    between atoms: C_2  and  C_3
REMARK    3  A    between atoms: C_2  and  N_10
REMARK    4  A    between atoms: C_14  and  C_16
REMARK    5  A    between atoms: C_16  and  N_17
REMARK    6  A    between atoms: N_17  and  C_18
REMARK    7  A    between atoms: C_21  and  C_24
REMARK                            x       y       z     vdW  Elec       q    Type
REMARK                         _______ _______ _______ _____ _____    ______ ____
ROOT
ATOM      1  N   UNL     1       0.645  -0.626  -1.159  0.00  0.00    -0.296 N 
ATOM      2  C   UNL     1       1.988  -0.731  -1.209  0.00  0.00    +0.306 C 
ATOM      3  O   UNL     1       2.665  -0.310  -0.292  0.00  0.00    -0.252 OA
ATOM      4  N   UNL     1       2.579  -1.302  -2.277  0.00  0.00    -0.239 N 
ATOM      5  C   UNL     1       3.921  -1.407  -2.328  0.00  0.00    +0.237 C 
ATOM      6  O   UNL     1       4.597  -0.987  -1.413  0.00  0.00    -0.274 OA
ATOM      7  H   UNL     1       0.104  -0.962  -1.890  0.00  0.00    +0.151 HD
ATOM      8  H   UNL     1       2.038  -1.638  -3.009  0.00  0.00    +0.159 HD
ENDROOT
BRANCH   1  10
ATOM      9  C   UNL     1      -0.033   1.514  -0.187  0.00  0.00    +0.028 C 
ATOM     10  C   UNL     1       0.002  -0.004   0.002  0.00  0.00    +0.075 C 
BRANCH  10  11
ATOM     11  C   UNL     1      -1.427  -0.534   0.139  0.00  0.00    +0.012 C 
ATOM     12  C   UNL     1      -2.060  -0.042   1.460  0.00  0.00    +0.009 C 
ATOM     13  C   UNL     1      -2.377  -1.346   2.255  0.00  0.00    -0.010 C 
ATOM     14  C   UNL     1      -3.555  -2.003   1.473  0.00  0.00    +0.004 C 
ATOM     15  C   UNL     1      -2.922  -2.495   0.152  0.00  0.00    +0.004 C 
ATOM     16  C   UNL     1      -1.420  -2.089   0.259  0.00  0.00    -0.006 C 
ATOM     17  C   UNL     1      -1.183  -2.259   1.802  0.00  0.00    +0.007 C 
ENDBRANCH  10  11
ENDBRANCH   1  10
BRANCH   5  18
ATOM     18  C   UNL     1       4.583  -2.047  -3.522  0.00  0.00    +0.198 C 
BRANCH  18  19
ATOM     19  N   UNL     1       6.036  -2.040  -3.337  0.00  0.00    -0.335 N 
ATOM     20  H   UNL     1       6.421  -1.658  -2.533  0.00  0.00    +0.147 HD
BRANCH  19  21
ATOM     21  C   UNL     1       6.864  -2.581  -4.316  0.00  0.00    +0.028 A 
ATOM     22  C   UNL     1       6.311  -3.123  -5.472  0.00  0.00    +0.024 A 
ATOM     23  C   UNL     1       7.127  -3.659  -6.442  0.00  0.00    +0.020 A 
ATOM     24  C   UNL     1       8.514  -3.658  -6.265  0.00  0.00    +0.052 A 
ATOM     25  C   UNL     1       9.067  -3.113  -5.102  0.00  0.00    +0.020 A 
ATOM     26  C   UNL     1       8.245  -2.573  -4.139  0.00  0.00    +0.024 A 
BRANCH  24  27
ATOM     27  C   UNL     1       9.366  -4.215  -7.272  0.00  0.00    +0.099 C 
ATOM     28  N   UNL     1      10.043  -4.657  -8.070  0.00  0.00    -0.191 NA
ENDBRANCH  24  27
ENDBRANCH  19  21
ENDBRANCH  18  19
ENDBRANCH   5  18
TORSDOF 6
