REMARK  Name = ZINC04552350
REMARK  4 active torsions:
REMARK  status: ('A' for Active; 'I' for Inactive)
REMARK    1  A    between atoms: C_1  and  O_2
REMARK    2  A    between atoms: O_2  and  C_3
REMARK    3  A    between atoms: C_3  and  C_5
REMARK    4  A    between atoms: C_5  and  C_6
REMARK                            x       y       z     vdW  Elec       q    Type
REMARK                         _______ _______ _______ _____ _____    ______ ____
ROOT
ATOM      1  C   UNL     1       1.430  -2.546   2.350  0.00  0.00    +0.132 C 
ATOM      2  C   UNL     1       0.647  -2.130   3.568  0.00  0.00    +0.144 C 
ATOM      3  O   UNL     1       1.015  -2.469   4.667  0.00  0.00    -0.297 OA
ATOM      4  C   UNL     1      -0.596  -1.291   3.414  0.00  0.00    +0.075 C 
ATOM      5  C   UNL     1      -1.702  -1.848   4.313  0.00  0.00    +0.008 C 
ATOM      6  C   UNL     1      -2.986  -2.013   3.498  0.00  0.00    +0.000 C 
ATOM      7  C   UNL     1      -3.667  -3.328   3.880  0.00  0.00    +0.000 C 
ATOM      8  C   UNL     1      -4.100  -4.066   2.612  0.00  0.00    +0.000 C 
ATOM      9  C   UNL     1      -3.676  -5.533   2.706  0.00  0.00    +0.000 C 
ATOM     10  C   UNL     1      -3.067  -5.975   1.374  0.00  0.00    +0.000 C 
ATOM     11  C   UNL     1      -1.792  -6.779   1.638  0.00  0.00    +0.000 C 
ATOM     12  C   UNL     1      -0.684  -6.301   0.698  0.00  0.00    +0.000 C 
ATOM     13  C   UNL     1       0.622  -6.152   1.482  0.00  0.00    +0.008 C 
ATOM     14  C   UNL     1       1.298  -4.834   1.100  0.00  0.00    +0.075 C 
ATOM     15  C   UNL     1       1.598  -4.044   2.348  0.00  0.00    +0.144 C 
ATOM     16  O   UNL     1       1.973  -4.611   3.346  0.00  0.00    -0.297 OA
ENDROOT
BRANCH   1  17
ATOM     17  C   UNL     1       0.679  -2.115   1.088  0.00  0.00    +0.139 C 
BRANCH  17  18
ATOM     18  C   UNL     1       0.618  -0.611   1.029  0.00  0.00    +0.308 C 
ATOM     19  O   UNL     1       1.124   0.049   1.905  0.00  0.00    -0.251 OA
BRANCH  18  21
ATOM     20  C   UNL     1      -0.017   1.425   0.010  0.00  0.00    +0.280 C 
ATOM     21  O   UNL     1       0.002  -0.004   0.002  0.00  0.00    -0.468 OA
ENDBRANCH  18  21
ENDBRANCH  17  18
ENDBRANCH   1  17
TORSDOF 3
