REMARK  Name = ZINC20864808
REMARK  5 active torsions:
REMARK  status: ('A' for Active; 'I' for Inactive)
REMARK    1  A    between atoms: C_1  and  C_2
REMARK    2  A    between atoms: C_5  and  N_9
REMARK    3  A    between atoms: N_12  and  C_13
REMARK    4  A    between atoms: C_13  and  C_14
REMARK    5  A    between atoms: C_17  and  C_19
REMARK                            x       y       z     vdW  Elec       q    Type
REMARK                         _______ _______ _______ _____ _____    ______ ____
ROOT
ATOM      1  N   UNL     1      -1.136   6.313   7.561  0.00  0.00    -0.269 N 
ATOM      2  C   UNL     1      -2.056   5.875   6.678  0.00  0.00    +0.304 C 
ATOM      3  O   UNL     1      -3.053   6.536   6.461  0.00  0.00    -0.252 OA
ATOM      4  N   UNL     1      -1.869   4.705   6.036  0.00  0.00    -0.292 N 
ATOM      5  H   UNL     1      -0.188   5.769   7.683  0.00  0.00    +0.156 HD
ATOM      6  H   UNL     1      -0.967   4.107   6.233  0.00  0.00    +0.151 HD
ENDROOT
BRANCH   1  11
ATOM      7  C   UNL     1      -2.157  10.960  10.653  0.00  0.00    +0.045 C 
ATOM      8  C   UNL     1      -1.886   9.726   9.832  0.00  0.00    -0.032 A 
ATOM      9  C   UNL     1      -0.623   9.504   9.316  0.00  0.00    +0.006 A 
ATOM     10  C   UNL     1      -0.369   8.370   8.568  0.00  0.00    +0.024 A 
ATOM     11  C   UNL     1      -1.389   7.459   8.324  0.00  0.00    +0.036 A 
ATOM     12  C   UNL     1      -2.656   7.684   8.843  0.00  0.00    +0.043 A 
ATOM     13  C   UNL     1      -2.902   8.817   9.595  0.00  0.00    +0.046 A 
ATOM     14 CL   UNL     1      -4.487   9.100  10.244  0.00  0.00    -0.083 Cl
ENDBRANCH   1  11
BRANCH   4  15
ATOM     15  C   UNL     1      -2.869   4.229   5.076  0.00  0.00    +0.180 C 
BRANCH  15  16
ATOM     16  C   UNL     1      -2.425   2.908   4.503  0.00  0.00    +0.123 A 
ATOM     17  C   UNL     1      -2.720   1.691   5.011  0.00  0.00    +0.047 A 
ATOM     18  C   UNL     1      -2.119   0.737   4.175  0.00  0.00    +0.055 A 
ATOM     19  C   UNL     1      -1.474   1.430   3.190  0.00  0.00    +0.190 A 
ATOM     20  O   UNL     1      -1.675   2.746   3.406  0.00  0.00    -0.453 OA
BRANCH  19  21
ATOM     21  C   UNL     1      -0.704   0.844   2.088  0.00  0.00    +0.282 C 
ATOM     22  O   UNL     1      -0.492  -0.354   2.062  0.00  0.00    -0.267 OA
ATOM     23  N   UNL     1      -0.230   1.634   1.104  0.00  0.00    -0.291 N 
ATOM     24  C   UNL     1       0.660   1.095   0.062  0.00  0.00    +0.136 C 
ATOM     25  C   UNL     1       0.103   1.500  -1.307  0.00  0.00    +0.179 C 
ATOM     26  O   UNL     1      -0.115   2.912  -1.328  0.00  0.00    -0.377 OA
ATOM     27  C   UNL     1      -1.083   3.369  -0.380  0.00  0.00    +0.179 C 
ATOM     28  C   UNL     1      -0.587   3.060   1.037  0.00  0.00    +0.136 C 
ENDBRANCH  19  21
ENDBRANCH  15  16
ENDBRANCH   4  15
TORSDOF 4
