REMARK  Name = ZINC07813902
REMARK  4 active torsions:
REMARK  status: ('A' for Active; 'I' for Inactive)
REMARK    1  A    between atoms: C_9  and  N_23
REMARK    2  A    between atoms: C_11  and  S_13
REMARK    3  A    between atoms: S_13  and  C_14
REMARK    4  A    between atoms: C_14  and  C_15
REMARK                            x       y       z     vdW  Elec       q    Type
REMARK                         _______ _______ _______ _____ _____    ______ ____
ROOT
ATOM      1  C   UNL     1      -1.871  -0.054  -1.430  0.00  0.00    +0.001 C 
ATOM      2  C   UNL     1      -0.883   1.071  -1.127  0.00  0.00    +0.005 C 
ATOM      3  C   UNL     1      -0.063   0.738   0.114  0.00  0.00    +0.037 C 
ATOM      4  C   UNL     1      -0.769   1.259   1.362  0.00  0.00    -0.025 A 
ATOM      5  C   UNL     1      -2.103   1.427   1.419  0.00  0.00    -0.004 A 
ATOM      6  S   UNL     1      -2.432   2.012   3.062  0.00  0.00    -0.073 S 
ATOM      7  C   UNL     1      -0.767   2.051   3.670  0.00  0.00    +0.115 A 
ATOM      8  C   UNL     1      -0.008   1.600   2.573  0.00  0.00    +0.051 A 
ATOM      9  C   UNL     1       1.397   1.532   2.784  0.00  0.00    +0.129 A 
ATOM     10  N   UNL     1       1.892   1.883   3.959  0.00  0.00    -0.207 NA
ATOM     11  C   UNL     1       1.117   2.299   4.955  0.00  0.00    +0.191 A 
ATOM     12  N   UNL     1      -0.199   2.382   4.814  0.00  0.00    -0.214 NA
ATOM     13  C   UNL     1      -3.103   1.179   0.333  0.00  0.00    +0.043 C 
ATOM     14  C   UNL     1      -2.858  -0.207  -0.278  0.00  0.00    +0.005 C 
ENDROOT
BRANCH   9  15
ATOM     15  N   UNL     1       2.237   1.104   1.771  0.00  0.00    -0.343 N 
ATOM     16  H   UNL     1       1.907   0.493   1.094  0.00  0.00    +0.144 HD
ATOM     17  H   UNL     1       3.155   1.415   1.738  0.00  0.00    +0.144 HD
ENDBRANCH   9  15
BRANCH  11  18
ATOM     18  S   UNL     1       1.853   2.748   6.491  0.00  0.00    -0.077 S 
BRANCH  18  19
ATOM     19  C   UNL     1       3.595   2.444   6.107  0.00  0.00    +0.173 C 
BRANCH  19  20
ATOM     20  C   UNL     1       4.440   2.770   7.312  0.00  0.00    +0.233 C 
ATOM     21  O   UNL     1       3.915   3.169   8.330  0.00  0.00    -0.274 OA
ATOM     22  N   UNL     1       5.778   2.619   7.258  0.00  0.00    -0.224 N 
ATOM     23  C   UNL     1       6.712   2.900   8.358  0.00  0.00    +0.136 C 
ATOM     24  C   UNL     1       8.094   2.561   7.765  0.00  0.00    +0.125 C 
ATOM     25  N   UNL     1       7.791   2.124   6.394  0.00  0.00    -0.297 N 
ATOM     26  C   UNL     1       6.467   2.182   6.196  0.00  0.00    +0.309 C 
ATOM     27  O   UNL     1       5.940   1.871   5.146  0.00  0.00    -0.252 OA
ATOM     28  H   UNL     1       8.445   1.836   5.738  0.00  0.00    +0.150 HD
ENDBRANCH  19  20
ENDBRANCH  18  19
ENDBRANCH  11  18
TORSDOF 4
