REMARK  Name = ZINC07785890
REMARK  9 active torsions:
REMARK  status: ('A' for Active; 'I' for Inactive)
REMARK    1  A    between atoms: C_1  and  C_2
REMARK    2  A    between atoms: C_2  and  C_4
REMARK    3  A    between atoms: C_2  and  N_49
REMARK    4  A    between atoms: C_10  and  C_11
REMARK    5  A    between atoms: C_10  and  N_49
REMARK    6  A    between atoms: N_13  and  N_14
REMARK    7  A    between atoms: C_15  and  C_16
REMARK    8  A    between atoms: C_15  and  C_17
REMARK    9  A    between atoms: C_26  and  O_27
REMARK                            x       y       z     vdW  Elec       q    Type
REMARK                         _______ _______ _______ _____ _____    ______ ____
ROOT
ATOM      1  C   UNL     1       7.058   5.600  -0.035  0.00  0.00    +0.215 C 
ATOM      2  O   UNL     1       7.105   4.388  -0.042  0.00  0.00    -0.276 OA
ATOM      3  N   UNL     1       5.865   6.228  -0.021  0.00  0.00    -0.208 N 
ATOM      4  H   UNL     1       5.827   7.197  -0.015  0.00  0.00    +0.177 HD
ENDROOT
BRANCH   3   5
ATOM      5  N   UNL     1       4.680   5.481  -0.014  0.00  0.00    -0.184 NA
ATOM      6  C   UNL     1       3.531   6.085   0.000  0.00  0.00    +0.067 C 
ATOM      7  C   UNL     1       3.472   7.591   0.009  0.00  0.00    +0.068 C 
BRANCH   6   8
ATOM      8  C   UNL     1       2.285   5.300   0.007  0.00  0.00    +0.039 A 
ATOM      9  C   UNL     1       1.043   5.959   0.022  0.00  0.00    +0.014 A 
ATOM     10  C   UNL     1      -0.118   5.258   0.029  0.00  0.00    +0.009 A 
ATOM     11  C   UNL     1      -0.095   3.850   0.023  0.00  0.00    -0.014 A 
ATOM     12  C   UNL     1      -1.287   3.107   0.030  0.00  0.00    +0.008 A 
ATOM     13  C   UNL     1      -1.234   1.746   0.017  0.00  0.00    +0.001 A 
ATOM     14  C   UNL     1      -0.013   1.076   0.008  0.00  0.00    +0.001 A 
ATOM     15  C   UNL     1       1.163   1.763   0.000  0.00  0.00    +0.012 A 
ATOM     16  C   UNL     1       1.147   3.168   0.008  0.00  0.00    +0.024 A 
ATOM     17  C   UNL     1       2.345   3.909  -0.000  0.00  0.00    +0.133 A 
BRANCH  17  18
ATOM     18  O   UNL     1       3.543   3.274  -0.014  0.00  0.00    -0.506 OA
ATOM     19  H   UNL     1       3.883   3.094  -0.902  0.00  0.00    +0.292 HD
ENDBRANCH  17  18
ENDBRANCH   6   8
ENDBRANCH   3   5
BRANCH   1  20
ATOM     20  C   UNL     1       8.332   6.404  -0.042  0.00  0.00    +0.017 C 
BRANCH  20  21
ATOM     21  N   UNL     1       9.485   5.483  -0.058  0.00  0.00    +0.389 N 
ATOM     22  H   UNL     1       9.453   4.887   0.777  0.00  0.00    -0.084 HD
ATOM     23  H   UNL     1       9.438   4.896  -0.899  0.00  0.00    -0.084 HD
BRANCH  21  25
ATOM     24  C   UNL     1      11.136   6.605   1.370  0.00  0.00    -0.009 C 
ATOM     25  C   UNL     1      10.748   6.244  -0.066  0.00  0.00    -0.043 C 
BRANCH  25  26
ATOM     26  C   UNL     1      11.832   5.396  -0.680  0.00  0.00    -0.062 A 
ATOM     27  C   UNL     1      11.902   4.047  -0.391  0.00  0.00    +0.002 A 
ATOM     28  C   UNL     1      12.894   3.268  -0.959  0.00  0.00    +0.000 A 
ATOM     29  C   UNL     1      13.821   3.842  -1.808  0.00  0.00    +0.000 A 
ATOM     30  C   UNL     1      13.754   5.193  -2.094  0.00  0.00    +0.000 A 
ATOM     31  C   UNL     1      12.760   5.970  -1.530  0.00  0.00    +0.002 A 
ENDBRANCH  25  26
ENDBRANCH  21  25
ENDBRANCH  20  21
ENDBRANCH   1  20
TORSDOF 7
