REMARK  Name = ZINC13423260
REMARK  5 active torsions:
REMARK  status: ('A' for Active; 'I' for Inactive)
REMARK    1  A    between atoms: C_1  and  N_2
REMARK    2  A    between atoms: C_6  and  C_8
REMARK    3  A    between atoms: C_8  and  O_9
REMARK    4  A    between atoms: O_9  and  C_10
REMARK    5  A    between atoms: C_13  and  C_17
REMARK                            x       y       z     vdW  Elec       q    Type
REMARK                         _______ _______ _______ _____ _____    ______ ____
ROOT
ATOM      1  O   UNL     1      -0.687   1.964   1.186  0.00  0.00    -0.480 OA
ENDROOT
BRANCH   1   2
ATOM      2  C   UNL     1      -0.793   3.307   1.348  0.00  0.00    +0.158 A 
ATOM      3  C   UNL     1       0.200   4.004   2.029  0.00  0.00    +0.085 A 
ATOM      4  C   UNL     1       0.099   5.368   2.192  0.00  0.00    +0.039 A 
ATOM      5  C   UNL     1      -1.009   6.051   1.680  0.00  0.00    +0.066 A 
ATOM      6  C   UNL     1      -2.007   5.346   1.001  0.00  0.00    +0.039 A 
ATOM      7  C   UNL     1      -1.896   3.983   0.838  0.00  0.00    +0.085 A 
ATOM      8 CL   UNL     1      -3.136   3.107  -0.005  0.00  0.00    -0.080 Cl
ATOM      9 CL   UNL     1       1.572   3.154   2.669  0.00  0.00    -0.080 Cl
BRANCH   5  10
ATOM     10  C   UNL     1      -1.124   7.511   1.857  0.00  0.00    +0.387 C 
ATOM     11  O   UNL     1      -2.088   8.102   1.412  0.00  0.00    -0.241 OA
ATOM     12  O   UNL     1      -0.161   8.188   2.512  0.00  0.00    -0.241 OA
ENDBRANCH   5  10
ENDBRANCH   1   2
BRANCH   1  13
ATOM     13  C   UNL     1      -0.018   1.503   0.010  0.00  0.00    +0.325 C 
BRANCH  13  19
ATOM     14  C   UNL     1       1.206  -4.137  -2.053  0.00  0.00    +0.129 C 
ATOM     15  N   UNL     1       1.186  -2.673  -2.045  0.00  0.00    -0.302 N 
ATOM     16  C   UNL     1       0.603  -2.012  -1.025  0.00  0.00    +0.306 C 
ATOM     17  O   UNL     1       0.094  -2.632  -0.112  0.00  0.00    -0.252 OA
ATOM     18  N   UNL     1       0.585  -0.664  -1.018  0.00  0.00    -0.237 N 
ATOM     19  C   UNL     1       0.002  -0.004   0.002  0.00  0.00    +0.258 C 
ATOM     20  O   UNL     1      -0.506  -0.622   0.913  0.00  0.00    -0.272 OA
ATOM     21  H   UNL     1       1.593  -2.178  -2.774  0.00  0.00    +0.150 HD
ATOM     22  H   UNL     1       0.992  -0.170  -1.747  0.00  0.00    +0.159 HD
ENDBRANCH  13  19
ENDBRANCH   1  13
TORSDOF 4
