REMARK  Name = ZINC67581558
REMARK  9 active torsions:
REMARK  status: ('A' for Active; 'I' for Inactive)
REMARK    1  A    between atoms: C_1  and  C_2
REMARK    2  A    between atoms: C_7  and  N_12
REMARK    3  A    between atoms: C_9  and  C_11
REMARK    4  A    between atoms: N_15  and  C_16
REMARK    5  A    between atoms: C_16  and  C_17
REMARK    6  A    between atoms: C_17  and  C_19
REMARK    7  A    between atoms: C_17  and  O_27
REMARK    8  A    between atoms: C_19  and  N_20
REMARK    9  A    between atoms: C_23  and  C_26
REMARK                            x       y       z     vdW  Elec       q    Type
REMARK                         _______ _______ _______ _____ _____    ______ ____
ROOT
ATOM      1  N   UNL     1       3.096  -0.631   2.228  0.00  0.00    -0.296 N 
ATOM      2  C   UNL     1       4.092   0.101   2.764  0.00  0.00    +0.300 C 
ATOM      3  O   UNL     1       4.421   1.152   2.247  0.00  0.00    -0.253 OA
ATOM      4  N   UNL     1       4.725  -0.330   3.873  0.00  0.00    -0.297 N 
ATOM      5  H   UNL     1       2.834  -1.469   2.641  0.00  0.00    +0.151 HD
ATOM      6  H   UNL     1       4.463  -1.168   4.286  0.00  0.00    +0.150 HD
ENDROOT
BRANCH   1  12
ATOM      7  C   UNL     1       0.185   1.253  -0.258  0.00  0.00    +0.008 C 
ATOM      8  C   UNL     1       0.285  -0.274  -0.289  0.00  0.00    -0.009 C 
ATOM      9  C   UNL     1       1.072  -0.708  -1.527  0.00  0.00    +0.003 C 
ATOM     10  C   UNL     1       2.478  -0.106  -1.475  0.00  0.00    +0.002 C 
ATOM     11  C   UNL     1       3.196  -0.597  -0.215  0.00  0.00    +0.022 C 
ATOM     12  C   UNL     1       2.408  -0.162   1.022  0.00  0.00    +0.078 C 
ATOM     13  C   UNL     1       1.003  -0.764   0.970  0.00  0.00    +0.009 C 
ATOM     14  C   UNL     1       0.215  -0.329   2.208  0.00  0.00    +0.009 C 
ENDBRANCH   1  12
BRANCH   4  15
ATOM     15  C   UNL     1       5.808   0.466   4.455  0.00  0.00    +0.135 C 
BRANCH  15  16
ATOM     16  C   UNL     1       6.351  -0.243   5.698  0.00  0.00    +0.115 C 
BRANCH  16  17
ATOM     17  O   UNL     1       5.302  -0.394   6.657  0.00  0.00    -0.392 OA
ATOM     18  H   UNL     1       4.915   0.442   6.951  0.00  0.00    +0.210 HD
ENDBRANCH  16  17
BRANCH  16  19
ATOM     19  C   UNL     1       7.482   0.589   6.306  0.00  0.00    -0.046 C 
BRANCH  19  20
ATOM     20  N   UNL     1       8.013  -0.100   7.490  0.00  0.00    +0.381 N 
ATOM     21  C   UNL     1       8.990   0.767   8.161  0.00  0.00    -0.078 C 
ATOM     22  C   UNL     1       9.486   0.089   9.439  0.00  0.00    -0.016 C 
ATOM     23  C   UNL     1      10.148  -1.245   9.079  0.00  0.00    -0.018 C 
ATOM     24  C   UNL     1       9.143  -2.111   8.315  0.00  0.00    -0.016 C 
ATOM     25  C   UNL     1       8.659  -1.351   7.078  0.00  0.00    -0.078 C 
ATOM     26  C   UNL     1      10.576  -1.966  10.359  0.00  0.00    +0.007 C 
ATOM     27  H   UNL     1       7.257  -0.306   8.126  0.00  0.00    -0.082 HD
ENDBRANCH  19  20
ENDBRANCH  16  19
ENDBRANCH  15  16
ENDBRANCH   4  15
TORSDOF 6
