REMARK  Name = ZINC60366692
REMARK  8 active torsions:
REMARK  status: ('A' for Active; 'I' for Inactive)
REMARK    1  A    between atoms: C_1  and  C_2
REMARK    2  A    between atoms: C_9  and  C_11
REMARK    3  A    between atoms: C_11  and  C_13
REMARK    4  A    between atoms: C_11  and  N_14
REMARK    5  A    between atoms: N_14  and  S_15
REMARK    6  A    between atoms: S_15  and  N_18
REMARK    7  A    between atoms: N_18  and  C_19
REMARK    8  A    between atoms: N_18  and  C_20
REMARK                            x       y       z     vdW  Elec       q    Type
REMARK                         _______ _______ _______ _____ _____    ______ ____
ROOT
ATOM      1  N   UNL     1       2.451   0.923   4.003  0.00  0.00    -0.168 NA
ATOM      2  H   UNL     1       2.390   1.837   3.685  0.00  0.00    +0.150 HD
ENDROOT
BRANCH   1   3
ATOM      3  S   UNL     1       2.832   0.620   5.586  0.00  0.00    +0.098 S 
ATOM      4  O   UNL     1       3.896  -0.323   5.574  0.00  0.00    -0.141 OA
ATOM      5  O   UNL     1       2.941   1.883   6.226  0.00  0.00    -0.141 OA
BRANCH   3   6
ATOM      6  N   UNL     1       1.530  -0.145   6.265  0.00  0.00    -0.167 NA
ATOM      7  C   UNL     1       1.501  -1.607   6.351  0.00  0.00    +0.133 C 
BRANCH   6   8
ATOM      8  C   UNL     1       0.406   0.641   6.781  0.00  0.00    +0.081 C 
ATOM      9  C   UNL     1       0.272   0.411   8.288  0.00  0.00    +0.020 C 
ATOM     10  C   UNL     1      -0.902   1.232   8.826  0.00  0.00    +0.002 C 
ATOM     11  C   UNL     1      -2.192   0.797   8.127  0.00  0.00    +0.000 C 
ATOM     12  C   UNL     1      -2.057   1.027   6.620  0.00  0.00    +0.002 C 
ATOM     13  C   UNL     1      -0.884   0.207   6.082  0.00  0.00    +0.020 C 
ENDBRANCH   6   8
ENDBRANCH   3   6
ENDBRANCH   1   3
BRANCH   1  14
ATOM     14  C   UNL     1       2.205  -0.191   3.083  0.00  0.00    +0.160 C 
ATOM     15  C   UNL     1       3.500  -0.535   2.343  0.00  0.00    +0.035 C 
BRANCH  14  23
ATOM     16  C   UNL     1      -0.434   1.150   0.128  0.00  0.00    +0.028 C 
ATOM     17  C   UNL     1      -0.460  -0.366   0.330  0.00  0.00    +0.073 C 
ATOM     18  C   UNL     1      -0.071  -1.065  -0.977  0.00  0.00    +0.022 C 
ATOM     19  C   UNL     1       0.037  -2.572  -0.732  0.00  0.00    +0.003 C 
ATOM     20  C   UNL     1       1.129  -2.845   0.305  0.00  0.00    +0.019 C 
ATOM     21  C   UNL     1       0.753  -2.167   1.626  0.00  0.00    +0.108 C 
ATOM     22  N   UNL     1       0.503  -0.741   1.375  0.00  0.00    -0.297 N 
ATOM     23  C   UNL     1       1.147   0.206   2.086  0.00  0.00    +0.234 C 
ATOM     24  O   UNL     1       0.875   1.377   1.923  0.00  0.00    -0.274 OA
ENDBRANCH  14  23
ENDBRANCH   1  14
TORSDOF 5
