REMARK  Name = ZINC01515227
REMARK  8 active torsions:
REMARK  status: ('A' for Active; 'I' for Inactive)
REMARK    1  A    between atoms: C_1  and  C_2
REMARK    2  A    between atoms: C_2  and  C_3
REMARK    3  A    between atoms: C_3  and  N_4
REMARK    4  A    between atoms: C_11  and  C_23
REMARK    5  A    between atoms: C_13  and  C_19
REMARK    6  A    between atoms: C_13  and  C_21
REMARK    7  A    between atoms: C_14  and  N_18
REMARK    8  A    between atoms: C_15  and  C_16
REMARK                            x       y       z     vdW  Elec       q    Type
REMARK                         _______ _______ _______ _____ _____    ______ ____
ROOT
ATOM      1  N   UNL     1       0.762  -1.980   1.234  0.00  0.00    -0.298 NA
ATOM      2  C   UNL     1       1.588  -2.491   0.125  0.00  0.00    +0.112 C 
ATOM      3  C   UNL     1       1.415  -3.989   0.081  0.00  0.00    -0.007 C 
ATOM      4  C   UNL     1       1.223  -4.664   1.199  0.00  0.00    -0.026 C 
ATOM      5  C   UNL     1       1.218  -4.016   2.554  0.00  0.00    +0.044 C 
ATOM      6  C   UNL     1       1.249  -2.505   2.512  0.00  0.00    +0.093 C 
ATOM      7  C   UNL     1       0.012  -4.546   3.330  0.00  0.00    +0.068 C 
ATOM      8  C   UNL     1       0.178  -6.053   3.532  0.00  0.00    +0.188 C 
ATOM      9  C   UNL     1       0.493  -6.756   2.247  0.00  0.00    +0.054 C 
ATOM     10  C   UNL     1       0.993  -6.129   1.151  0.00  0.00    +0.074 C 
ENDROOT
BRANCH   7  11
ATOM     11  C   UNL     1      -0.067  -3.861   4.670  0.00  0.00    -0.034 A 
ATOM     12  C   UNL     1      -1.184  -3.123   5.016  0.00  0.00    +0.011 A 
ATOM     13  C   UNL     1      -1.223  -2.519   6.229  0.00  0.00    +0.045 A 
ATOM     14  S   UNL     1       0.352  -2.989   6.926  0.00  0.00    -0.105 S 
ATOM     15  C   UNL     1       0.954  -3.963   5.556  0.00  0.00    +0.049 A 
ENDBRANCH   7  11
BRANCH   9  16
ATOM     16  N   UNL     1       0.267  -8.102   2.174  0.00  0.00    -0.358 N 
ATOM     17  H   UNL     1      -0.089  -8.576   2.942  0.00  0.00    +0.142 HD
ATOM     18  H   UNL     1       0.462  -8.583   1.355  0.00  0.00    +0.142 HD
ENDBRANCH   9  16
BRANCH  10  19
ATOM     19  C   UNL     1       1.294  -6.872  -0.035  0.00  0.00    +0.101 C 
ATOM     20  N   UNL     1       1.532  -7.462  -0.977  0.00  0.00    -0.191 NA
ENDBRANCH  10  19
BRANCH   8  21
ATOM     21  C   UNL     1       1.270  -6.292   4.490  0.00  0.00    +0.091 C 
ATOM     22  N   UNL     1       2.112  -6.476   5.230  0.00  0.00    -0.194 NA
ENDBRANCH   8  21
BRANCH   8  23
ATOM     23  C   UNL     1      -1.071  -6.603   4.085  0.00  0.00    +0.091 C 
ATOM     24  N   UNL     1      -2.035  -7.027   4.512  0.00  0.00    -0.194 NA
ENDBRANCH   8  23
BRANCH   1  25
ATOM     25  C   UNL     1       0.742  -0.511   1.242  0.00  0.00    +0.084 C 
BRANCH  25  27
ATOM     26  C   UNL     1      -0.019   1.526   0.010  0.00  0.00    +0.005 C 
ATOM     27  C   UNL     1       0.002  -0.004   0.002  0.00  0.00    +0.012 C 
ENDBRANCH  25  27
ENDBRANCH   1  25
TORSDOF 7
