REMARK  Name = ZINC00121676
REMARK  6 active torsions:
REMARK  status: ('A' for Active; 'I' for Inactive)
REMARK    1  A    between atoms: C_1  and  C_2
REMARK    2  A    between atoms: C_3  and  C_9
REMARK    3  A    between atoms: N_4  and  C_8
REMARK    4  A    between atoms: N_11  and  N_12
REMARK    5  A    between atoms: N_12  and  C_13
REMARK    6  A    between atoms: C_15  and  C_20
REMARK                            x       y       z     vdW  Elec       q    Type
REMARK                         _______ _______ _______ _____ _____    ______ ____
ROOT
ATOM      1  N   UNL     1       0.077   2.804   4.700  0.00  0.00    -0.263 N 
ATOM      2  H   UNL     1      -0.383   3.106   5.499  0.00  0.00    +0.170 HD
ENDROOT
BRANCH   1   3
ATOM      3  C   UNL     1      -0.641   2.578   3.523  0.00  0.00    +0.063 A 
ATOM      4  C   UNL     1       0.017   2.146   2.378  0.00  0.00    +0.038 A 
ATOM      5  C   UNL     1      -0.696   1.924   1.216  0.00  0.00    +0.057 A 
ATOM      6  C   UNL     1      -2.062   2.137   1.189  0.00  0.00    +0.014 A 
ATOM      7  C   UNL     1      -2.721   2.562   2.328  0.00  0.00    +0.022 A 
ATOM      8  C   UNL     1      -2.015   2.786   3.494  0.00  0.00    +0.063 A 
ATOM      9 CL   UNL     1      -2.842   3.326   4.921  0.00  0.00    -0.082 Cl
BRANCH   5  10
ATOM     10  C   UNL     1       0.017   1.454  -0.025  0.00  0.00    +0.417 C 
ATOM     11  F   UNL     1       0.041   0.056  -0.049  0.00  0.00    -0.166 F 
ATOM     12  F   UNL     1       1.328   1.943  -0.023  0.00  0.00    -0.166 F 
ATOM     13  F   UNL     1      -0.655   1.929  -1.157  0.00  0.00    -0.166 F 
ENDBRANCH   5  10
ENDBRANCH   1   3
BRANCH   1  16
ATOM     14  C   UNL     1       2.155   2.811   5.863  0.00  0.00    +0.280 C 
ATOM     15  O   UNL     1       1.596   3.278   6.835  0.00  0.00    -0.267 OA
ATOM     16  N   UNL     1       1.462   2.593   4.727  0.00  0.00    -0.231 N 
ATOM     17  H   UNL     1       1.922   2.291   3.929  0.00  0.00    +0.173 HD
BRANCH  14  20
ATOM     18  C   UNL     1       4.584   4.836   5.531  0.00  0.00    +0.054 C 
ATOM     19  C   UNL     1       4.644   3.352   5.783  0.00  0.00    +0.067 A 
ATOM     20  C   UNL     1       3.599   2.479   5.926  0.00  0.00    +0.148 A 
ATOM     21  N   UNL     1       4.141   1.250   6.131  0.00  0.00    -0.202 N 
ATOM     22  O   UNL     1       5.350   1.291   6.131  0.00  0.00    -0.334 OA
ATOM     23  C   UNL     1       5.795   2.539   5.929  0.00  0.00    +0.362 A 
ATOM     24  O   UNL     1       6.958   2.901   5.876  0.00  0.00    -0.243 OA
ATOM     25  C   UNL     1       3.358   0.028   6.326  0.00  0.00    +0.192 C 
ENDBRANCH  14  20
ENDBRANCH   1  16
TORSDOF 4
