REMARK  Name = ZINC28358979
REMARK  12 active torsions:
REMARK  status: ('A' for Active; 'I' for Inactive)
REMARK    1  A    between atoms: C_1  and  C_2
REMARK    2  A    between atoms: C_2  and  C_4
REMARK    3  A    between atoms: C_2  and  N_17
REMARK    4  A    between atoms: N_6  and  C_7
REMARK    5  A    between atoms: C_10  and  C_13
REMARK    6  A    between atoms: C_13  and  C_14
REMARK    7  A    between atoms: C_13  and  C_15
REMARK    8  A    between atoms: C_13  and  C_16
REMARK    9  A    between atoms: N_17  and  C_18
REMARK   10  A    between atoms: C_21  and  O_24
REMARK   11  A    between atoms: O_24  and  C_25
REMARK   12  A    between atoms: C_25  and  C_26
REMARK                            x       y       z     vdW  Elec       q    Type
REMARK                         _______ _______ _______ _____ _____    ______ ____
ROOT
ATOM      1  C   UNL     1       1.423   1.600  -0.005  0.00  0.00    +0.038 C 
ATOM      2  C   UNL     1      -0.016   1.080   0.008  0.00  0.00    +0.154 C 
ENDROOT
BRANCH   2   3
ATOM      3  C   UNL     1      -0.717   1.573   1.248  0.00  0.00    +0.237 C 
ATOM      4  O   UNL     1      -1.709   2.264   1.150  0.00  0.00    -0.273 OA
ATOM      5  N   UNL     1      -0.242   1.246   2.466  0.00  0.00    -0.284 N 
ATOM      6  H   UNL     1       0.612   0.558   2.557  0.00  0.00    +0.155 HD
BRANCH   5   7
ATOM      7  C   UNL     1      -0.833   1.782   3.615  0.00  0.00    +0.033 A 
ATOM      8  C   UNL     1      -0.053   2.086   4.723  0.00  0.00    +0.023 A 
ATOM      9  C   UNL     1      -0.639   2.619   5.854  0.00  0.00    +0.006 A 
ATOM     10  C   UNL     1      -2.003   2.840   5.888  0.00  0.00    -0.042 A 
ATOM     11  C   UNL     1      -2.784   2.534   4.788  0.00  0.00    +0.006 A 
ATOM     12  C   UNL     1      -2.203   2.006   3.652  0.00  0.00    +0.023 A 
BRANCH  10  13
ATOM     13  C   UNL     1      -2.641   3.417   7.126  0.00  0.00    -0.013 C 
ATOM     14  C   UNL     1      -3.679   2.434   7.670  0.00  0.00    +0.015 C 
ATOM     15  C   UNL     1      -1.565   3.663   8.186  0.00  0.00    +0.015 C 
ATOM     16  C   UNL     1      -3.325   4.740   6.777  0.00  0.00    +0.015 C 
ENDBRANCH  10  13
ENDBRANCH   5   7
ENDBRANCH   2   3
BRANCH   2  17
ATOM     17  N   UNL     1      -0.723   1.569  -1.179  0.00  0.00    -0.333 N 
ATOM     18  H   UNL     1      -1.330   2.483  -1.120  0.00  0.00    +0.147 HD
BRANCH  17  19
ATOM     19  C   UNL     1      -0.624   0.871  -2.388  0.00  0.00    +0.028 A 
ATOM     20  C   UNL     1       0.148  -0.281  -2.465  0.00  0.00    +0.026 A 
ATOM     21  C   UNL     1       0.240  -0.971  -3.657  0.00  0.00    +0.047 A 
ATOM     22  C   UNL     1      -0.429  -0.509  -4.781  0.00  0.00    +0.121 A 
ATOM     23  C   UNL     1      -1.195   0.645  -4.706  0.00  0.00    +0.047 A 
ATOM     24  C   UNL     1      -1.293   1.334  -3.513  0.00  0.00    +0.026 A 
BRANCH  22  25
ATOM     25  O   UNL     1      -0.333  -1.187  -5.956  0.00  0.00    -0.483 OA
BRANCH  25  26
ATOM     26  C   UNL     1       0.473  -2.366  -5.960  0.00  0.00    +0.324 C 
BRANCH  26  27
ATOM     27  C   UNL     1       0.461  -2.978  -7.338  0.00  0.00    +0.248 C 
ATOM     28  O   UNL     1      -0.176  -2.455  -8.228  0.00  0.00    -0.272 OA
ATOM     29  N   UNL     1       1.157  -4.106  -7.580  0.00  0.00    -0.327 N 
ATOM     30  H   UNL     1       1.147  -4.553  -8.585  0.00  0.00    +0.145 HD
ATOM     31  H   UNL     1       1.734  -4.580  -6.773  0.00  0.00    +0.145 HD
ENDBRANCH  26  27
ENDBRANCH  25  26
ENDBRANCH  22  25
ENDBRANCH  17  19
ENDBRANCH   2  17
TORSDOF 8
