REMARK  Name = ZINC05180344
REMARK  7 active torsions:
REMARK  status: ('A' for Active; 'I' for Inactive)
REMARK    1  A    between atoms: C_4  and  O_7
REMARK    2  A    between atoms: O_7  and  C_8
REMARK    3  A    between atoms: C_8  and  C_9
REMARK    4  A    between atoms: C_9  and  C_11
REMARK    5  A    between atoms: C_9  and  O_28
REMARK    6  A    between atoms: C_11  and  N_12
REMARK    7  A    between atoms: N_21  and  C_22
REMARK                            x       y       z     vdW  Elec       q    Type
REMARK                         _______ _______ _______ _____ _____    ______ ____
ROOT
ATOM      1  N   UNL     1      -2.956  -1.828   1.118  0.00  0.00    -0.317 N 
ATOM      2  C   UNL     1      -3.126  -2.575   2.273  0.00  0.00    +0.058 A 
ATOM      3  C   UNL     1      -4.302  -3.199   2.721  0.00  0.00    +0.027 A 
ATOM      4  C   UNL     1      -4.320  -3.912   3.897  0.00  0.00    +0.002 A 
ATOM      5  C   UNL     1      -3.183  -4.038   4.676  0.00  0.00    +0.001 A 
ATOM      6  C   UNL     1      -2.010  -3.433   4.260  0.00  0.00    +0.017 A 
ATOM      7  C   UNL     1      -1.992  -2.721   3.084  0.00  0.00    +0.039 A 
ATOM      8  S   UNL     1      -0.734  -1.823   2.208  0.00  0.00    -0.050 S 
ATOM      9  C   UNL     1      -1.729  -1.283   0.828  0.00  0.00    +0.170 A 
ATOM     10  N   UNL     1      -1.377  -0.558  -0.201  0.00  0.00    -0.258 NA
ENDROOT
BRANCH  10  11
ATOM     11  C   UNL     1      -0.000  -0.072  -0.319  0.00  0.00    +0.108 C 
ATOM     12  C   UNL     1      -0.001   1.457  -0.358  0.00  0.00    +0.027 C 
ATOM     13  C   UNL     1       1.437   1.965  -0.481  0.00  0.00    +0.002 C 
ATOM     14  C   UNL     1       2.062   1.422  -1.767  0.00  0.00    +0.000 C 
ATOM     15  C   UNL     1       2.063  -0.108  -1.728  0.00  0.00    +0.002 C 
ATOM     16  C   UNL     1       0.625  -0.615  -1.605  0.00  0.00    +0.027 C 
ENDBRANCH  10  11
BRANCH   1  17
ATOM     17  C   UNL     1      -4.084  -1.620   0.207  0.00  0.00    +0.159 C 
BRANCH  17  18
ATOM     18  C   UNL     1      -4.465  -0.138   0.198  0.00  0.00    +0.171 C 
BRANCH  18  19
ATOM     19  O   UNL     1      -3.402   0.624  -0.378  0.00  0.00    -0.387 OA
ATOM     20  H   UNL     1      -3.191   0.378  -1.289  0.00  0.00    +0.210 HD
ENDBRANCH  18  19
BRANCH  18  21
ATOM     21  C   UNL     1      -5.738   0.056  -0.629  0.00  0.00    +0.262 C 
BRANCH  21  22
ATOM     22  O   UNL     1      -6.160   1.418  -0.543  0.00  0.00    -0.489 OA
BRANCH  22  26
ATOM     23  C   UNL     1      -9.572   2.459  -2.615  0.00  0.00    +0.000 A 
ATOM     24  C   UNL     1      -8.892   3.413  -1.880  0.00  0.00    +0.004 A 
ATOM     25  C   UNL     1      -7.750   3.067  -1.185  0.00  0.00    +0.045 A 
ATOM     26  C   UNL     1      -7.284   1.761  -1.225  0.00  0.00    +0.121 A 
ATOM     27  C   UNL     1      -7.963   0.807  -1.968  0.00  0.00    +0.045 A 
ATOM     28  C   UNL     1      -9.109   1.157  -2.657  0.00  0.00    +0.004 A 
ENDBRANCH  22  26
ENDBRANCH  21  22
ENDBRANCH  18  21
ENDBRANCH  17  18
ENDBRANCH   1  17
TORSDOF 7
