REMARK  Name = ZINC33088215
REMARK  9 active torsions:
REMARK  status: ('A' for Active; 'I' for Inactive)
REMARK    1  A    between atoms: C_1  and  C_2
REMARK    2  A    between atoms: C_14  and  C_16
REMARK    3  A    between atoms: C_17  and  C_23
REMARK    4  A    between atoms: C_26  and  O_33
REMARK    5  A    between atoms: C_27  and  O_31
REMARK    6  A    between atoms: C_28  and  O_29
REMARK    7  A    between atoms: O_29  and  C_30
REMARK    8  A    between atoms: O_31  and  C_32
REMARK    9  A    between atoms: O_33  and  C_34
REMARK                            x       y       z     vdW  Elec       q    Type
REMARK                         _______ _______ _______ _____ _____    ______ ____
ROOT
ATOM      1  C   UNL     1       4.932  -5.934  -1.559  0.00  0.00    +0.044 C 
ATOM      2  C   UNL     1       4.169  -4.664  -1.286  0.00  0.00    -0.049 A 
ATOM      3  C   UNL     1       2.789  -4.691  -1.148  0.00  0.00    +0.005 A 
ATOM      4  C   UNL     1       2.071  -3.551  -0.899  0.00  0.00    +0.029 A 
ATOM      5  C   UNL     1       2.721  -2.301  -0.774  0.00  0.00    +0.081 A 
ATOM      6  C   UNL     1       4.127  -2.311  -0.920  0.00  0.00    +0.041 A 
ATOM      7  C   UNL     1       4.838  -3.459  -1.169  0.00  0.00    +0.020 A 
ATOM      8  S   UNL     1       4.542  -0.598  -0.699  0.00  0.00    -0.048 S 
ATOM      9  C   UNL     1       2.880   0.003  -0.436  0.00  0.00    +0.196 A 
ATOM     10  N   UNL     1       2.168  -1.095  -0.526  0.00  0.00    -0.221 NA
ATOM     11  N   UNL     1       2.451   1.303  -0.192  0.00  0.00    -0.193 N 
ATOM     12  C   UNL     1       1.174   1.699   0.000  0.00  0.00    +0.135 A 
ATOM     13  C   UNL     1       1.190   3.049   0.230  0.00  0.00    +0.023 A 
ATOM     14  C   UNL     1       2.507   3.481   0.153  0.00  0.00    +0.066 A 
ATOM     15  N   UNL     1       3.268   2.442  -0.101  0.00  0.00    -0.168 NA
ATOM     16  C   UNL     1       2.982   4.900   0.330  0.00  0.00    +0.068 C 
ATOM     17  C   UNL     1      -0.065   3.833   0.516  0.00  0.00    +0.067 C 
ATOM     18  C   UNL     1      -1.238   3.132  -0.178  0.00  0.00    +0.109 C 
ATOM     19  C   UNL     1      -1.178   1.644   0.016  0.00  0.00    +0.219 C 
ATOM     20  O   UNL     1      -2.212   1.033   0.191  0.00  0.00    -0.275 OA
ATOM     21  N   UNL     1      -0.011   0.966   0.007  0.00  0.00    -0.270 N 
ATOM     22  H   UNL     1       0.022  -0.134   0.006  0.00  0.00    +0.156 HD
ENDROOT
BRANCH  17  23
ATOM     23  C   UNL     1       0.078   5.234  -0.019  0.00  0.00    +0.006 A 
ATOM     24  C   UNL     1       0.296   5.439  -1.369  0.00  0.00    +0.011 A 
ATOM     25  C   UNL     1       0.427   6.723  -1.864  0.00  0.00    +0.050 A 
ATOM     26  C   UNL     1       0.342   7.811  -1.008  0.00  0.00    +0.165 A 
ATOM     27  C   UNL     1       0.122   7.609   0.349  0.00  0.00    +0.204 A 
ATOM     28  C   UNL     1      -0.015   6.317   0.843  0.00  0.00    +0.169 A 
BRANCH  28  29
ATOM     29  O   UNL     1      -0.234   6.114   2.170  0.00  0.00    -0.491 OA
ATOM     30  C   UNL     1       0.918   5.966   3.002  0.00  0.00    +0.277 C 
ENDBRANCH  28  29
BRANCH  27  31
ATOM     31  O   UNL     1       0.037   8.674   1.192  0.00  0.00    -0.488 OA
ATOM     32  C   UNL     1      -1.260   9.236   1.399  0.00  0.00    +0.277 C 
ENDBRANCH  27  31
BRANCH  26  33
ATOM     33  O   UNL     1       0.472   9.073  -1.497  0.00  0.00    -0.491 OA
ATOM     34  C   UNL     1       0.696   9.205  -2.902  0.00  0.00    +0.277 C 
ENDBRANCH  26  33
ENDBRANCH  17  23
TORSDOF 4
