REMARK  Name = ZINC43560164
REMARK  6 active torsions:
REMARK  status: ('A' for Active; 'I' for Inactive)
REMARK    1  A    between atoms: C_1  and  C_2
REMARK    2  A    between atoms: C_5  and  N_21
REMARK    3  A    between atoms: C_6  and  C_8
REMARK    4  A    between atoms: C_10  and  C_13
REMARK    5  A    between atoms: C_13  and  C_14
REMARK    6  A    between atoms: C_19  and  C_20
REMARK                            x       y       z     vdW  Elec       q    Type
REMARK                         _______ _______ _______ _____ _____    ______ ____
ROOT
ATOM      1  C   UNL     1       0.394  -3.118   2.244  0.00  0.00    +0.260 A 
ATOM      2  N   UNL     1       0.499  -2.740   3.499  0.00  0.00    -0.191 NA
ATOM      3  C   UNL     1       0.664  -3.807   4.284  0.00  0.00    +0.176 A 
ATOM      4  N   UNL     1       0.668  -4.882   3.548  0.00  0.00    -0.061 NA
ATOM      5  O   UNL     1       0.486  -4.460   2.205  0.00  0.00    -0.333 OA
ENDROOT
BRANCH   1  11
ATOM      6  C   UNL     1       1.653   0.981  -0.301  0.00  0.00    +0.044 C 
ATOM      7  C   UNL     1       0.804  -0.255  -0.147  0.00  0.00    -0.050 A 
ATOM      8  C   UNL     1      -0.157  -0.553  -1.099  0.00  0.00    +0.005 A 
ATOM      9  C   UNL     1      -0.941  -1.681  -0.971  0.00  0.00    +0.024 A 
ATOM     10  C   UNL     1      -0.770  -2.527   0.117  0.00  0.00    +0.037 A 
ATOM     11  C   UNL     1       0.203  -2.228   1.083  0.00  0.00    +0.060 A 
ATOM     12  C   UNL     1       0.992  -1.086   0.936  0.00  0.00    +0.018 A 
BRANCH  10  13
ATOM     13  N   UNL     1      -1.560  -3.665   0.250  0.00  0.00    -0.357 N 
ATOM     14  H   UNL     1      -2.167  -3.919  -0.463  0.00  0.00    +0.142 HD
ATOM     15  H   UNL     1      -1.503  -4.204   1.054  0.00  0.00    +0.142 HD
ENDBRANCH  10  13
ENDBRANCH   1  11
BRANCH   3  16
ATOM     16  C   UNL     1       0.822  -3.773   5.782  0.00  0.00    +0.115 C 
BRANCH  16  17
ATOM     17  C   UNL     1      -0.534  -3.869   6.433  0.00  0.00    -0.037 A 
ATOM     18  C   UNL     1      -1.206  -2.719   6.803  0.00  0.00    +0.004 A 
ATOM     19  C   UNL     1      -2.449  -2.807   7.399  0.00  0.00    +0.000 A 
ATOM     20  C   UNL     1      -3.022  -4.045   7.625  0.00  0.00    +0.000 A 
ATOM     21  C   UNL     1      -2.351  -5.194   7.254  0.00  0.00    +0.003 A 
ATOM     22  C   UNL     1      -1.109  -5.107   6.654  0.00  0.00    -0.047 A 
ATOM     23  C   UNL     1      -0.379  -6.360   6.245  0.00  0.00    +0.044 C 
ENDBRANCH  16  17
ENDBRANCH   3  16
TORSDOF 4
