REMARK  Name = ZINC08846180
REMARK  12 active torsions:
REMARK  status: ('A' for Active; 'I' for Inactive)
REMARK    1  A    between atoms: C_1  and  C_2
REMARK    2  A    between atoms: C_2  and  C_3
REMARK    3  A    between atoms: C_3  and  C_4
REMARK    4  A    between atoms: C_4  and  C_5
REMARK    5  A    between atoms: C_5  and  O_6
REMARK    6  A    between atoms: O_6  and  C_7
REMARK    7  A    between atoms: C_10  and  C_15
REMARK    8  A    between atoms: C_12  and  O_13
REMARK    9  A    between atoms: O_13  and  C_14
REMARK   10  A    between atoms: C_20  and  N_29
REMARK   11  A    between atoms: C_24  and  N_28
REMARK   12  A    between atoms: C_25  and  C_26
REMARK                            x       y       z     vdW  Elec       q    Type
REMARK                         _______ _______ _______ _____ _____    ______ ____
ROOT
ATOM      1  C   UNL     1       4.972   4.048  -0.024  0.00  0.00    +0.098 C 
ATOM      2  C   UNL     1       5.747   3.658   1.207  0.00  0.00    +0.008 A 
ATOM      3  C   UNL     1       5.415   4.220   2.427  0.00  0.00    +0.010 A 
ATOM      4  C   UNL     1       6.114   3.876   3.566  0.00  0.00    +0.023 A 
ATOM      5  C   UNL     1       7.156   2.959   3.490  0.00  0.00    +0.028 A 
ATOM      6  C   UNL     1       7.491   2.394   2.268  0.00  0.00    +0.069 A 
ATOM      7  C   UNL     1       6.786   2.743   1.124  0.00  0.00    +0.136 A 
ATOM      8  O   UNL     1       7.126   2.182  -0.062  0.00  0.00    -0.441 OA
ATOM      9  C   UNL     1       6.745   2.762  -1.212  0.00  0.00    +0.199 C 
ATOM     10  C   UNL     1       5.730   3.657  -1.261  0.00  0.00    +0.098 C 
ENDROOT
BRANCH   1  14
ATOM     11  C   UNL     1       1.186   2.059   0.002  0.00  0.00    +0.162 A 
ATOM     12  C   UNL     1       2.359   1.321  -0.008  0.00  0.00    +0.050 A 
ATOM     13  C   UNL     1       3.581   1.967  -0.021  0.00  0.00    +0.008 A 
ATOM     14  C   UNL     1       3.637   3.349  -0.015  0.00  0.00    -0.031 A 
ATOM     15  C   UNL     1       2.470   4.090   0.000  0.00  0.00    +0.054 A 
ATOM     16  C   UNL     1       1.242   3.449   0.009  0.00  0.00    +0.162 A 
BRANCH  16  17
ATOM     17  O   UNL     1       0.093   4.177   0.024  0.00  0.00    -0.491 OA
ATOM     18  C   UNL     1       0.227   5.600   0.030  0.00  0.00    +0.277 C 
ENDBRANCH  16  17
BRANCH  11  19
ATOM     19  O   UNL     1      -0.017   1.425   0.010  0.00  0.00    -0.488 OA
BRANCH  19  20
ATOM     20  C   UNL     1       0.002  -0.004   0.002  0.00  0.00    +0.229 C 
BRANCH  20  21
ATOM     21  C   UNL     1      -1.433  -0.534   0.013  0.00  0.00    +0.041 C 
BRANCH  21  22
ATOM     22  C   UNL     1      -1.413  -2.063   0.004  0.00  0.00    +0.003 C 
BRANCH  22  24
ATOM     23  C   UNL     1      -2.827  -4.123   0.007  0.00  0.00    +0.004 C 
ATOM     24  C   UNL     1      -2.848  -2.593   0.015  0.00  0.00    -0.003 C 
ENDBRANCH  22  24
ENDBRANCH  21  22
ENDBRANCH  20  21
ENDBRANCH  19  20
ENDBRANCH  11  19
ENDBRANCH   1  14
BRANCH   9  25
ATOM     25  N   UNL     1       7.405   2.439  -2.372  0.00  0.00    -0.328 N 
ATOM     26  H   UNL     1       7.142   2.851  -3.210  0.00  0.00    +0.145 HD
ATOM     27  H   UNL     1       8.134   1.800  -2.353  0.00  0.00    +0.145 HD
ENDBRANCH   9  25
BRANCH   5  28
ATOM     28  N   UNL     1       7.865   2.609   4.641  0.00  0.00    -0.358 N 
ATOM     29  H   UNL     1       7.630   3.005   5.495  0.00  0.00    +0.142 HD
ATOM     30  H   UNL     1       8.592   1.970   4.587  0.00  0.00    +0.142 HD
ENDBRANCH   5  28
BRANCH  10  31
ATOM     31  C   UNL     1       5.371   4.242  -2.518  0.00  0.00    +0.101 C 
ATOM     32  N   UNL     1       5.086   4.707  -3.515  0.00  0.00    -0.191 NA
ENDBRANCH  10  31
TORSDOF 10
