REMARK  Name = ZINC15006078
REMARK  10 active torsions:
REMARK  status: ('A' for Active; 'I' for Inactive)
REMARK    1  A    between atoms: C_1  and  C_2
REMARK    2  A    between atoms: C_2  and  O_3
REMARK    3  A    between atoms: O_3  and  C_4
REMARK    4  A    between atoms: C_4  and  C_6
REMARK    5  A    between atoms: N_9  and  C_23
REMARK    6  A    between atoms: C_10  and  C_11
REMARK    7  A    between atoms: C_11  and  N_12
REMARK    8  A    between atoms: N_12  and  C_13
REMARK    9  A    between atoms: C_13  and  C_14
REMARK   10  A    between atoms: N_27  and  C_34
REMARK                            x       y       z     vdW  Elec       q    Type
REMARK                         _______ _______ _______ _____ _____    ______ ____
ROOT
ATOM      1  C   UNL     1       1.395  -2.512   2.484  0.00  0.00    +0.101 A 
ATOM      2  C   UNL     1       2.098  -1.633   3.342  0.00  0.00    +0.150 A 
ATOM      3  N   UNL     1       2.716  -2.349   4.239  0.00  0.00    -0.174 NA
ATOM      4  N   UNL     1       2.444  -3.702   4.005  0.00  0.00    -0.234 N 
ATOM      5  C   UNL     1       1.632  -3.795   2.934  0.00  0.00    +0.073 A 
ENDROOT
BRANCH   4   6
ATOM      6  C   UNL     1       2.927  -4.770   4.755  0.00  0.00    +0.080 A 
ATOM      7  C   UNL     1       3.743  -5.708   4.191  0.00  0.00    +0.098 A 
ATOM      8  C   UNL     1       4.222  -6.782   4.961  0.00  0.00    +0.254 A 
ATOM      9  O   UNL     1       4.950  -7.609   4.438  0.00  0.00    -0.268 OA
ATOM     10  N   UNL     1       3.901  -6.922   6.259  0.00  0.00    -0.311 N 
ATOM     11  C   UNL     1       3.080  -6.011   6.893  0.00  0.00    +0.054 A 
ATOM     12  C   UNL     1       2.575  -4.913   6.174  0.00  0.00    +0.024 A 
ATOM     13  C   UNL     1       1.748  -3.984   6.811  0.00  0.00    +0.012 A 
ATOM     14  C   UNL     1       1.438  -4.149   8.142  0.00  0.00    +0.001 A 
ATOM     15  C   UNL     1       1.942  -5.230   8.852  0.00  0.00    +0.002 A 
ATOM     16  C   UNL     1       2.750  -6.161   8.235  0.00  0.00    +0.026 A 
ATOM     17  C   UNL     1       4.430  -8.061   7.013  0.00  0.00    +0.152 C 
ENDBRANCH   4   6
BRANCH   1  18
ATOM     18  C   UNL     1       0.563  -2.129   1.331  0.00  0.00    +0.343 C 
ATOM     19  O   UNL     1       0.004  -2.985   0.674  0.00  0.00    -0.245 OA
BRANCH  18  20
ATOM     20  O   UNL     1       0.420  -0.829   1.005  0.00  0.00    -0.461 OA
BRANCH  20  22
ATOM     21  C   UNL     1      -0.444   0.985  -0.339  0.00  0.00    +0.048 C 
ATOM     22  C   UNL     1      -0.402  -0.530  -0.125  0.00  0.00    +0.229 C 
ENDBRANCH  20  22
ENDBRANCH  18  20
ENDBRANCH   1  18
BRANCH   5  23
ATOM     23  C   UNL     1       1.085  -5.065   2.336  0.00  0.00    +0.138 C 
BRANCH  23  24
ATOM     24  N   UNL     1      -0.257  -5.323   2.876  0.00  0.00    -0.305 NA
ATOM     25  H   UNL     1      -0.240  -5.359   3.884  0.00  0.00    +0.123 HD
BRANCH  24  26
ATOM     26  C   UNL     1      -0.823  -6.556   2.314  0.00  0.00    +0.136 C 
BRANCH  26  27
ATOM     27  C   UNL     1      -2.196  -6.787   2.889  0.00  0.00    +0.048 A 
ATOM     28  C   UNL     1      -2.482  -7.558   3.962  0.00  0.00    +0.115 A 
ATOM     29  N   UNL     1      -3.836  -7.498   4.153  0.00  0.00    -0.308 N 
ATOM     30  C   UNL     1      -4.664  -8.072   5.074  0.00  0.00    +0.092 A 
ATOM     31  C   UNL     1      -5.994  -7.843   5.038  0.00  0.00    +0.018 A 
ATOM     32  C   UNL     1      -6.544  -7.010   4.050  0.00  0.00    +0.005 A 
ATOM     33  C   UNL     1      -5.729  -6.432   3.126  0.00  0.00    +0.045 A 
ATOM     34  C   UNL     1      -4.343  -6.680   3.177  0.00  0.00    +0.115 A 
ATOM     35  N   UNL     1      -3.333  -6.259   2.429  0.00  0.00    -0.342 N 
ATOM     36  H   UNL     1      -3.408  -5.663   1.667  0.00  0.00    +0.167 HD
ENDBRANCH  26  27
ENDBRANCH  24  26
ENDBRANCH  23  24
ENDBRANCH   5  23
TORSDOF 8
