REMARK  Name = ZINC20504794
REMARK  9 active torsions:
REMARK  status: ('A' for Active; 'I' for Inactive)
REMARK    1  A    between atoms: C_1  and  C_2
REMARK    2  A    between atoms: C_5  and  O_33
REMARK    3  A    between atoms: C_7  and  C_30
REMARK    4  A    between atoms: C_7  and  C_31
REMARK    5  A    between atoms: N_16  and  C_17
REMARK    6  A    between atoms: C_17  and  C_18
REMARK    7  A    between atoms: C_24  and  C_26
REMARK    8  A    between atoms: C_26  and  C_27
REMARK    9  A    between atoms: C_31  and  O_32
REMARK                            x       y       z     vdW  Elec       q    Type
REMARK                         _______ _______ _______ _____ _____    ______ ____
ROOT
ATOM      1  C   UNL     1       6.292   8.488  -3.087  0.00  0.00    +0.012 C 
ATOM      2  C   UNL     1       7.060   7.249  -3.551  0.00  0.00    -0.020 C 
ATOM      3  C   UNL     1       7.696   7.522  -4.918  0.00  0.00    +0.010 C 
ATOM      4  C   UNL     1       8.718   8.652  -4.813  0.00  0.00    +0.032 C 
ATOM      5  C   UNL     1       9.818   8.233  -3.833  0.00  0.00    +0.123 C 
ATOM      6  C   UNL     1       9.191   8.006  -2.459  0.00  0.00    +0.021 C 
ATOM      7  C   UNL     1       8.142   6.892  -2.529  0.00  0.00    +0.011 C 
ATOM      8  C   UNL     1       7.496   6.787  -1.134  0.00  0.00    +0.049 C 
ATOM      9  C   UNL     1       6.250   5.981  -1.235  0.00  0.00    +0.013 A 
ATOM     10  C   UNL     1       5.575   5.634  -2.360  0.00  0.00    +0.032 A 
ATOM     11  N   UNL     1       4.475   4.904  -2.180  0.00  0.00    -0.340 N 
ATOM     12  C   UNL     1       4.066   4.536  -0.984  0.00  0.00    +0.137 A 
ATOM     13  S   UNL     1       5.274   5.242   0.048  0.00  0.00    -0.059 S 
ATOM     14  N   UNL     1       2.955   3.783  -0.636  0.00  0.00    -0.321 N 
ATOM     15  C   UNL     1       6.086   6.075  -3.723  0.00  0.00    +0.053 C 
ATOM     16  C   UNL     1      10.283   7.611  -1.463  0.00  0.00    +0.016 C 
ATOM     17  H   UNL     1       2.278   3.409  -1.417  0.00  0.00    +0.148 HD
ATOM     18  H   UNL     1       3.877   4.589  -3.047  0.00  0.00    +0.167 HD
ENDROOT
BRANCH   5  19
ATOM     19  O   UNL     1      10.802   9.265  -3.747  0.00  0.00    -0.391 OA
ATOM     20  H   UNL     1      11.673   9.141  -3.088  0.00  0.00    +0.210 HD
ENDBRANCH   5  19
BRANCH  14  21
ATOM     21  C   UNL     1       2.683   3.486   0.773  0.00  0.00    +0.138 C 
BRANCH  21  22
ATOM     22  C   UNL     1       1.427   2.660   0.879  0.00  0.00    -0.030 A 
ATOM     23  C   UNL     1       1.502   1.280   0.842  0.00  0.00    +0.005 A 
ATOM     24  C   UNL     1       0.350   0.523   0.940  0.00  0.00    +0.000 A 
ATOM     25  C   UNL     1      -0.877   1.145   1.069  0.00  0.00    +0.000 A 
ATOM     26  C   UNL     1      -0.952   2.525   1.110  0.00  0.00    +0.000 A 
ATOM     27  C   UNL     1       0.200   3.282   1.012  0.00  0.00    +0.005 A 
ENDBRANCH  21  22
ENDBRANCH  14  21
BRANCH  15  28
ATOM     28  C   UNL     1       4.906   6.516  -4.592  0.00  0.00    +0.135 C 
BRANCH  28  29
ATOM     29  C   UNL     1       4.051   5.319  -4.922  0.00  0.00    +0.357 C 
ATOM     30  O   UNL     1       4.355   4.227  -4.505  0.00  0.00    -0.246 OA
ATOM     31  O   UNL     1       2.953   5.467  -5.679  0.00  0.00    -0.246 OA
ENDBRANCH  28  29
ENDBRANCH  15  28
BRANCH   6  32
ATOM     32  C   UNL     1       8.525   9.300  -1.987  0.00  0.00    +0.165 C 
BRANCH  32  33
ATOM     33  O   UNL     1       9.526  10.291  -1.747  0.00  0.00    -0.394 OA
ATOM     34  H   UNL     1       9.236  11.294  -1.399  0.00  0.00    +0.209 HD
ENDBRANCH  32  33
ENDBRANCH   6  32
TORSDOF 7
