REMARK  Name = ZINC09331478
REMARK  9 active torsions:
REMARK  status: ('A' for Active; 'I' for Inactive)
REMARK    1  A    between atoms: C_1  and  C_2
REMARK    2  A    between atoms: C_3  and  C_24
REMARK    3  A    between atoms: N_11  and  C_14
REMARK    4  A    between atoms: C_14  and  C_15
REMARK    5  A    between atoms: C_18  and  C_22
REMARK    6  A    between atoms: C_19  and  N_21
REMARK    7  A    between atoms: C_24  and  O_26
REMARK    8  A    between atoms: O_26  and  C_27
REMARK    9  A    between atoms: C_27  and  C_28
REMARK                            x       y       z     vdW  Elec       q    Type
REMARK                         _______ _______ _______ _____ _____    ______ ____
ROOT
ATOM      1  C   UNL     1       1.654   7.457  -2.408  0.00  0.00    +0.087 C 
ATOM      2  C   UNL     1       1.171   6.796  -1.143  0.00  0.00    +0.116 C 
ATOM      3  C   UNL     1       0.112   5.977  -1.202  0.00  0.00    +0.099 C 
ATOM      4  C   UNL     1      -0.405   5.299   0.034  0.00  0.00    +0.148 C 
ATOM      5  C   UNL     1      -0.043   3.835   0.022  0.00  0.00    -0.001 A 
ATOM      6  C   UNL     1       1.159   3.163   0.008  0.00  0.00    +0.007 A 
ATOM      7  C   UNL     1       1.178   1.780   0.000  0.00  0.00    +0.000 A 
ATOM      8  C   UNL     1      -0.013   1.076   0.008  0.00  0.00    +0.002 A 
ATOM      9  C   UNL     1      -1.218   1.745   0.017  0.00  0.00    +0.024 A 
ATOM     10  C   UNL     1      -1.246   3.138   0.031  0.00  0.00    +0.042 A 
ATOM     11  N   UNL     1      -2.319   4.030   0.047  0.00  0.00    -0.261 N 
ATOM     12  C   UNL     1      -1.915   5.313   0.050  0.00  0.00    +0.241 C 
ATOM     13  O   UNL     1      -2.627   6.294   0.065  0.00  0.00    -0.274 OA
ATOM     14  C   UNL     1       0.140   5.965   1.264  0.00  0.00    +0.110 C 
ATOM     15  C   UNL     1       1.209   6.795   1.179  0.00  0.00    +0.199 C 
ATOM     16  O   UNL     1       1.816   7.046   0.006  0.00  0.00    -0.445 OA
ENDROOT
BRANCH  15  17
ATOM     17  N   UNL     1       1.683   7.395   2.319  0.00  0.00    -0.328 N 
ATOM     18  H   UNL     1       1.254   7.222   3.172  0.00  0.00    +0.145 HD
ATOM     19  H   UNL     1       2.447   7.991   2.272  0.00  0.00    +0.145 HD
ENDBRANCH  15  17
BRANCH  14  20
ATOM     20  C   UNL     1      -0.474   5.723   2.535  0.00  0.00    +0.102 C 
ATOM     21  N   UNL     1      -0.960   5.530   3.544  0.00  0.00    -0.191 NA
ENDBRANCH  14  20
BRANCH   3  22
ATOM     22  C   UNL     1      -0.527   5.748  -2.446  0.00  0.00    +0.340 C 
ATOM     23  O   UNL     1      -0.114   6.294  -3.451  0.00  0.00    -0.245 OA
BRANCH  22  24
ATOM     24  O   UNL     1      -1.594   4.925  -2.514  0.00  0.00    -0.457 OA
BRANCH  24  25
ATOM     25  C   UNL     1      -2.190   4.741  -3.800  0.00  0.00    +0.268 C 
BRANCH  25  26
ATOM     26  C   UNL     1      -3.358   3.797  -3.682  0.00  0.00    -0.010 A 
ATOM     27  C   UNL     1      -3.167   2.437  -3.838  0.00  0.00    +0.007 A 
ATOM     28  C   UNL     1      -4.238   1.570  -3.724  0.00  0.00    +0.000 A 
ATOM     29  C   UNL     1      -5.503   2.065  -3.466  0.00  0.00    +0.000 A 
ATOM     30  C   UNL     1      -5.695   3.426  -3.316  0.00  0.00    +0.000 A 
ATOM     31  C   UNL     1      -4.623   4.292  -3.424  0.00  0.00    +0.007 A 
ENDBRANCH  25  26
ENDBRANCH  24  25
ENDBRANCH  22  24
ENDBRANCH   3  22
BRANCH  11  32
ATOM     32  C   UNL     1      -3.725   3.617   0.060  0.00  0.00    +0.209 C 
BRANCH  32  33
ATOM     33  C   UNL     1      -4.192   3.467   1.485  0.00  0.00    +0.228 C 
ATOM     34  O   UNL     1      -3.426   3.684   2.400  0.00  0.00    -0.274 OA
ATOM     35  N   UNL     1      -5.460   3.092   1.742  0.00  0.00    -0.328 N 
ATOM     36  H   UNL     1      -6.073   2.918   1.010  0.00  0.00    +0.145 HD
ATOM     37  H   UNL     1      -5.761   2.995   2.659  0.00  0.00    +0.145 HD
ENDBRANCH  32  33
ENDBRANCH  11  32
TORSDOF 8
