REMARK  Name = ZINC35343871
REMARK  5 active torsions:
REMARK  status: ('A' for Active; 'I' for Inactive)
REMARK    1  A    between atoms: C_8  and  C_26
REMARK    2  A    between atoms: N_10  and  C_12
REMARK    3  A    between atoms: C_12  and  C_13
REMARK    4  A    between atoms: N_15  and  C_16
REMARK    5  A    between atoms: C_17  and  C_24
REMARK                            x       y       z     vdW  Elec       q    Type
REMARK                         _______ _______ _______ _____ _____    ______ ____
ROOT
ATOM      1  C   UNL     1       0.165   1.388  -0.215  0.00  0.00    +0.000 A 
ATOM      2  C   UNL     1       1.306   2.017   0.248  0.00  0.00    +0.000 A 
ATOM      3  C   UNL     1       2.455   1.283   0.465  0.00  0.00    +0.005 A 
ATOM      4  C   UNL     1       2.473  -0.082   0.218  0.00  0.00    -0.030 A 
ATOM      5  C   UNL     1       1.336  -0.707  -0.247  0.00  0.00    -0.041 A 
ATOM      6  C   UNL     1       0.181   0.030  -0.461  0.00  0.00    +0.004 A 
ATOM      7  C   UNL     1       1.310  -2.185  -0.540  0.00  0.00    +0.063 C 
ATOM      8  C   UNL     1       2.497  -2.873   0.134  0.00  0.00    +0.148 C 
ATOM      9  N   UNL     1       3.723  -2.135  -0.213  0.00  0.00    -0.278 NA
ATOM     10  C   UNL     1       3.749  -0.841   0.474  0.00  0.00    +0.121 C 
ENDROOT
BRANCH   8  11
ATOM     11  C   UNL     1       2.603  -4.295  -0.352  0.00  0.00    +0.228 C 
ATOM     12  O   UNL     1       3.171  -4.539  -1.395  0.00  0.00    -0.274 OA
ATOM     13  N   UNL     1       2.064  -5.296   0.372  0.00  0.00    -0.328 N 
ATOM     14  H   UNL     1       1.610  -5.101   1.206  0.00  0.00    +0.145 HD
ATOM     15  H   UNL     1       2.132  -6.212   0.059  0.00  0.00    +0.145 HD
ENDBRANCH   8  11
BRANCH   9  16
ATOM     16  C   UNL     1       4.920  -2.925   0.106  0.00  0.00    +0.181 C 
BRANCH  16  17
ATOM     17  C   UNL     1       6.111  -2.341  -0.610  0.00  0.00    +0.232 C 
ATOM     18  O   UNL     1       5.976  -1.364  -1.316  0.00  0.00    -0.274 OA
ATOM     19  N   UNL     1       7.327  -2.905  -0.465  0.00  0.00    -0.278 N 
ATOM     20  H   UNL     1       7.435  -3.687   0.100  0.00  0.00    +0.155 HD
BRANCH  19  21
ATOM     21  C   UNL     1       8.424  -2.368  -1.124  0.00  0.00    +0.090 A 
ATOM     22  C   UNL     1       9.732  -2.813  -1.098  0.00  0.00    +0.084 A 
ATOM     23  C   UNL     1      10.710  -2.065  -1.886  0.00  0.00    -0.018 A 
ATOM     24  C   UNL     1      10.193  -1.014  -2.549  0.00  0.00    -0.004 A 
ATOM     25  S   UNL     1       8.466  -1.035  -2.140  0.00  0.00    -0.077 S 
ATOM     26  C   UNL     1      11.241  -0.279  -3.339  0.00  0.00    +0.043 C 
ATOM     27  C   UNL     1      12.584  -0.757  -2.745  0.00  0.00    +0.010 C 
ATOM     28  C   UNL     1      12.206  -2.142  -2.184  0.00  0.00    +0.037 C 
BRANCH  22  29
ATOM     29  C   UNL     1      10.114  -3.959  -0.330  0.00  0.00    +0.102 C 
ATOM     30  N   UNL     1      10.417  -4.869   0.280  0.00  0.00    -0.191 NA
ENDBRANCH  22  29
ENDBRANCH  19  21
ENDBRANCH  16  17
ENDBRANCH   9  16
TORSDOF 5
