REMARK  Name = ZINC64986073
REMARK  10 active torsions:
REMARK  status: ('A' for Active; 'I' for Inactive)
REMARK    1  A    between atoms: C_1  and  C_2
REMARK    2  A    between atoms: C_5  and  S_8
REMARK    3  A    between atoms: S_8  and  N_11
REMARK    4  A    between atoms: C_13  and  C_23
REMARK    5  A    between atoms: C_20  and  C_22
REMARK    6  A    between atoms: N_25  and  C_26
REMARK    7  A    between atoms: C_29  and  O_32
REMARK    8  A    between atoms: O_32  and  C_33
REMARK    9  A    between atoms: C_33  and  C_34
REMARK   10  A    between atoms: C_33  and  C_35
REMARK                            x       y       z     vdW  Elec       q    Type
REMARK                         _______ _______ _______ _____ _____    ______ ____
ROOT
ATOM      1  N   UNL     1       0.805  -6.291  -0.281  0.00  0.00    -0.195 N 
ATOM      2  C   UNL     1       1.633  -6.293  -1.499  0.00  0.00    +0.186 C 
ATOM      3  C   UNL     1       2.663  -7.423  -1.357  0.00  0.00    +0.278 C 
ATOM      4  O   UNL     1       3.438  -7.195  -0.178  0.00  0.00    -0.476 OA
ATOM      5  C   UNL     1       2.771  -6.928   0.976  0.00  0.00    +0.144 A 
ATOM      6  C   UNL     1       1.456  -6.467   0.951  0.00  0.00    +0.093 A 
ATOM      7  C   UNL     1       0.791  -6.189   2.134  0.00  0.00    +0.029 A 
ATOM      8  C   UNL     1       1.435  -6.366   3.345  0.00  0.00    +0.005 A 
ATOM      9  C   UNL     1       2.740  -6.820   3.375  0.00  0.00    -0.047 A 
ATOM     10  C   UNL     1       3.408  -7.109   2.194  0.00  0.00    +0.051 A 
ATOM     11  C   UNL     1       3.438  -7.012   4.697  0.00  0.00    +0.044 C 
ENDROOT
BRANCH   3  12
ATOM     12  C   UNL     1       3.566  -7.437  -2.563  0.00  0.00    +0.260 C 
ATOM     13  O   UNL     1       4.747  -7.190  -2.440  0.00  0.00    -0.271 OA
ATOM     14  N   UNL     1       3.062  -7.725  -3.780  0.00  0.00    -0.282 N 
ATOM     15  H   UNL     1       2.133  -7.991  -3.869  0.00  0.00    +0.155 HD
BRANCH  14  16
ATOM     16  C   UNL     1       3.879  -7.641  -4.915  0.00  0.00    +0.034 A 
ATOM     17  C   UNL     1       3.351  -7.193  -6.118  0.00  0.00    +0.027 A 
ATOM     18  C   UNL     1       4.156  -7.109  -7.237  0.00  0.00    +0.047 A 
ATOM     19  C   UNL     1       5.493  -7.473  -7.158  0.00  0.00    +0.121 A 
ATOM     20  C   UNL     1       6.021  -7.921  -5.956  0.00  0.00    +0.047 A 
ATOM     21  C   UNL     1       5.218  -7.999  -4.835  0.00  0.00    +0.027 A 
BRANCH  19  22
ATOM     22  O   UNL     1       6.285  -7.391  -8.260  0.00  0.00    -0.489 OA
BRANCH  22  23
ATOM     23  C   UNL     1       5.708  -6.814  -9.433  0.00  0.00    +0.167 C 
ATOM     24  C   UNL     1       6.816  -6.234 -10.314  0.00  0.00    +0.051 C 
ATOM     25  C   UNL     1       4.949  -7.890 -10.210  0.00  0.00    +0.051 C 
ENDBRANCH  22  23
ENDBRANCH  19  22
ENDBRANCH  14  16
ENDBRANCH   3  12
BRANCH   1  26
ATOM     26  S   UNL     1      -0.836  -6.082  -0.360  0.00  0.00    +0.075 S 
ATOM     27  O   UNL     1      -1.377  -6.662   0.819  0.00  0.00    -0.150 OA
ATOM     28  O   UNL     1      -1.234  -6.489  -1.662  0.00  0.00    -0.150 OA
BRANCH  26  33
ATOM     29  C   UNL     1      -1.900  -0.153  -0.006  0.00  0.00    +0.044 C 
ATOM     30  C   UNL     1      -1.634  -1.634  -0.094  0.00  0.00    -0.050 A 
ATOM     31  C   UNL     1      -1.443  -2.229  -1.327  0.00  0.00    +0.005 A 
ATOM     32  C   UNL     1      -1.199  -3.588  -1.408  0.00  0.00    +0.029 A 
ATOM     33  C   UNL     1      -1.146  -4.350  -0.257  0.00  0.00    +0.109 A 
ATOM     34  C   UNL     1      -1.336  -3.755   0.976  0.00  0.00    +0.029 A 
ATOM     35  C   UNL     1      -1.576  -2.396   1.058  0.00  0.00    +0.005 A 
ENDBRANCH  26  33
ENDBRANCH   1  26
TORSDOF 6
