REMARK  Name = ZINC62843648
REMARK  3 active torsions:
REMARK  status: ('A' for Active; 'I' for Inactive)
REMARK    1  A    between atoms: C_1  and  C_2
REMARK    2  A    between atoms: C_2  and  C_21
REMARK    3  A    between atoms: N_10  and  C_11
REMARK                            x       y       z     vdW  Elec       q    Type
REMARK                         _______ _______ _______ _____ _____    ______ ____
ROOT
ATOM      1  C   UNL     1      -0.268   1.062   0.010  0.00  0.00    +0.023 C 
ATOM      2  C   UNL     1       1.020   1.888   0.001  0.00  0.00    +0.072 C 
ATOM      3  C   UNL     1       1.851   1.550   1.241  0.00  0.00    +0.037 C 
ATOM      4  C   UNL     1       2.170   0.051   1.244  0.00  0.00    +0.110 C 
ATOM      5  N   UNL     1       2.816  -0.297  -0.028  0.00  0.00    -0.286 N 
ATOM      6  C   UNL     1       2.144   0.065  -1.284  0.00  0.00    +0.110 C 
ATOM      7  C   UNL     1       1.825   1.563  -1.259  0.00  0.00    +0.037 C 
ATOM      8  C   UNL     1       4.002  -0.936  -0.044  0.00  0.00    +0.302 C 
ATOM      9  O   UNL     1       4.483  -1.300  -1.099  0.00  0.00    -0.253 OA
ATOM     10  N   UNL     1       4.656  -1.171   1.111  0.00  0.00    -0.298 N 
ATOM     11  H   UNL     1       4.240  -0.947   1.958  0.00  0.00    +0.150 HD
ENDROOT
BRANCH  10  12
ATOM     12  C   UNL     1       5.995  -1.765   1.087  0.00  0.00    +0.059 C 
ATOM     13  C   UNL     1       7.083  -0.663   0.987  0.00  0.00    +0.002 C 
ATOM     14  C   UNL     1       8.302  -1.369   1.629  0.00  0.00    -0.077 C 
ATOM     15  N   UNL     1       7.740  -2.182   2.729  0.00  0.00    +0.383 N 
ATOM     16  C   UNL     1       6.313  -2.448   2.432  0.00  0.00    -0.048 C 
ATOM     17  C   UNL     1       6.150  -3.974   2.279  0.00  0.00    -0.015 C 
ATOM     18  C   UNL     1       7.355  -4.534   3.080  0.00  0.00    -0.020 C 
ATOM     19  C   UNL     1       8.453  -3.478   2.775  0.00  0.00    -0.078 C 
ATOM     20  H   UNL     1       7.836  -1.697   3.609  0.00  0.00    -0.081 HD
ENDBRANCH  10  12
BRANCH   2  21
ATOM     21  C   UNL     1       0.675   3.355   0.013  0.00  0.00    +0.362 C 
ATOM     22  O   UNL     1       0.032   3.823   0.936  0.00  0.00    -0.246 OA
ATOM     23  O   UNL     1       1.041   4.074  -0.901  0.00  0.00    -0.246 OA
ENDBRANCH   2  21
TORSDOF 2
