REMARK  Name = ZINC35306561
REMARK  5 active torsions:
REMARK  status: ('A' for Active; 'I' for Inactive)
REMARK    1  A    between atoms: C_1  and  C_2
REMARK    2  A    between atoms: C_10  and  C_11
REMARK    3  A    between atoms: N_13  and  C_14
REMARK    4  A    between atoms: C_18  and  S_20
REMARK    5  A    between atoms: S_20  and  N_23
REMARK                            x       y       z     vdW  Elec       q    Type
REMARK                         _______ _______ _______ _____ _____    ______ ____
ROOT
ATOM      1  C   UNL     1       0.151  -0.920   4.823  0.00  0.00    +0.036 A 
ATOM      2  C   UNL     1       0.124   0.422   5.179  0.00  0.00    +0.023 A 
ATOM      3  C   UNL     1       0.221   0.785   6.508  0.00  0.00    +0.004 A 
ATOM      4  C   UNL     1       0.345  -0.187   7.484  0.00  0.00    +0.029 A 
ATOM      5  C   UNL     1       0.373  -1.524   7.133  0.00  0.00    +0.114 A 
ATOM      6  C   UNL     1       0.270  -1.894   5.806  0.00  0.00    +0.052 A 
ENDROOT
BRANCH   1   9
ATOM      7  C   UNL     1       0.618  -0.524   2.525  0.00  0.00    +0.284 C 
ATOM      8  O   UNL     1       1.140   0.533   2.825  0.00  0.00    -0.266 OA
ATOM      9  N   UNL     1       0.053  -1.291   3.478  0.00  0.00    -0.279 N 
ATOM     10  H   UNL     1      -0.421  -2.100   3.232  0.00  0.00    +0.155 HD
BRANCH   7  20
ATOM     11  C   UNL     1       1.848   1.053   0.143  0.00  0.00    +0.048 C 
ATOM     12  C   UNL     1       1.141  -0.276   0.082  0.00  0.00    +0.008 A 
ATOM     13  C   UNL     1       0.898  -1.090  -1.109  0.00  0.00    +0.024 A 
ATOM     14  C   UNL     1       1.200  -0.945  -2.465  0.00  0.00    +0.012 A 
ATOM     15  C   UNL     1       0.823  -1.915  -3.350  0.00  0.00    +0.001 A 
ATOM     16  C   UNL     1       0.142  -3.042  -2.910  0.00  0.00    +0.004 A 
ATOM     17  C   UNL     1      -0.165  -3.204  -1.577  0.00  0.00    +0.047 A 
ATOM     18  C   UNL     1       0.209  -2.231  -0.657  0.00  0.00    +0.136 A 
ATOM     19  O   UNL     1       0.053  -2.112   0.676  0.00  0.00    -0.450 OA
ATOM     20  C   UNL     1       0.604  -0.964   1.123  0.00  0.00    +0.194 A 
ENDBRANCH   7  20
ENDBRANCH   1   9
BRANCH   5  21
ATOM     21  S   UNL     1       0.532  -2.758   8.381  0.00  0.00    +0.100 S 
ATOM     22  O   UNL     1       1.081  -3.906   7.749  0.00  0.00    -0.146 OA
ATOM     23  O   UNL     1       1.153  -2.132   9.495  0.00  0.00    -0.146 OA
BRANCH  21  24
ATOM     24  N   UNL     1      -0.998  -3.169   8.861  0.00  0.00    -0.118 NA
ATOM     25  C   UNL     1      -1.169  -4.065   9.779  0.00  0.00    +0.117 C 
ATOM     26  N   UNL     1      -0.166  -4.734  10.427  0.00  0.00    -0.331 N 
ATOM     27  C   UNL     1      -0.685  -5.280  11.691  0.00  0.00    +0.103 C 
ATOM     28  C   UNL     1      -2.178  -5.559  11.407  0.00  0.00    +0.026 C 
ATOM     29  C   UNL     1      -2.509  -4.529  10.306  0.00  0.00    +0.074 C 
ATOM     30  H   UNL     1       0.743  -4.833  10.103  0.00  0.00    +0.147 HD
ENDBRANCH  21  24
ENDBRANCH   5  21
TORSDOF 4
