REMARK  Name = ZINC11996016
REMARK  9 active torsions:
REMARK  status: ('A' for Active; 'I' for Inactive)
REMARK    1  A    between atoms: C_1  and  C_2
REMARK    2  A    between atoms: C_4  and  C_8
REMARK    3  A    between atoms: C_5  and  C_7
REMARK    4  A    between atoms: N_10  and  C_11
REMARK    5  A    between atoms: C_11  and  C_12
REMARK    6  A    between atoms: C_21  and  C_22
REMARK    7  A    between atoms: C_21  and  N_63
REMARK    8  A    between atoms: C_25  and  O_32
REMARK    9  A    between atoms: O_32  and  C_33
REMARK                            x       y       z     vdW  Elec       q    Type
REMARK                         _______ _______ _______ _____ _____    ______ ____
ROOT
ATOM      1  C   UNL     1       2.362   1.638   3.481  0.00  0.00    +0.151 A 
ATOM      2  N   UNL     1       2.817   2.828   3.189  0.00  0.00    -0.133 NA
ATOM      3  N   UNL     1       2.539   3.111   1.964  0.00  0.00    -0.134 NA
ATOM      4  C   UNL     1       1.903   2.115   1.421  0.00  0.00    +0.132 A 
ATOM      5  N   UNL     1       1.759   1.159   2.372  0.00  0.00    -0.315 N 
ATOM      6  C   UNL     1       1.073  -0.122   2.207  0.00  0.00    +0.106 C 
ATOM      7  C   UNL     1       1.149  -0.548   0.738  0.00  0.00    -0.056 C 
ATOM      8  C   UNL     1      -0.018   1.460   0.010  0.00  0.00    -0.071 C 
ATOM      9  C   UNL     1       1.417   1.996  -0.001  0.00  0.00    +0.058 C 
ATOM     10  N   UNL     1      -0.001  -0.018  -0.033  0.00  0.00    +0.384 N 
ATOM     11  H   UNL     1       0.090  -0.320  -1.010  0.00  0.00    -0.081 HD
ENDROOT
BRANCH   1  12
ATOM     12  C   UNL     1       2.486   0.932   4.807  0.00  0.00    +0.181 C 
BRANCH  12  15
ATOM     13  C   UNL     1       4.043  -0.574   5.921  0.00  0.00    +0.248 C 
ATOM     14  O   UNL     1       3.308  -0.570   6.890  0.00  0.00    -0.270 OA
ATOM     15  N   UNL     1       3.721   0.145   4.828  0.00  0.00    -0.304 N 
ATOM     16  H   UNL     1       4.307   0.142   4.055  0.00  0.00    +0.149 HD
BRANCH  13  20
ATOM     17  C   UNL     1       8.470  -2.729   4.585  0.00  0.00    +0.086 C 
ATOM     18  C   UNL     1       7.234  -2.306   5.336  0.00  0.00    +0.103 A 
ATOM     19  C   UNL     1       6.279  -1.489   4.865  0.00  0.00    +0.057 A 
ATOM     20  C   UNL     1       5.286  -1.366   5.942  0.00  0.00    +0.077 A 
ATOM     21  C   UNL     1       5.752  -2.142   6.963  0.00  0.00    +0.114 A 
ATOM     22  O   UNL     1       6.910  -2.690   6.581  0.00  0.00    -0.464 OA
ATOM     23  C   UNL     1       5.077  -2.346   8.294  0.00  0.00    +0.087 C 
ENDBRANCH  13  20
ENDBRANCH  12  15
ENDBRANCH   1  12
BRANCH  10  24
ATOM     24  C   UNL     1      -1.261  -0.550   0.516  0.00  0.00    -0.042 C 
BRANCH  24  25
ATOM     25  C   UNL     1      -2.381  -0.202  -0.430  0.00  0.00    -0.056 A 
ATOM     26  C   UNL     1      -3.213   0.839  -0.149  0.00  0.00    +0.006 A 
ATOM     27  C   UNL     1      -4.250   1.183  -1.013  0.00  0.00    +0.046 A 
ATOM     28  C   UNL     1      -4.470   0.475  -2.161  0.00  0.00    +0.128 A 
ATOM     29  C   UNL     1      -3.632  -0.612  -2.480  0.00  0.00    +0.024 A 
ATOM     30  C   UNL     1      -2.575  -0.954  -1.601  0.00  0.00    -0.013 A 
ATOM     31  C   UNL     1      -1.739  -2.039  -1.918  0.00  0.00    +0.009 A 
ATOM     32  C   UNL     1      -1.956  -2.744  -3.061  0.00  0.00    +0.001 A 
ATOM     33  C   UNL     1      -2.997  -2.408  -3.925  0.00  0.00    +0.001 A 
ATOM     34  C   UNL     1      -3.826  -1.364  -3.650  0.00  0.00    +0.012 A 
BRANCH  28  35
ATOM     35  O   UNL     1      -5.490   0.819  -2.990  0.00  0.00    -0.495 OA
ATOM     36  C   UNL     1      -6.296   1.932  -2.600  0.00  0.00    +0.277 C 
ENDBRANCH  28  35
ENDBRANCH  24  25
ENDBRANCH  10  24
TORSDOF 6
