REMARK  Name = ZINC05027611
REMARK  8 active torsions:
REMARK  status: ('A' for Active; 'I' for Inactive)
REMARK    1  A    between atoms: C_1  and  C_2
REMARK    2  A    between atoms: C_2  and  O_3
REMARK    3  A    between atoms: O_3  and  C_4
REMARK    4  A    between atoms: C_4  and  C_6
REMARK    5  A    between atoms: C_9  and  C_20
REMARK    6  A    between atoms: C_9  and  O_24
REMARK    7  A    between atoms: C_11  and  C_13
REMARK    8  A    between atoms: C_16  and  C_19
REMARK                            x       y       z     vdW  Elec       q    Type
REMARK                         _______ _______ _______ _____ _____    ______ ____
ROOT
ATOM      1  C   UNL     1      -1.246  -2.122   0.003  0.00  0.00    +0.346 C 
ATOM      2  O   UNL     1      -0.219  -2.769  -0.011  0.00  0.00    -0.261 OA
ATOM      3  N   UNL     1      -2.439  -2.750   0.011  0.00  0.00    -0.142 N 
ATOM      4  C   UNL     1      -2.638  -4.208   0.005  0.00  0.00    +0.257 C 
ATOM      5  C   UNL     1      -4.172  -4.364   0.018  0.00  0.00    +0.124 C 
ATOM      6  C   UNL     1      -4.683  -2.941   0.031  0.00  0.00    +0.071 C 
ATOM      7  N   UNL     1      -3.684  -2.125   0.032  0.00  0.00    -0.178 NA
ENDROOT
BRANCH   6   8
ATOM      8  C   UNL     1      -6.103  -2.547   0.046  0.00  0.00    -0.002 A 
ATOM      9  C   UNL     1      -7.102  -3.523   0.044  0.00  0.00    +0.010 A 
ATOM     10  C   UNL     1      -8.429  -3.147   0.064  0.00  0.00    +0.004 A 
ATOM     11  C   UNL     1      -8.772  -1.807   0.074  0.00  0.00    -0.050 A 
ATOM     12  C   UNL     1      -7.787  -0.834   0.071  0.00  0.00    +0.004 A 
ATOM     13  C   UNL     1      -6.457  -1.195   0.057  0.00  0.00    +0.010 A 
ATOM     14  C   UNL     1     -10.224  -1.404   0.089  0.00  0.00    +0.044 C 
ENDBRANCH   6   8
BRANCH   4  15
ATOM     15  C   UNL     1      -2.018  -4.841   1.252  0.00  0.00    +0.438 C 
ATOM     16  F   UNL     1      -2.598  -4.282   2.396  0.00  0.00    -0.166 F 
ATOM     17  F   UNL     1      -2.250  -6.221   1.239  0.00  0.00    -0.166 F 
ATOM     18  F   UNL     1      -0.640  -4.600   1.262  0.00  0.00    -0.166 F 
ENDBRANCH   4  15
BRANCH   1  19
ATOM     19  C   UNL     1      -1.188  -0.631   0.010  0.00  0.00    +0.397 C 
ATOM     20  O   UNL     1      -2.215   0.015   0.023  0.00  0.00    -0.240 OA
BRANCH  19  21
ATOM     21  O   UNL     1       0.002  -0.004   0.002  0.00  0.00    -0.458 OA
BRANCH  21  23
ATOM     22  C   UNL     1       1.418   1.977  -0.001  0.00  0.00    +0.048 C 
ATOM     23  C   UNL     1      -0.018   1.448   0.010  0.00  0.00    +0.229 C 
ENDBRANCH  21  23
ENDBRANCH  19  21
ENDBRANCH   1  19
BRANCH   4  24
ATOM     24  O   UNL     1      -2.085  -4.786  -1.179  0.00  0.00    -0.363 OA
ATOM     25  H   UNL     1      -1.131  -4.657  -1.271  0.00  0.00    +0.212 HD
ENDBRANCH   4  24
TORSDOF 6
