REMARK  Name = ZINC09429886
REMARK  8 active torsions:
REMARK  status: ('A' for Active; 'I' for Inactive)
REMARK    1  A    between atoms: C_1  and  N_57
REMARK    2  A    between atoms: C_2  and  N_57
REMARK    3  A    between atoms: C_3  and  C_4
REMARK    4  A    between atoms: C_3  and  N_57
REMARK    5  A    between atoms: C_4  and  N_5
REMARK    6  A    between atoms: C_11  and  C_24
REMARK    7  A    between atoms: C_27  and  O_30
REMARK    8  A    between atoms: O_30  and  C_31
REMARK                            x       y       z     vdW  Elec       q    Type
REMARK                         _______ _______ _______ _____ _____    ______ ____
ROOT
ATOM      1  N   UNL     1      -0.546  -1.637  -0.188  0.00  0.00    -0.320 N 
ATOM      2  C   UNL     1       0.733  -1.851   0.210  0.00  0.00    +0.204 A 
ATOM      3  N   UNL     1       1.540  -0.864   0.474  0.00  0.00    -0.202 NA
ATOM      4  C   UNL     1       1.154   0.421   0.369  0.00  0.00    +0.229 A 
ATOM      5  C   UNL     1      -0.115   0.718  -0.026  0.00  0.00    +0.066 A 
ATOM      6  C   UNL     1      -1.006  -0.341  -0.317  0.00  0.00    +0.115 A 
ATOM      7  C   UNL     1      -0.574   2.142  -0.156  0.00  0.00    +0.092 C 
ATOM      8  C   UNL     1       0.611   3.068  -0.231  0.00  0.00    +0.015 A 
ATOM      9  C   UNL     1       0.439   4.374  -0.723  0.00  0.00    -0.010 A 
ATOM     10  C   UNL     1      -0.824   4.835  -1.133  0.00  0.00    +0.009 A 
ATOM     11  C   UNL     1      -0.956   6.103  -1.610  0.00  0.00    +0.001 A 
ATOM     12  C   UNL     1       0.144   6.955  -1.698  0.00  0.00    +0.001 A 
ATOM     13  C   UNL     1       1.382   6.543  -1.307  0.00  0.00    +0.008 A 
ATOM     14  C   UNL     1       1.556   5.242  -0.807  0.00  0.00    -0.017 A 
ATOM     15  C   UNL     1       2.816   4.784  -0.386  0.00  0.00    +0.012 A 
ATOM     16  C   UNL     1       2.947   3.520   0.093  0.00  0.00    +0.047 A 
ATOM     17  C   UNL     1       1.846   2.655   0.174  0.00  0.00    +0.135 A 
ATOM     18  O   UNL     1       2.035   1.402   0.658  0.00  0.00    -0.437 OA
ATOM     19  H   UNL     1      -2.918  -0.766  -0.920  0.00  0.00    +0.157 HD
ATOM     20  N   UNL     1      -2.250  -0.027  -0.703  0.00  0.00    -0.384 N 
ATOM     21  H   UNL     1      -2.530   0.958  -0.779  0.00  0.00    +0.157 HD
ENDROOT
BRANCH   7  22
ATOM     22  C   UNL     1      -1.416   2.506   1.039  0.00  0.00    -0.035 A 
ATOM     23  C   UNL     1      -0.877   2.435   2.311  0.00  0.00    +0.008 A 
ATOM     24  C   UNL     1      -1.646   2.773   3.408  0.00  0.00    +0.046 A 
ATOM     25  C   UNL     1      -2.963   3.173   3.234  0.00  0.00    +0.120 A 
ATOM     26  C   UNL     1      -3.503   3.238   1.958  0.00  0.00    +0.046 A 
ATOM     27  C   UNL     1      -2.728   2.905   0.863  0.00  0.00    +0.008 A 
BRANCH  25  28
ATOM     28  O   UNL     1      -3.723   3.500   4.312  0.00  0.00    -0.495 OA
ATOM     29  C   UNL     1      -3.101   3.410   5.595  0.00  0.00    +0.277 C 
ENDBRANCH  25  28
ENDBRANCH   7  22
BRANCH   1  30
ATOM     30  C   UNL     1      -1.431  -2.769  -0.475  0.00  0.00    +0.106 C 
BRANCH  30  31
ATOM     31  C   UNL     1      -1.404  -3.068  -1.976  0.00  0.00    -0.058 C 
BRANCH  31  34
ATOM     32  C   UNL     1      -3.694  -3.854  -2.003  0.00  0.00    -0.097 C 
ATOM     33  C   UNL     1      -2.113  -4.672  -3.645  0.00  0.00    -0.097 C 
ATOM     34  N   UNL     1      -2.284  -4.224  -2.247  0.00  0.00    +0.377 N 
ATOM     35  H   UNL     1      -2.027  -4.994  -1.617  0.00  0.00    -0.083 HD
ENDBRANCH  31  34
ENDBRANCH  30  31
ENDBRANCH   1  30
TORSDOF 5
