REMARK  Name = ZINC37361600
REMARK  5 active torsions:
REMARK  status: ('A' for Active; 'I' for Inactive)
REMARK    1  A    between atoms: C_1  and  N_2
REMARK    2  A    between atoms: C_3  and  N_27
REMARK    3  A    between atoms: C_5  and  C_19
REMARK    4  A    between atoms: N_11  and  C_12
REMARK    5  A    between atoms: C_12  and  C_13
REMARK                            x       y       z     vdW  Elec       q    Type
REMARK                         _______ _______ _______ _____ _____    ______ ____
ROOT
ATOM      1  C   UNL     1      -1.049   1.180  -0.100  0.00  0.00    +0.174 C 
ATOM      2  N   UNL     1      -0.469  -0.164  -0.059  0.00  0.00    -0.251 N 
ATOM      3  C   UNL     1      -0.032  -0.849  -1.129  0.00  0.00    +0.126 A 
ATOM      4  C   UNL     1       0.444  -2.074  -0.677  0.00  0.00    +0.086 A 
ATOM      5  C   UNL     1       1.020  -3.219  -1.272  0.00  0.00    +0.089 A 
ATOM      6  N   UNL     1       1.360  -4.232  -0.486  0.00  0.00    -0.214 NA
ATOM      7  C   UNL     1       1.176  -4.199   0.831  0.00  0.00    +0.218 A 
ATOM      8  N   UNL     1       0.647  -3.174   1.466  0.00  0.00    -0.193 NA
ATOM      9  C   UNL     1       0.258  -2.079   0.785  0.00  0.00    +0.188 A 
ATOM     10  N   UNL     1      -0.281  -0.922   1.103  0.00  0.00    -0.149 NA
ATOM     11  N   UNL     1       1.561  -5.301   1.573  0.00  0.00    -0.309 N 
ATOM     12  H   UNL     1       1.953  -6.070   1.131  0.00  0.00    +0.149 HD
ENDROOT
BRANCH   5  13
ATOM     13  C   UNL     1       1.237  -3.287  -2.734  0.00  0.00    +0.003 A 
ATOM     14  C   UNL     1       1.798  -2.202  -3.410  0.00  0.00    +0.013 A 
ATOM     15  C   UNL     1       2.000  -2.269  -4.772  0.00  0.00    +0.040 A 
ATOM     16  C   UNL     1       1.646  -3.412  -5.472  0.00  0.00    +0.142 A 
ATOM     17  C   UNL     1       1.087  -4.493  -4.806  0.00  0.00    +0.077 A 
ATOM     18  C   UNL     1       0.887  -4.438  -3.442  0.00  0.00    +0.033 A 
ATOM     19 CL   UNL     1       0.646  -5.921  -5.689  0.00  0.00    -0.081 Cl
ATOM     20  F   UNL     1       1.845  -3.473  -6.806  0.00  0.00    -0.204 F 
ENDBRANCH   5  13
BRANCH   3  21
ATOM     21  N   UNL     1      -0.052  -0.415  -2.442  0.00  0.00    -0.343 N 
ATOM     22  H   UNL     1      -0.146   0.530  -2.638  0.00  0.00    +0.144 HD
ATOM     23  H   UNL     1       0.027  -1.055  -3.166  0.00  0.00    +0.144 HD
ENDBRANCH   3  21
BRANCH  11  24
ATOM     24  C   UNL     1       1.376  -5.306   3.026  0.00  0.00    +0.139 C 
BRANCH  24  25
ATOM     25  C   UNL     1       1.873  -6.612   3.591  0.00  0.00    -0.027 A 
ATOM     26  C   UNL     1       1.024  -7.702   3.712  0.00  0.00    +0.025 A 
ATOM     27  C   UNL     1       1.515  -8.883   4.235  0.00  0.00    +0.111 A 
ATOM     28  N   UNL     1       2.773  -8.981   4.616  0.00  0.00    -0.263 NA
ATOM     29  C   UNL     1       3.609  -7.965   4.516  0.00  0.00    +0.111 A 
ATOM     30  C   UNL     1       3.191  -6.755   3.997  0.00  0.00    +0.025 A 
ENDBRANCH  24  25
ENDBRANCH  11  24
TORSDOF 4
