REMARK  Name = ZINC36599967
REMARK  18 active torsions:
REMARK  status: ('A' for Active; 'I' for Inactive)
REMARK    1  A    between atoms: C_1  and  C_2
REMARK    2  A    between atoms: C_5  and  C_7
REMARK    3  A    between atoms: C_7  and  N_8
REMARK    4  A    between atoms: N_8  and  C_9
REMARK    5  A    between atoms: C_9  and  C_11
REMARK    6  A    between atoms: C_9  and  C_20
REMARK    7  A    between atoms: C_12  and  O_19
REMARK    8  A    between atoms: C_14  and  O_18
REMARK    9  A    between atoms: C_16  and  O_17
REMARK   10  A    between atoms: N_22  and  C_23
REMARK   11  A    between atoms: C_23  and  C_24
REMARK   12  A    between atoms: C_23  and  C_25
REMARK   13  A    between atoms: C_23  and  C_26
REMARK   14  A    between atoms: C_26  and  C_27
REMARK   15  A    between atoms: C_27  and  C_28
REMARK   16  A    between atoms: C_27  and  C_29
REMARK   17  A    between atoms: C_27  and  C_30
REMARK   18  A    between atoms: C_31  and  C_33
REMARK                            x       y       z     vdW  Elec       q    Type
REMARK                         _______ _______ _______ _____ _____    ______ ____
ROOT
ATOM      1  C   UNL     1       3.622  -1.580  -4.168  0.00  0.00    +0.200 C 
ENDROOT
BRANCH   1   2
ATOM      2  C   UNL     1       3.404  -1.243  -5.620  0.00  0.00    +0.065 A 
ATOM      3  C   UNL     1       3.788  -2.140  -6.605  0.00  0.00    +0.129 A 
ATOM      4  C   UNL     1       3.588  -1.831  -7.942  0.00  0.00    +0.091 A 
ATOM      5  C   UNL     1       3.003  -0.624  -8.294  0.00  0.00    +0.124 A 
ATOM      6  C   UNL     1       2.618   0.274  -7.309  0.00  0.00    +0.091 A 
ATOM      7  C   UNL     1       2.815  -0.038  -5.972  0.00  0.00    +0.129 A 
BRANCH   7   8
ATOM      8  O   UNL     1       2.433   0.839  -5.006  0.00  0.00    -0.506 OA
ATOM      9  H   UNL     1       3.087   1.526  -4.818  0.00  0.00    +0.292 HD
ENDBRANCH   7   8
BRANCH   5  10
ATOM     10  O   UNL     1       2.807  -0.320  -9.604  0.00  0.00    -0.507 OA
ATOM     11  H   UNL     1       1.953  -0.609  -9.951  0.00  0.00    +0.292 HD
ENDBRANCH   5  10
BRANCH   3  12
ATOM     12  O   UNL     1       4.362  -3.323  -6.261  0.00  0.00    -0.506 OA
ATOM     13  H   UNL     1       3.739  -4.061  -6.207  0.00  0.00    +0.292 HD
ENDBRANCH   3  12
ENDBRANCH   1   2
BRANCH   1  14
ATOM     14  C   UNL     1       4.312  -2.915  -4.059  0.00  0.00    +0.239 C 
ATOM     15  O   UNL     1       3.671  -3.908  -3.783  0.00  0.00    -0.273 OA
ATOM     16  N   UNL     1       5.640  -3.007  -4.270  0.00  0.00    -0.308 N 
ATOM     17  H   UNL     1       6.160  -2.207  -4.442  0.00  0.00    +0.149 HD
BRANCH  16  18
ATOM     18  C   UNL     1       6.297  -4.316  -4.239  0.00  0.00    +0.030 C 
ATOM     19  C   UNL     1       5.964  -5.023  -2.924  0.00  0.00    +0.031 C 
ATOM     20  C   UNL     1       5.803  -5.163  -5.413  0.00  0.00    +0.031 C 
BRANCH  18  21
ATOM     21  C   UNL     1       7.812  -4.128  -4.347  0.00  0.00    +0.031 C 
BRANCH  21  22
ATOM     22  C   UNL     1       8.334  -3.449  -3.080  0.00  0.00    -0.036 C 
ATOM     23  C   UNL     1       8.345  -4.456  -1.928  0.00  0.00    +0.010 C 
ATOM     24  C   UNL     1       9.755  -2.937  -3.323  0.00  0.00    +0.010 C 
ATOM     25  C   UNL     1       7.423  -2.273  -2.720  0.00  0.00    +0.010 C 
ENDBRANCH  21  22
ENDBRANCH  18  21
ENDBRANCH  16  18
ENDBRANCH   1  14
BRANCH   1  26
ATOM     26  N   UNL     1       2.329  -1.640  -3.481  0.00  0.00    -0.277 N 
ATOM     27  C   UNL     1       1.340  -2.410  -3.975  0.00  0.00    +0.231 C 
ATOM     28  O   UNL     1       1.491  -2.990  -5.030  0.00  0.00    -0.274 OA
BRANCH  27  29
ATOM     29  C   UNL     1       0.044  -2.550  -3.218  0.00  0.00    +0.204 C 
ATOM     30 CL   UNL     1      -1.070  -3.635  -4.129  0.00  0.00    -0.116 Cl
ENDBRANCH  27  29
BRANCH  26  31
ATOM     31  C   UNL     1       2.113  -0.864  -2.257  0.00  0.00    +0.183 C 
BRANCH  31  36
ATOM     32  C   UNL     1       1.895   4.063  -3.314  0.00  0.00    +0.086 C 
ATOM     33  C   UNL     1       1.472   2.637  -3.073  0.00  0.00    +0.102 A 
ATOM     34  C   UNL     1       0.214   2.167  -3.144  0.00  0.00    +0.045 A 
ATOM     35  C   UNL     1       0.275   0.786  -2.848  0.00  0.00    +0.046 A 
ATOM     36  C   UNL     1       1.567   0.494  -2.614  0.00  0.00    +0.122 A 
ATOM     37  O   UNL     1       2.288   1.618  -2.758  0.00  0.00    -0.463 OA
ENDBRANCH  31  36
ENDBRANCH  26  31
ENDBRANCH   1  26
TORSDOF 12
