REMARK  Name = ZINC15227036
REMARK  8 active torsions:
REMARK  status: ('A' for Active; 'I' for Inactive)
REMARK    1  A    between atoms: C_1  and  O_2
REMARK    2  A    between atoms: O_2  and  C_3
REMARK    3  A    between atoms: C_5  and  C_18
REMARK    4  A    between atoms: C_8  and  O_9
REMARK    5  A    between atoms: O_9  and  C_10
REMARK    6  A    between atoms: C_10  and  C_11
REMARK    7  A    between atoms: N_19  and  N_20
REMARK    8  A    between atoms: C_21  and  C_23
REMARK                            x       y       z     vdW  Elec       q    Type
REMARK                         _______ _______ _______ _____ _____    ______ ____
ROOT
ATOM      1  C   UNL     1      -3.120   3.807   2.885  0.00  0.00    +0.162 A 
ATOM      2  C   UNL     1      -4.476   4.049   2.997  0.00  0.00    +0.059 A 
ATOM      3  C   UNL     1      -5.128   4.811   2.025  0.00  0.00    -0.002 A 
ATOM      4  C   UNL     1      -4.407   5.325   0.944  0.00  0.00    +0.013 A 
ATOM      5  C   UNL     1      -3.053   5.083   0.842  0.00  0.00    +0.050 A 
ATOM      6  C   UNL     1      -2.406   4.322   1.805  0.00  0.00    +0.162 A 
ENDROOT
BRANCH   1   8
ATOM      7  C   UNL     1      -3.275   2.568   4.910  0.00  0.00    +0.277 C 
ATOM      8  O   UNL     1      -2.481   3.065   3.830  0.00  0.00    -0.491 OA
ENDBRANCH   1   8
BRANCH   3   9
ATOM      9  C   UNL     1      -6.574   5.074   2.139  0.00  0.00    +0.138 C 
ATOM     10  N   UNL     1      -7.235   5.524   1.116  0.00  0.00    -0.187 NA
BRANCH  10  11
ATOM     11  N   UNL     1      -6.775   5.270  -0.182  0.00  0.00    -0.200 N 
ATOM     12  C   UNL     1      -7.384   5.846  -1.238  0.00  0.00    +0.299 C 
ATOM     13  O   UNL     1      -8.334   6.586  -1.063  0.00  0.00    -0.265 OA
ATOM     14  H   UNL     1      -6.018   4.680  -0.322  0.00  0.00    +0.178 HD
BRANCH  12  15
ATOM     15  C   UNL     1      -6.901   5.579  -2.600  0.00  0.00    +0.192 A 
ATOM     16  C   UNL     1      -7.435   6.102  -3.735  0.00  0.00    +0.063 A 
ATOM     17  C   UNL     1      -6.641   5.566  -4.840  0.00  0.00    +0.021 A 
ATOM     18  C   UNL     1      -6.678   5.716  -6.228  0.00  0.00    +0.011 A 
ATOM     19  C   UNL     1      -5.767   5.058  -7.005  0.00  0.00    +0.001 A 
ATOM     20  C   UNL     1      -4.805   4.243  -6.424  0.00  0.00    +0.004 A 
ATOM     21  C   UNL     1      -4.751   4.082  -5.056  0.00  0.00    +0.047 A 
ATOM     22  C   UNL     1      -5.668   4.740  -4.245  0.00  0.00    +0.136 A 
ATOM     23  O   UNL     1      -5.857   4.783  -2.912  0.00  0.00    -0.450 OA
ENDBRANCH  12  15
ENDBRANCH  10  11
ENDBRANCH   3   9
BRANCH   6  24
ATOM     24  O   UNL     1      -1.073   4.082   1.697  0.00  0.00    -0.484 OA
BRANCH  24  25
ATOM     25  C   UNL     1      -0.403   4.640   0.565  0.00  0.00    +0.264 C 
BRANCH  25  26
ATOM     26  C   UNL     1       1.058   4.272   0.613  0.00  0.00    -0.008 A 
ATOM     27  C   UNL     1       1.498   3.109   0.010  0.00  0.00    +0.007 A 
ATOM     28  C   UNL     1       2.838   2.773   0.049  0.00  0.00    +0.003 A 
ATOM     29  C   UNL     1       3.740   3.601   0.692  0.00  0.00    +0.038 A 
ATOM     30  C   UNL     1       3.300   4.766   1.296  0.00  0.00    +0.124 A 
ATOM     31  C   UNL     1       1.957   5.101   1.256  0.00  0.00    +0.045 A 
ATOM     32  F   UNL     1       4.181   5.575   1.924  0.00  0.00    -0.205 F 
ENDBRANCH  25  26
ENDBRANCH  24  25
ENDBRANCH   6  24
TORSDOF 7
