REMARK  Name = ZINC63038901
REMARK  9 active torsions:
REMARK  status: ('A' for Active; 'I' for Inactive)
REMARK    1  A    between atoms: C_1  and  C_2
REMARK    2  A    between atoms: C_3  and  C_19
REMARK    3  A    between atoms: C_7  and  C_11
REMARK    4  A    between atoms: C_11  and  C_12
REMARK    5  A    between atoms: C_12  and  C_14
REMARK    6  A    between atoms: C_12  and  O_18
REMARK    7  A    between atoms: C_14  and  C_15
REMARK    8  A    between atoms: C_14  and  C_16
REMARK    9  A    between atoms: C_14  and  C_17
REMARK                            x       y       z     vdW  Elec       q    Type
REMARK                         _______ _______ _______ _____ _____    ______ ____
ROOT
ATOM      1  C   UNL     1      -0.271   1.497   0.046  0.00  0.00    +0.045 C 
ATOM      2  C   UNL     1      -0.226  -0.009   0.034  0.00  0.00    -0.030 A 
ATOM      3  C   UNL     1      -0.412  -0.684  -1.109  0.00  0.00    -0.008 A 
ATOM      4  S   UNL     1      -0.269  -2.392  -0.616  0.00  0.00    -0.074 S 
ATOM      5  C   UNL     1       0.038  -2.156   1.114  0.00  0.00    +0.112 A 
ATOM      6  C   UNL     1       0.026  -0.747   1.261  0.00  0.00    +0.032 A 
ATOM      7  C   UNL     1       0.255  -0.271   2.571  0.00  0.00    +0.055 A 
ATOM      8  N   UNL     1       0.463  -1.135   3.543  0.00  0.00    -0.240 NA
ATOM      9  C   UNL     1       0.466  -2.440   3.339  0.00  0.00    +0.222 A 
ATOM     10  N   UNL     1       0.249  -2.949   2.141  0.00  0.00    -0.228 NA
ATOM     11  C   UNL     1      -0.680  -0.131  -2.485  0.00  0.00    +0.052 C 
ENDROOT
BRANCH   7  12
ATOM     12  C   UNL     1       0.261   1.209   2.854  0.00  0.00    +0.088 C 
BRANCH  12  13
ATOM     13  C   UNL     1      -1.154   1.666   3.211  0.00  0.00    +0.126 C 
BRANCH  13  14
ATOM     14  C   UNL     1      -1.173   3.187   3.376  0.00  0.00    -0.011 C 
ATOM     15  C   UNL     1      -0.739   3.847   2.066  0.00  0.00    +0.013 C 
ATOM     16  C   UNL     1      -2.588   3.644   3.733  0.00  0.00    +0.013 C 
ATOM     17  C   UNL     1      -0.209   3.590   4.494  0.00  0.00    +0.013 C 
ENDBRANCH  13  14
BRANCH  13  18
ATOM     18  O   UNL     1      -1.560   1.049   4.435  0.00  0.00    -0.391 OA
ATOM     19  H   UNL     1      -0.993   1.261   5.189  0.00  0.00    +0.210 HD
ENDBRANCH  13  18
ENDBRANCH  12  13
ENDBRANCH   7  12
TORSDOF 4
