REMARK  Name = ZINC06999802
REMARK  11 active torsions:
REMARK  status: ('A' for Active; 'I' for Inactive)
REMARK    1  A    between atoms: C_1  and  C_2
REMARK    2  A    between atoms: C_5  and  O_29
REMARK    3  A    between atoms: C_6  and  N_8
REMARK    4  A    between atoms: C_9  and  C_11
REMARK    5  A    between atoms: C_12  and  N_28
REMARK    6  A    between atoms: N_13  and  C_16
REMARK    7  A    between atoms: C_16  and  C_17
REMARK    8  A    between atoms: N_19  and  C_20
REMARK    9  A    between atoms: C_23  and  C_27
REMARK   10  A    between atoms: C_24  and  C_26
REMARK   11  A    between atoms: O_29  and  C_30
REMARK                            x       y       z     vdW  Elec       q    Type
REMARK                         _______ _______ _______ _____ _____    ______ ____
ROOT
ATOM      1  C   UNL     1      -7.728   1.610   0.217  0.00  0.00    +0.188 A 
ATOM      2  C   UNL     1      -6.838   2.528   0.761  0.00  0.00    +0.148 A 
ATOM      3  N   UNL     1      -6.140   3.046  -0.277  0.00  0.00    -0.222 N 
ATOM      4  N   UNL     1      -6.626   2.433  -1.440  0.00  0.00    -0.063 NA
ATOM      5  N   UNL     1      -7.548   1.596  -1.117  0.00  0.00    -0.123 NA
ENDROOT
BRANCH   1   7
ATOM      6  N   UNL     1      -9.503  -0.060   0.312  0.00  0.00    -0.277 N 
ATOM      7  C   UNL     1      -8.694   0.798   0.965  0.00  0.00    +0.272 C 
ATOM      8  O   UNL     1      -8.765   0.899   2.176  0.00  0.00    -0.268 OA
ATOM      9  H   UNL     1      -9.391  -0.202  -0.641  0.00  0.00    +0.155 HD
BRANCH   6  15
ATOM     10  C   UNL     1     -12.445  -0.415   4.235  0.00  0.00    +0.044 C 
ATOM     11  C   UNL     1     -11.951  -0.941   2.912  0.00  0.00    -0.048 A 
ATOM     12  C   UNL     1     -12.490  -2.101   2.387  0.00  0.00    +0.007 A 
ATOM     13  C   UNL     1     -12.042  -2.588   1.173  0.00  0.00    +0.048 A 
ATOM     14  C   UNL     1     -11.053  -1.911   0.477  0.00  0.00    +0.141 A 
ATOM     15  C   UNL     1     -10.506  -0.746   1.008  0.00  0.00    +0.076 A 
ATOM     16  C   UNL     1     -10.961  -0.263   2.227  0.00  0.00    +0.030 A 
BRANCH  14  17
ATOM     17  O   UNL     1     -10.615  -2.386  -0.719  0.00  0.00    -0.493 OA
ATOM     18  C   UNL     1     -11.222  -3.587  -1.202  0.00  0.00    +0.277 C 
ENDBRANCH  14  17
ENDBRANCH   6  15
ENDBRANCH   1   7
BRANCH   2  19
ATOM     19  N   UNL     1      -6.695   2.849   2.095  0.00  0.00    -0.341 N 
ATOM     20  H   UNL     1      -6.038   3.509   2.367  0.00  0.00    +0.144 HD
ATOM     21  H   UNL     1      -7.250   2.415   2.761  0.00  0.00    +0.144 HD
ENDBRANCH   2  19
BRANCH   3  22
ATOM     22  C   UNL     1      -5.084   4.058  -0.200  0.00  0.00    +0.243 C 
BRANCH  22  23
ATOM     23  C   UNL     1      -3.749   3.379  -0.032  0.00  0.00    +0.239 C 
ATOM     24  O   UNL     1      -3.687   2.169   0.019  0.00  0.00    -0.273 OA
ATOM     25  N   UNL     1      -2.625   4.117   0.063  0.00  0.00    -0.284 N 
ATOM     26  H   UNL     1      -2.681   5.085   0.094  0.00  0.00    +0.155 HD
BRANCH  25  27
ATOM     27  C   UNL     1      -1.377   3.486   0.115  0.00  0.00    +0.034 A 
ATOM     28  C   UNL     1      -1.165   2.304  -0.582  0.00  0.00    +0.023 A 
ATOM     29  C   UNL     1       0.067   1.682  -0.524  0.00  0.00    +0.005 A 
ATOM     30  C   UNL     1       1.091   2.240   0.220  0.00  0.00    -0.047 A 
ATOM     31  C   UNL     1       0.884   3.420   0.910  0.00  0.00    -0.046 A 
ATOM     32  C   UNL     1      -0.347   4.044   0.860  0.00  0.00    +0.027 A 
ATOM     33  C   UNL     1       2.003   4.024   1.718  0.00  0.00    +0.044 C 
ATOM     34  C   UNL     1       2.435   1.561   0.277  0.00  0.00    +0.044 C 
ENDBRANCH  25  27
ENDBRANCH  22  23
ENDBRANCH   3  22
TORSDOF 7
