REMARK  Name = ZINC40796439
REMARK  5 active torsions:
REMARK  status: ('A' for Active; 'I' for Inactive)
REMARK    1  A    between atoms: C_1  and  C_2
REMARK    2  A    between atoms: C_5  and  C_23
REMARK    3  A    between atoms: C_6  and  N_8
REMARK    4  A    between atoms: C_9  and  C_11
REMARK    5  A    between atoms: C_11  and  C_22
REMARK                            x       y       z     vdW  Elec       q    Type
REMARK                         _______ _______ _______ _____ _____    ______ ____
ROOT
ATOM      1  C   UNL     1       0.280  -2.900   4.854  0.00  0.00    +0.258 C 
ATOM      2  C   UNL     1      -0.226  -2.052   5.993  0.00  0.00    +0.270 C 
ATOM      3  O   UNL     1       0.543  -1.356   6.622  0.00  0.00    -0.271 OA
ATOM      4  N   UNL     1      -1.538  -2.070   6.309  0.00  0.00    -0.279 N 
ATOM      5  C   UNL     1      -2.387  -2.973   5.655  0.00  0.00    +0.076 A 
ATOM      6  C   UNL     1      -3.762  -2.868   5.784  0.00  0.00    +0.027 A 
ATOM      7  C   UNL     1      -4.586  -3.759   5.122  0.00  0.00    +0.002 A 
ATOM      8  C   UNL     1      -4.042  -4.753   4.331  0.00  0.00    +0.004 A 
ATOM      9  C   UNL     1      -2.669  -4.867   4.201  0.00  0.00    +0.047 A 
ATOM     10  C   UNL     1      -1.838  -3.982   4.867  0.00  0.00    +0.144 A 
ATOM     11  O   UNL     1      -0.486  -4.104   4.772  0.00  0.00    -0.465 OA
ATOM     12  C   UNL     1       1.751  -3.248   5.093  0.00  0.00    +0.076 C 
ATOM     13  H   UNL     1      -1.889  -1.465   6.981  0.00  0.00    +0.155 HD
ENDROOT
BRANCH   1  15
ATOM     14  N   UNL     1       0.052  -2.797   2.393  0.00  0.00    -0.282 N 
ATOM     15  C   UNL     1       0.150  -2.135   3.562  0.00  0.00    +0.270 C 
ATOM     16  O   UNL     1       0.134  -0.922   3.575  0.00  0.00    -0.271 OA
ATOM     17  H   UNL     1      -0.016  -3.765   2.388  0.00  0.00    +0.155 HD
BRANCH  14  23
ATOM     18  C   UNL     1       1.264   1.227  -0.158  0.00  0.00    +0.044 C 
ATOM     19  C   UNL     1       0.628  -0.137  -0.079  0.00  0.00    -0.049 A 
ATOM     20  C   UNL     1       0.038  -0.690  -1.201  0.00  0.00    +0.004 A 
ATOM     21  C   UNL     1      -0.546  -1.941  -1.133  0.00  0.00    +0.005 A 
ATOM     22  C   UNL     1      -0.543  -2.643   0.057  0.00  0.00    -0.029 A 
ATOM     23  C   UNL     1       0.048  -2.090   1.185  0.00  0.00    +0.037 A 
ATOM     24  C   UNL     1       0.639  -0.835   1.112  0.00  0.00    +0.027 A 
ATOM     25  C   UNL     1      -1.181  -4.006   0.131  0.00  0.00    +0.045 C 
ENDBRANCH  14  23
ENDBRANCH   1  15
TORSDOF 2
