REMARK  Name = ZINC54827612
REMARK  5 active torsions:
REMARK  status: ('A' for Active; 'I' for Inactive)
REMARK    1  A    between atoms: C_3  and  O_21
REMARK    2  A    between atoms: C_6  and  N_7
REMARK    3  A    between atoms: C_8  and  C_10
REMARK    4  A    between atoms: C_12  and  N_17
REMARK    5  A    between atoms: O_21  and  C_22
REMARK                            x       y       z     vdW  Elec       q    Type
REMARK                         _______ _______ _______ _____ _____    ______ ____
ROOT
ATOM      1  N   UNL     1      -1.201  -0.721   0.010  0.00  0.00    -0.281 N 
ATOM      2  C   UNL     1      -1.186  -2.064  -0.099  0.00  0.00    +0.250 C 
ATOM      3  O   UNL     1      -0.127  -2.661  -0.113  0.00  0.00    -0.270 OA
ATOM      4  H   UNL     1      -2.045  -0.250   0.089  0.00  0.00    +0.155 HD
ENDROOT
BRANCH   1  10
ATOM      5  C   UNL     1       0.065   1.247  -0.587  0.00  0.00    +0.027 A 
ATOM      6  C   UNL     1       1.252   1.954  -0.587  0.00  0.00    +0.050 A 
ATOM      7  C   UNL     1       2.381   1.414   0.009  0.00  0.00    +0.162 A 
ATOM      8  C   UNL     1       2.321   0.161   0.606  0.00  0.00    +0.167 A 
ATOM      9  C   UNL     1       1.134  -0.547   0.606  0.00  0.00    +0.065 A 
ATOM     10  C   UNL     1       0.003  -0.005   0.010  0.00  0.00    +0.037 A 
ATOM     11  F   UNL     1       3.422  -0.365   1.185  0.00  0.00    -0.202 F 
BRANCH   7  12
ATOM     12  O   UNL     1       3.550   2.111   0.007  0.00  0.00    -0.431 OA
BRANCH  12  13
ATOM     13  C   UNL     1       3.540   3.393  -0.625  0.00  0.00    +0.541 C 
ATOM     14  F   UNL     1       3.189   3.246  -1.971  0.00  0.00    -0.166 F 
ATOM     15  F   UNL     1       2.610   4.220   0.012  0.00  0.00    -0.166 F 
ENDBRANCH  12  13
ENDBRANCH   7  12
ENDBRANCH   1  10
BRANCH   2  16
ATOM     16  C   UNL     1      -2.456  -2.811  -0.202  0.00  0.00    +0.057 A 
ATOM     17  C   UNL     1      -3.674  -2.129  -0.192  0.00  0.00    +0.047 A 
ATOM     18  C   UNL     1      -4.856  -2.832  -0.289  0.00  0.00    +0.127 A 
ATOM     19  C   UNL     1      -4.838  -4.212  -0.395  0.00  0.00    +0.034 A 
ATOM     20  C   UNL     1      -3.636  -4.896  -0.406  0.00  0.00    +0.023 A 
ATOM     21  C   UNL     1      -2.444  -4.204  -0.315  0.00  0.00    +0.053 A 
ATOM     22 CL   UNL     1      -0.935  -5.062  -0.336  0.00  0.00    -0.083 Cl
BRANCH  18  23
ATOM     23  N   UNL     1      -6.148  -2.110  -0.278  0.00  0.00    +0.056 N 
ATOM     24  O   UNL     1      -6.166  -0.904  -0.184  0.00  0.00    -0.126 OA
ATOM     25  O   UNL     1      -7.185  -2.725  -0.363  0.00  0.00    -0.126 OA
ENDBRANCH  18  23
ENDBRANCH   2  16
TORSDOF 5
