REMARK  Name = ZINC66474438
REMARK  10 active torsions:
REMARK  status: ('A' for Active; 'I' for Inactive)
REMARK    1  A    between atoms: C_1  and  C_2
REMARK    2  A    between atoms: C_2  and  C_3
REMARK    3  A    between atoms: C_3  and  C_4
REMARK    4  A    between atoms: C_4  and  N_5
REMARK    5  A    between atoms: C_6  and  C_8
REMARK    6  A    between atoms: C_12  and  C_27
REMARK    7  A    between atoms: N_14  and  C_16
REMARK    8  A    between atoms: C_16  and  C_17
REMARK    9  A    between atoms: N_19  and  C_20
REMARK   10  A    between atoms: C_20  and  C_21
REMARK                            x       y       z     vdW  Elec       q    Type
REMARK                         _______ _______ _______ _____ _____    ______ ____
ROOT
ATOM      1  C   UNL     1      -4.429  -4.420   0.021  0.00  0.00    +0.058 C 
ATOM      2  C   UNL     1      -5.146  -3.929   1.281  0.00  0.00    +0.009 C 
ATOM      3  C   UNL     1      -6.555  -4.528   1.322  0.00  0.00    -0.015 C 
ATOM      4  C   UNL     1      -6.456  -6.054   1.269  0.00  0.00    -0.071 C 
ATOM      5  N   UNL     1      -5.785  -6.461   0.028  0.00  0.00    +0.388 N 
ATOM      6  C   UNL     1      -4.409  -5.950   0.014  0.00  0.00    -0.065 C 
ATOM      7  C   UNL     1      -7.862  -6.657   1.308  0.00  0.00    -0.013 C 
ATOM      8  H   UNL     1      -6.288  -6.089  -0.763  0.00  0.00    -0.081 HD
ENDROOT
BRANCH   1  10
ATOM      9  N   UNL     1      -2.787  -2.571   0.015  0.00  0.00    -0.315 N 
ATOM     10  C   UNL     1      -3.015  -3.899   0.010  0.00  0.00    +0.214 C 
ATOM     11  O   UNL     1      -2.083  -4.674  -0.003  0.00  0.00    -0.276 OA
ATOM     12  H   UNL     1      -3.533  -1.950   0.025  0.00  0.00    +0.149 HD
BRANCH   9  13
ATOM     13  C   UNL     1      -1.413  -2.063   0.004  0.00  0.00    +0.104 C 
BRANCH  13  14
ATOM     14  C   UNL     1      -1.433  -0.534   0.013  0.00  0.00    +0.018 C 
BRANCH  14  16
ATOM     15  C   UNL     1      -0.019   1.526   0.010  0.00  0.00    +0.004 C 
ATOM     16  C   UNL     1       0.002  -0.004   0.002  0.00  0.00    -0.002 C 
ENDBRANCH  14  16
ENDBRANCH  13  14
ENDBRANCH   9  13
ENDBRANCH   1  10
BRANCH   5  17
ATOM     17  C   UNL     1      -5.762  -7.928  -0.055  0.00  0.00    +0.019 C 
BRANCH  17  18
ATOM     18  C   UNL     1      -5.185  -8.346  -1.383  0.00  0.00    +0.197 C 
ATOM     19  O   UNL     1      -4.828  -7.506  -2.181  0.00  0.00    -0.278 OA
ATOM     20  N   UNL     1      -5.066  -9.655  -1.683  0.00  0.00    -0.312 N 
ATOM     21  H   UNL     1      -5.351 -10.327  -1.045  0.00  0.00    +0.149 HD
BRANCH  20  22
ATOM     22  C   UNL     1      -4.504 -10.062  -2.974  0.00  0.00    +0.146 C 
BRANCH  22  23
ATOM     23  C   UNL     1      -4.481 -11.566  -3.059  0.00  0.00    +0.008 A 
ATOM     24  C   UNL     1      -5.430 -12.408  -3.535  0.00  0.00    +0.014 A 
ATOM     25  C   UNL     1      -5.189 -13.770  -3.515  0.00  0.00    +0.028 A 
ATOM     26  C   UNL     1      -4.010 -14.222  -3.020  0.00  0.00    +0.078 A 
ATOM     27  S   UNL     1      -3.193 -12.700  -2.567  0.00  0.00    -0.080 S 
ATOM     28 CL   UNL     1      -3.441 -15.855  -2.870  0.00  0.00    -0.076 Cl
ENDBRANCH  22  23
ENDBRANCH  20  22
ENDBRANCH  17  18
ENDBRANCH   5  17
TORSDOF 8
