REMARK  Name = ZINC36610324
REMARK  16 active torsions:
REMARK  status: ('A' for Active; 'I' for Inactive)
REMARK    1  A    between atoms: C_1  and  C_2
REMARK    2  A    between atoms: C_2  and  C_3
REMARK    3  A    between atoms: C_2  and  C_4
REMARK    4  A    between atoms: C_2  and  C_5
REMARK    5  A    between atoms: C_5  and  C_6
REMARK    6  A    between atoms: C_6  and  C_7
REMARK    7  A    between atoms: C_6  and  C_8
REMARK    8  A    between atoms: C_6  and  N_9
REMARK    9  A    between atoms: C_10  and  C_12
REMARK   10  A    between atoms: C_12  and  C_14
REMARK   11  A    between atoms: C_12  and  N_21
REMARK   12  A    between atoms: C_19  and  O_20
REMARK   13  A    between atoms: N_21  and  C_22
REMARK   14  A    between atoms: C_28  and  C_30
REMARK   15  A    between atoms: C_34  and  O_37
REMARK   16  A    between atoms: C_35  and  O_36
REMARK                            x       y       z     vdW  Elec       q    Type
REMARK                         _______ _______ _______ _____ _____    ______ ____
ROOT
ATOM      1  C   UNL     1       5.338  -0.220  -3.784  0.00  0.00    +0.201 C 
ENDROOT
BRANCH   1   2
ATOM      2  C   UNL     1       4.403   0.883  -4.208  0.00  0.00    +0.024 A 
ATOM      3  C   UNL     1       3.745   1.637  -3.256  0.00  0.00    +0.009 A 
ATOM      4  C   UNL     1       2.886   2.649  -3.645  0.00  0.00    +0.001 A 
ATOM      5  C   UNL     1       2.684   2.909  -4.988  0.00  0.00    +0.004 A 
ATOM      6  C   UNL     1       3.340   2.159  -5.944  0.00  0.00    +0.046 A 
ATOM      7  C   UNL     1       4.206   1.146  -5.556  0.00  0.00    +0.122 A 
BRANCH   7   8
ATOM      8  O   UNL     1       4.857   0.410  -6.495  0.00  0.00    -0.506 OA
ATOM      9  H   UNL     1       4.410  -0.416  -6.726  0.00  0.00    +0.292 HD
ENDBRANCH   7   8
ENDBRANCH   1   2
BRANCH   1  11
ATOM     10  N   UNL     1       3.858  -1.283  -2.111  0.00  0.00    -0.308 N 
ATOM     11  C   UNL     1       5.012  -0.639  -2.373  0.00  0.00    +0.239 C 
ATOM     12  O   UNL     1       5.790  -0.396  -1.474  0.00  0.00    -0.273 OA
ATOM     13  H   UNL     1       3.267  -1.535  -2.837  0.00  0.00    +0.149 HD
BRANCH  10  14
ATOM     14  C   UNL     1       3.495  -1.602  -0.728  0.00  0.00    +0.030 C 
ATOM     15  C   UNL     1       3.675  -0.360   0.147  0.00  0.00    +0.031 C 
ATOM     16  C   UNL     1       4.398  -2.724  -0.210  0.00  0.00    +0.031 C 
BRANCH  14  17
ATOM     17  C   UNL     1       2.035  -2.057  -0.675  0.00  0.00    +0.031 C 
BRANCH  17  19
ATOM     18  C   UNL     1       1.296  -1.584  -3.014  0.00  0.00    +0.010 C 
ATOM     19  C   UNL     1       1.184  -1.139  -1.555  0.00  0.00    -0.036 C 
ATOM     20  C   UNL     1       1.682   0.301  -1.421  0.00  0.00    +0.010 C 
ATOM     21  C   UNL     1      -0.278  -1.217  -1.108  0.00  0.00    +0.010 C 
ENDBRANCH  17  19
ENDBRANCH  14  17
ENDBRANCH  10  14
ENDBRANCH   1  11
BRANCH   1  22
ATOM     22  N   UNL     1       6.720   0.262  -3.844  0.00  0.00    -0.251 N 
ATOM     23  C   UNL     1       7.588  -0.290  -4.714  0.00  0.00    +0.255 C 
ATOM     24  O   UNL     1       7.248  -1.239  -5.394  0.00  0.00    -0.269 OA
BRANCH  22  25
ATOM     25  C   UNL     1       7.138   1.294  -2.998  0.00  0.00    +0.038 A 
ATOM     26  C   UNL     1       6.596   2.566  -3.131  0.00  0.00    +0.023 A 
ATOM     27  C   UNL     1       7.012   3.583  -2.294  0.00  0.00    +0.002 A 
ATOM     28  C   UNL     1       7.966   3.336  -1.324  0.00  0.00    +0.000 A 
ATOM     29  C   UNL     1       8.508   2.071  -1.189  0.00  0.00    +0.002 A 
ATOM     30  C   UNL     1       8.092   1.048  -2.018  0.00  0.00    +0.023 A 
ENDBRANCH  22  25
BRANCH  23  31
ATOM     31  C   UNL     1       8.952   0.258  -4.843  0.00  0.00    +0.082 A 
ATOM     32  C   UNL     1       9.203   1.598  -4.533  0.00  0.00    +0.017 A 
ATOM     33  C   UNL     1      10.478   2.106  -4.654  0.00  0.00    +0.005 A 
ATOM     34  C   UNL     1      11.516   1.295  -5.082  0.00  0.00    +0.049 A 
ATOM     35  C   UNL     1      11.284  -0.034  -5.392  0.00  0.00    +0.159 A 
ATOM     36  C   UNL     1      10.003  -0.563  -5.270  0.00  0.00    +0.171 A 
BRANCH  36  37
ATOM     37  O   UNL     1       9.772  -1.867  -5.567  0.00  0.00    -0.503 OA
ATOM     38  H   UNL     1       9.537  -2.024  -6.492  0.00  0.00    +0.292 HD
ENDBRANCH  36  37
BRANCH  35  39
ATOM     39  O   UNL     1      12.309  -0.823  -5.812  0.00  0.00    -0.503 OA
ATOM     40  H   UNL     1      12.775  -1.277  -5.097  0.00  0.00    +0.292 HD
ENDBRANCH  35  39
ENDBRANCH  23  31
ENDBRANCH   1  22
TORSDOF 11
