REMARK  Name = ZINC63339383
REMARK  5 active torsions:
REMARK  status: ('A' for Active; 'I' for Inactive)
REMARK    1  A    between atoms: C_1  and  C_2
REMARK    2  A    between atoms: C_2  and  C_3
REMARK    3  A    between atoms: C_2  and  C_4
REMARK    4  A    between atoms: C_7  and  C_10
REMARK    5  A    between atoms: CA_23  and  C_26
REMARK                            x       y       z     vdW  Elec       q    Type
REMARK                         _______ _______ _______ _____ _____    ______ ____
ROOT
ATOM      1  C   UNL     1       2.682  -1.745   4.812  0.00  0.00    +0.111 C 
ATOM      2  C   UNL     1       2.276  -0.907   6.026  0.00  0.00    +0.128 C 
ATOM      3  C   UNL     1       0.802  -1.206   6.276  0.00  0.00    -0.035 C 
ATOM      4  C   UNL     1       0.180  -0.035   6.296  0.00  0.00    -0.001 A 
ATOM      5  C   UNL     1      -1.219   0.329   6.575  0.00  0.00    +0.010 A 
ATOM      6  C   UNL     1      -1.522   1.651   6.492  0.00  0.00    +0.001 A 
ATOM      7  C   UNL     1      -0.586   2.636   6.161  0.00  0.00    +0.002 A 
ATOM      8  C   UNL     1       0.722   2.393   5.895  0.00  0.00    +0.026 A 
ATOM      9  C   UNL     1       1.163   1.039   5.957  0.00  0.00    +0.043 A 
ATOM     10  N   UNL     1       2.366   0.531   5.773  0.00  0.00    -0.376 N 
ATOM     11  C   UNL     1       0.284  -2.621   6.361  0.00  0.00    +0.063 C 
ATOM     12  CA  UNL     1       0.873  -3.367   5.149  0.00  0.00    +0.172 C 
ATOM     13  N   UNL     1       2.321  -3.147   5.075  0.00  0.00    -0.295 NA
ATOM     14  H   UNL     1       2.747  -3.764   4.400  0.00  0.00    +0.123 HD
ATOM     15  H   UNL     1       3.167   1.012   5.513  0.00  0.00    +0.160 HD
ENDROOT
BRANCH   1  19
ATOM     16  C   UNL     1       0.614  -0.355   1.343  0.00  0.00    -0.045 A 
ATOM     17  C   UNL     1       1.838  -0.984   1.212  0.00  0.00    +0.004 A 
ATOM     18  C   UNL     1       2.507  -1.433   2.335  0.00  0.00    +0.005 A 
ATOM     19  C   UNL     1       1.953  -1.254   3.588  0.00  0.00    -0.028 A 
ATOM     20  C   UNL     1       0.729  -0.625   3.719  0.00  0.00    +0.005 A 
ATOM     21  C   UNL     1       0.062  -0.171   2.597  0.00  0.00    +0.004 A 
BRANCH  16  23
ATOM     22  C   UNL     1       0.753   1.157  -0.618  0.00  0.00    +0.012 C 
ATOM     23  C   UNL     1      -0.116   0.136   0.119  0.00  0.00    +0.013 C 
ATOM     24  C   UNL     1      -0.410  -1.046  -0.807  0.00  0.00    +0.012 C 
ENDBRANCH  16  23
ENDBRANCH   1  19
BRANCH  12  25
ATOM     25  C   UNL     1       0.228  -2.856   3.887  0.00  0.00    +0.373 C 
ATOM     26  O   UNL     1       0.769  -3.037   2.809  0.00  0.00    -0.245 OA
ATOM     27  OXT UNL     1      -0.835  -2.262   3.943  0.00  0.00    -0.245 OA
ENDBRANCH  12  25
TORSDOF 3
