REMARK  Name = ZINC64684123
REMARK  8 active torsions:
REMARK  status: ('A' for Active; 'I' for Inactive)
REMARK    1  A    between atoms: C_4  and  C_7
REMARK    2  A    between atoms: C_11  and  S_14
REMARK    3  A    between atoms: S_14  and  C_15
REMARK    4  A    between atoms: C_15  and  C_16
REMARK    5  A    between atoms: N_18  and  CA_19
REMARK    6  A    between atoms: CA_19  and  CB_21
REMARK    7  A    between atoms: CA_19  and  C_31
REMARK    8  A    between atoms: CB_21  and  CG_22
REMARK                            x       y       z     vdW  Elec       q    Type
REMARK                         _______ _______ _______ _____ _____    ______ ____
ROOT
ATOM      1  C   UNK A   0       2.711  -4.730   3.568  0.00  0.00    +0.224 C 
ATOM      2  O   UNK A   0       3.582  -5.092   4.330  0.00  0.00    -0.275 OA
ATOM      3  N   TRP A   1       1.454  -5.195   3.712  0.00  0.00    -0.301 N 
ATOM      4  H   TRP A   1       0.757  -4.906   3.102  0.00  0.00    +0.150 HD
ENDROOT
BRANCH   1   5
ATOM      5  C   UNK A   0       3.033  -3.760   2.461  0.00  0.00    +0.168 C 
BRANCH   5   6
ATOM      6  S   UNK A   0       4.793  -3.324   2.533  0.00  0.00    -0.104 S 
BRANCH   6  10
ATOM      7  C   UNK A   0       3.711  -0.707  -0.038  0.00  0.00    +0.234 C 
ATOM      8  N   UNK A   0       3.561  -2.035  -0.689  0.00  0.00    -0.222 NA
ATOM      9  N   UNK A   0       4.660  -2.825  -0.121  0.00  0.00    -0.218 NA
ATOM     10  C   UNK A   0       5.014  -2.166   1.154  0.00  0.00    +0.263 C 
ATOM     11  O   UNK A   0       4.128  -1.040   1.306  0.00  0.00    -0.328 OA
ATOM     12  H   UNK A   0       3.651  -1.959  -1.691  0.00  0.00    +0.144 HD
ATOM     13  H   UNK A   0       5.450  -2.848  -0.748  0.00  0.00    +0.144 HD
BRANCH   7  17
ATOM     14  C   UNK A   0      -0.017   1.378   0.010  0.00  0.00    +0.000 A 
ATOM     15  C   UNK A   0       1.171   2.086   0.002  0.00  0.00    +0.000 A 
ATOM     16  C   UNK A   0       2.377   1.411  -0.013  0.00  0.00    +0.007 A 
ATOM     17  C   UNK A   0       2.396   0.029  -0.020  0.00  0.00    -0.003 A 
ATOM     18  C   UNK A   0       1.208  -0.679  -0.012  0.00  0.00    +0.007 A 
ATOM     19  C   UNK A   0       0.002  -0.004   0.002  0.00  0.00    +0.000 A 
ENDBRANCH   7  17
ENDBRANCH   6  10
ENDBRANCH   5   6
ENDBRANCH   1   5
BRANCH   3  20
ATOM     20  CA  TRP A   1       1.141  -6.138   4.788  0.00  0.00    +0.190 C 
BRANCH  20  21
ATOM     21  C   TRP A   1       1.454  -7.541   4.334  0.00  0.00    +0.376 C 
ATOM     22  O   TRP A   1       1.797  -8.382   5.146  0.00  0.00    -0.244 OA
ATOM     23  OXT TRP A   1       1.364  -7.834   3.154  0.00  0.00    -0.244 OA
ENDBRANCH  20  21
BRANCH  20  24
ATOM     24  CB  TRP A   1      -0.345  -6.036   5.139  0.00  0.00    +0.067 C 
BRANCH  24  25
ATOM     25  CG  TRP A   1      -0.634  -4.671   5.709  0.00  0.00    -0.039 C 
ATOM     26  CD2 TRP A   1      -1.094  -3.591   5.038  0.00  0.00    -0.001 A 
ATOM     27  CE3 TRP A   1      -1.448  -3.371   3.630  0.00  0.00    +0.010 A 
ATOM     28  CZ3 TRP A   1      -1.890  -2.151   3.248  0.00  0.00    +0.001 A 
ATOM     29  CH2 TRP A   1      -2.016  -1.094   4.159  0.00  0.00    +0.002 A 
ATOM     30  CZ2 TRP A   1      -1.710  -1.219   5.468  0.00  0.00    +0.026 A 
ATOM     31  CE2 TRP A   1      -1.237  -2.458   5.980  0.00  0.00    +0.043 A 
ATOM     32  NE1 TRP A   1      -0.879  -2.824   7.187  0.00  0.00    -0.380 N 
ATOM     33  CD1 TRP A   1      -0.474  -4.234   7.147  0.00  0.00    +0.144 C 
ATOM     34  HE1 TRP A   1      -0.885  -2.259   7.975  0.00  0.00    +0.160 HD
ENDBRANCH  24  25
ENDBRANCH  20  24
ENDBRANCH   3  20
TORSDOF 8
