REMARK  Name = ZINC56760695
REMARK  5 active torsions:
REMARK  status: ('A' for Active; 'I' for Inactive)
REMARK    1  A    between atoms: C_1  and  C_2
REMARK    2  A    between atoms: C_5  and  N_16
REMARK    3  A    between atoms: C_6  and  O_8
REMARK    4  A    between atoms: O_8  and  C_9
REMARK    5  A    between atoms: C_9  and  C_10
REMARK                            x       y       z     vdW  Elec       q    Type
REMARK                         _______ _______ _______ _____ _____    ______ ____
ROOT
ATOM      1  N   UNL     1      -0.019  -4.171   0.034  0.00  0.00    -0.266 N 
ATOM      2  C   UNL     1      -0.045  -4.841  -1.135  0.00  0.00    +0.307 C 
ATOM      3  O   UNL     1       0.007  -4.232  -2.187  0.00  0.00    -0.252 OA
ATOM      4  N   UNL     1      -0.129  -6.186  -1.139  0.00  0.00    -0.282 N 
ATOM      5  C   UNL     1      -0.296  -6.929   0.118  0.00  0.00    +0.128 C 
ATOM      6  C   UNL     1      -1.542  -7.815   0.001  0.00  0.00    +0.125 C 
ATOM      7  N   UNL     1      -1.468  -8.566  -1.260  0.00  0.00    -0.314 N 
ATOM      8  C   UNL     1      -1.300  -7.823  -2.517  0.00  0.00    +0.125 C 
ATOM      9  C   UNL     1      -0.060  -6.936  -2.401  0.00  0.00    +0.128 C 
ATOM     10  C   UNL     1      -1.554  -9.953  -1.264  0.00  0.00    +0.099 A 
ATOM     11  C   UNL     1      -1.550 -10.647  -0.058  0.00  0.00    +0.042 A 
ATOM     12  C   UNL     1      -1.636 -12.028  -0.077  0.00  0.00    +0.005 A 
ATOM     13  C   UNL     1      -1.725 -12.670  -1.305  0.00  0.00    +0.018 A 
ATOM     14  C   UNL     1      -1.724 -11.918  -2.463  0.00  0.00    +0.084 A 
ATOM     15  N   UNL     1      -1.646 -10.601  -2.415  0.00  0.00    -0.350 N 
ATOM     16  H   UNL     1      -0.027  -4.658   0.872  0.00  0.00    +0.156 HD
ATOM     17  H   UNL     1      -1.652 -10.097  -3.243  0.00  0.00    +0.166 HD
ENDROOT
BRANCH   1  22
ATOM     18  C   UNL     1       0.140   1.506   0.043  0.00  0.00    +0.044 C 
ATOM     19  C   UNL     1       0.097  -0.001   0.043  0.00  0.00    -0.047 A 
ATOM     20  C   UNL     1       0.584  -0.704  -1.043  0.00  0.00    +0.005 A 
ATOM     21  C   UNL     1       0.547  -2.086  -1.048  0.00  0.00    +0.027 A 
ATOM     22  C   UNL     1       0.020  -2.769   0.037  0.00  0.00    +0.077 A 
ATOM     23  C   UNL     1      -0.470  -2.060   1.131  0.00  0.00    +0.142 A 
ATOM     24  C   UNL     1      -0.425  -0.675   1.131  0.00  0.00    +0.051 A 
BRANCH  23  25
ATOM     25  O   UNL     1      -0.989  -2.725   2.198  0.00  0.00    -0.488 OA
BRANCH  25  26
ATOM     26  C   UNL     1      -1.473  -1.933   3.283  0.00  0.00    +0.260 C 
BRANCH  26  27
ATOM     27  C   UNL     1      -2.014  -2.849   4.383  0.00  0.00    +0.156 C 
ATOM     28  C   UNL     1      -2.649  -2.002   5.506  0.00  0.00    +0.037 C 
ATOM     29  C   UNL     1      -2.207  -2.764   6.784  0.00  0.00    +0.031 C 
ATOM     30  C   UNL     1      -0.808  -3.274   6.354  0.00  0.00    +0.160 C 
ATOM     31  O   UNL     1      -0.940  -3.601   4.960  0.00  0.00    -0.373 OA
ENDBRANCH  26  27
ENDBRANCH  25  26
ENDBRANCH  23  25
ENDBRANCH   1  22
TORSDOF 4
