REMARK  Name = ZINC04426609
REMARK  9 active torsions:
REMARK  status: ('A' for Active; 'I' for Inactive)
REMARK    1  A    between atoms: C_1  and  C_2
REMARK    2  A    between atoms: C_2  and  C_4
REMARK    3  A    between atoms: C_4  and  O_34
REMARK    4  A    between atoms: C_5  and  O_33
REMARK    5  A    between atoms: C_10  and  C_32
REMARK    6  A    between atoms: C_21  and  C_31
REMARK    7  A    between atoms: C_24  and  O_27
REMARK    8  A    between atoms: O_27  and  C_28
REMARK    9  A    between atoms: C_28  and  C_30
REMARK                            x       y       z     vdW  Elec       q    Type
REMARK                         _______ _______ _______ _____ _____    ______ ____
ROOT
ATOM      1  C   UNL     1      -2.753  -2.267   1.322  0.00  0.00    +0.154 C 
ATOM      2  C   UNL     1      -2.860  -0.953   2.118  0.00  0.00    +0.154 C 
ATOM      3  C   UNL     1      -1.685  -0.060   1.655  0.00  0.00    +0.039 C 
ATOM      4  C   UNL     1      -1.339  -0.616   0.261  0.00  0.00    +0.004 C 
ATOM      5  C   UNL     1      -1.487  -2.136   0.433  0.00  0.00    +0.009 C 
ATOM      6  C   UNL     1      -0.318  -2.693   1.252  0.00  0.00    +0.010 C 
ATOM      7  C   UNL     1       1.008  -2.313   0.604  0.00  0.00    +0.005 C 
ATOM      8  C   UNL     1       1.150  -0.785   0.612  0.00  0.00    -0.001 C 
ATOM      9  C   UNL     1       0.026  -0.177  -0.216  0.00  0.00    -0.004 C 
ATOM     10  C   UNL     1       0.094   1.350  -0.223  0.00  0.00    +0.004 C 
ATOM     11  C   UNL     1       1.540   1.833  -0.341  0.00  0.00    +0.004 C 
ATOM     12  C   UNL     1       2.363   0.720  -0.978  0.00  0.00    -0.001 C 
ATOM     13  C   UNL     1       2.510  -0.423   0.030  0.00  0.00    -0.026 C 
ATOM     14  C   UNL     1       3.173  -1.599  -0.679  0.00  0.00    +0.011 C 
ATOM     15  C   UNL     1       4.577  -1.169  -1.125  0.00  0.00    +0.045 C 
ATOM     16  C   UNL     1       4.474   0.024  -2.074  0.00  0.00    +0.177 C 
ATOM     17  C   UNL     1       3.760   1.192  -1.378  0.00  0.00    +0.048 C 
ATOM     18  C   UNL     1       3.422   0.042   1.167  0.00  0.00    +0.012 C 
ATOM     19  C   UNL     1      -1.644  -2.864  -0.903  0.00  0.00    +0.015 C 
ENDROOT
BRANCH   1  21
ATOM     20  C   UNL     1      -2.964  -4.823   1.806  0.00  0.00    +0.089 C 
ATOM     21  C   UNL     1      -2.606  -3.433   2.265  0.00  0.00    +0.165 C 
ATOM     22  O   UNL     1      -2.202  -3.253   3.388  0.00  0.00    -0.295 OA
ENDBRANCH   1  21
BRANCH   2  23
ATOM     23  O   UNL     1      -4.104  -0.309   1.836  0.00  0.00    -0.388 OA
ATOM     24  H   UNL     1      -4.222   0.536   2.292  0.00  0.00    +0.210 HD
ENDBRANCH   2  23
BRANCH   1  25
ATOM     25  O   UNL     1      -3.912  -2.440   0.503  0.00  0.00    -0.378 OA
ATOM     26  H   UNL     1      -4.736  -2.527   1.001  0.00  0.00    +0.211 HD
ENDBRANCH   1  25
BRANCH  16  27
ATOM     27  O   UNL     1       5.807   0.441  -2.470  0.00  0.00    -0.462 OA
BRANCH  27  28
ATOM     28  C   UNL     1       6.328  -0.140  -3.562  0.00  0.00    +0.304 C 
ATOM     29  O   UNL     1       5.691  -0.970  -4.167  0.00  0.00    -0.251 OA
ATOM     30  C   UNL     1       7.707   0.243  -4.034  0.00  0.00    +0.136 C 
ENDBRANCH  27  28
ENDBRANCH  16  27
TORSDOF 5
