REMARK  Name = ZINC56400958
REMARK  9 active torsions:
REMARK  status: ('A' for Active; 'I' for Inactive)
REMARK    1  A    between atoms: C_1  and  C_2
REMARK    2  A    between atoms: C_2  and  O_3
REMARK    3  A    between atoms: O_3  and  C_4
REMARK    4  A    between atoms: C_12  and  C_14
REMARK    5  A    between atoms: N_16  and  C_17
REMARK    6  A    between atoms: C_20  and  N_23
REMARK    7  A    between atoms: N_26  and  C_27
REMARK    8  A    between atoms: C_27  and  C_28
REMARK    9  A    between atoms: C_27  and  C_29
REMARK                            x       y       z     vdW  Elec       q    Type
REMARK                         _______ _______ _______ _____ _____    ______ ____
ROOT
ATOM      1  C   UNL     1       3.664  -3.890  -5.714  0.00  0.00    +0.248 C 
ATOM      2  O   UNL     1       3.551  -5.046  -6.079  0.00  0.00    -0.270 OA
ATOM      3  N   UNL     1       4.425  -3.031  -6.421  0.00  0.00    -0.282 N 
ATOM      4  H   UNL     1       4.462  -2.095  -6.169  0.00  0.00    +0.155 HD
ENDROOT
BRANCH   1  13
ATOM      5  C   UNL     1       0.753  -1.872  -1.333  0.00  0.00    +0.162 A 
ATOM      6  C   UNL     1       0.229  -2.736  -0.383  0.00  0.00    +0.049 A 
ATOM      7  C   UNL     1       0.349  -4.107  -0.535  0.00  0.00    +0.004 A 
ATOM      8  C   UNL     1       0.992  -4.634  -1.636  0.00  0.00    +0.012 A 
ATOM      9  C   UNL     1       1.524  -3.776  -2.600  0.00  0.00    +0.021 A 
ATOM     10  C   UNL     1       1.398  -2.386  -2.449  0.00  0.00    +0.169 A 
ATOM     11  O   UNL     1       1.917  -1.570  -3.401  0.00  0.00    -0.483 OA
ATOM     12  C   UNL     1       3.111  -2.003  -4.054  0.00  0.00    +0.270 C 
ATOM     13  C   UNL     1       2.974  -3.433  -4.508  0.00  0.00    +0.052 C 
ATOM     14  C   UNL     1       2.218  -4.294  -3.789  0.00  0.00    +0.023 C 
BRANCH   5  15
ATOM     15  O   UNL     1       0.631  -0.527  -1.174  0.00  0.00    -0.489 OA
BRANCH  15  17
ATOM     16  C   UNL     1      -0.084   1.458   0.004  0.00  0.00    +0.048 C 
ATOM     17  C   UNL     1      -0.045  -0.071  -0.001  0.00  0.00    +0.226 C 
ENDBRANCH  15  17
ENDBRANCH   5  15
ENDBRANCH   1  13
BRANCH   3  18
ATOM     18  C   UNL     1       5.162  -3.490  -7.519  0.00  0.00    +0.034 A 
ATOM     19  C   UNL     1       6.410  -2.945  -7.795  0.00  0.00    +0.025 A 
ATOM     20  C   UNL     1       7.137  -3.397  -8.878  0.00  0.00    +0.025 A 
ATOM     21  C   UNL     1       6.621  -4.398  -9.691  0.00  0.00    +0.035 A 
ATOM     22  C   UNL     1       5.374  -4.944  -9.415  0.00  0.00    +0.025 A 
ATOM     23  C   UNL     1       4.650  -4.495  -8.329  0.00  0.00    +0.025 A 
BRANCH  21  24
ATOM     24  N   UNL     1       7.359  -4.857 -10.790  0.00  0.00    -0.269 N 
ATOM     25  C   UNL     1       6.724  -5.227 -11.920  0.00  0.00    +0.304 C 
ATOM     26  O   UNL     1       5.509  -5.242 -11.958  0.00  0.00    -0.253 OA
ATOM     27  N   UNL     1       7.437  -5.579 -13.009  0.00  0.00    -0.297 N 
ATOM     28  H   UNL     1       8.326  -4.908 -10.738  0.00  0.00    +0.156 HD
ATOM     29  H   UNL     1       8.406  -5.567 -12.979  0.00  0.00    +0.151 HD
BRANCH  27  30
ATOM     30  C   UNL     1       6.747  -5.981 -14.237  0.00  0.00    +0.068 C 
ATOM     31  C   UNL     1       6.393  -4.737 -15.053  0.00  0.00    +0.027 C 
ATOM     32  C   UNL     1       7.662  -6.889 -15.062  0.00  0.00    +0.027 C 
ENDBRANCH  27  30
ENDBRANCH  21  24
ENDBRANCH   3  18
TORSDOF 6
