REMARK  Name = ZINC37085984
REMARK  8 active torsions:
REMARK  status: ('A' for Active; 'I' for Inactive)
REMARK    1  A    between atoms: C_1  and  C_2
REMARK    2  A    between atoms: C_2  and  C_4
REMARK    3  A    between atoms: C_2  and  N_13
REMARK    4  A    between atoms: C_7  and  N_10
REMARK    5  A    between atoms: N_13  and  C_14
REMARK    6  A    between atoms: C_19  and  N_20
REMARK    7  A    between atoms: N_20  and  C_21
REMARK    8  A    between atoms: N_20  and  C_22
REMARK                            x       y       z     vdW  Elec       q    Type
REMARK                         _______ _______ _______ _____ _____    ______ ____
ROOT
ATOM      1  C   UNL     1      -0.019   1.526   0.010  0.00  0.00    +0.033 C 
ATOM      2  C   UNL     1       0.002  -0.004   0.002  0.00  0.00    +0.098 C 
ENDROOT
BRANCH   2   3
ATOM      3  C   UNL     1      -1.412  -0.526   0.013  0.00  0.00    -0.027 A 
ATOM      4  C   UNL     1      -2.141  -0.569  -1.161  0.00  0.00    +0.007 A 
ATOM      5  C   UNL     1      -3.438  -1.047  -1.151  0.00  0.00    +0.033 A 
ATOM      6  C   UNL     1      -4.005  -1.483   0.032  0.00  0.00    +0.126 A 
ATOM      7  C   UNL     1      -3.275  -1.441   1.205  0.00  0.00    +0.033 A 
ATOM      8  C   UNL     1      -1.977  -0.966   1.195  0.00  0.00    +0.007 A 
BRANCH   6   9
ATOM      9  N   UNL     1      -5.394  -1.994   0.043  0.00  0.00    +0.056 N 
ATOM     10  O   UNL     1      -6.033  -2.031  -0.983  0.00  0.00    -0.126 OA
ATOM     11  O   UNL     1      -5.890  -2.376   1.078  0.00  0.00    -0.126 OA
ENDBRANCH   6   9
ENDBRANCH   2   3
BRANCH   2  12
ATOM     12  N   UNL     1       0.688  -0.476  -1.203  0.00  0.00    -0.336 N 
ATOM     13  H   UNL     1       0.175  -0.710  -1.993  0.00  0.00    +0.147 HD
BRANCH  12  14
ATOM     14  C   UNL     1       2.083  -0.591  -1.215  0.00  0.00    +0.049 A 
ATOM     15  C   UNL     1       2.818  -0.264  -0.086  0.00  0.00    +0.025 A 
ATOM     16  C   UNL     1       4.196  -0.378  -0.100  0.00  0.00    +0.002 A 
ATOM     17  C   UNL     1       4.845  -0.819  -1.238  0.00  0.00    +0.002 A 
ATOM     18  C   UNL     1       4.121  -1.148  -2.369  0.00  0.00    +0.025 A 
ATOM     19  C   UNL     1       2.738  -1.041  -2.362  0.00  0.00    +0.050 A 
BRANCH  19  20
ATOM     20  N   UNL     1       2.002  -1.378  -3.504  0.00  0.00    -0.335 N 
ATOM     21  C   UNL     1       1.522  -2.750  -3.687  0.00  0.00    +0.129 C 
ATOM     22  C   UNL     1       1.712  -0.359  -4.516  0.00  0.00    +0.129 C 
ENDBRANCH  19  20
ENDBRANCH  12  14
ENDBRANCH   2  12
TORSDOF 5
