REMARK  Name = ZINC36028062
REMARK  12 active torsions:
REMARK  status: ('A' for Active; 'I' for Inactive)
REMARK    1  A    between atoms: C_1  and  C_2
REMARK    2  A    between atoms: C_2  and  C_3
REMARK    3  A    between atoms: C_3  and  N_4
REMARK    4  A    between atoms: N_4  and  C_5
REMARK    5  A    between atoms: C_5  and  N_7
REMARK    6  A    between atoms: C_14  and  C_32
REMARK    7  A    between atoms: N_18  and  C_19
REMARK    8  A    between atoms: N_22  and  C_25
REMARK    9  A    between atoms: C_25  and  C_26
REMARK   10  A    between atoms: C_32  and  C_34
REMARK   11  A    between atoms: C_32  and  C_35
REMARK   12  A    between atoms: C_35  and  C_36
REMARK                            x       y       z     vdW  Elec       q    Type
REMARK                         _______ _______ _______ _____ _____    ______ ____
ROOT
ATOM      1  N   UNL     1       2.076  -4.394  -3.772  0.00  0.00    -0.313 N 
ATOM      2  C   UNL     1       1.141  -4.525  -2.647  0.00  0.00    +0.107 C 
ATOM      3  C   UNL     1       0.185  -5.689  -2.934  0.00  0.00    +0.025 C 
ATOM      4  C   UNL     1       0.996  -6.947  -3.237  0.00  0.00    +0.006 C 
ATOM      5  C   UNL     1       1.880  -6.727  -4.463  0.00  0.00    +0.025 C 
ATOM      6  C   UNL     1       2.846  -5.574  -4.193  0.00  0.00    +0.107 C 
ATOM      7  N   UNL     1       0.082  -8.084  -3.479  0.00  0.00    +0.401 N 
ATOM      8  C   UNL     1      -0.049  -8.701  -2.138  0.00  0.00    +0.022 C 
ATOM      9  C   UNL     1       1.230  -8.332  -1.417  0.00  0.00    +0.201 C 
ATOM     10  O   UNL     1       1.655  -8.862  -0.412  0.00  0.00    -0.277 OA
ATOM     11  N   UNL     1       1.816  -7.313  -2.080  0.00  0.00    -0.311 N 
ATOM     12  H   UNL     1      -0.814  -7.756  -3.810  0.00  0.00    -0.082 HD
ATOM     13  H   UNL     1       0.489  -8.735  -4.134  0.00  0.00    -0.082 HD
ENDROOT
BRANCH  11  14
ATOM     14  C   UNL     1       3.078  -6.673  -1.700  0.00  0.00    +0.071 C 
ATOM     15  C   UNL     1       4.250  -7.467  -2.281  0.00  0.00    +0.004 C 
ATOM     16  C   UNL     1       5.566  -6.839  -1.816  0.00  0.00    -0.077 C 
ATOM     17  N   UNL     1       5.633  -6.866  -0.350  0.00  0.00    +0.382 N 
ATOM     18  C   UNL     1       4.553  -6.046   0.213  0.00  0.00    -0.077 C 
ATOM     19  C   UNL     1       3.199  -6.644  -0.174  0.00  0.00    +0.004 C 
ATOM     20  H   UNL     1       5.536  -7.817  -0.027  0.00  0.00    -0.081 HD
BRANCH  17  21
ATOM     21  C   UNL     1       6.930  -6.333   0.089  0.00  0.00    -0.043 C 
BRANCH  21  22
ATOM     22  C   UNL     1       7.050  -6.473   1.585  0.00  0.00    -0.064 A 
ATOM     23  C   UNL     1       6.608  -5.457   2.412  0.00  0.00    +0.002 A 
ATOM     24  C   UNL     1       6.718  -5.586   3.784  0.00  0.00    +0.000 A 
ATOM     25  C   UNL     1       7.270  -6.730   4.329  0.00  0.00    +0.000 A 
ATOM     26  C   UNL     1       7.712  -7.746   3.502  0.00  0.00    +0.000 A 
ATOM     27  C   UNL     1       7.598  -7.619   2.130  0.00  0.00    +0.002 A 
ENDBRANCH  21  22
ENDBRANCH  17  21
ENDBRANCH  11  14
BRANCH   1  28
ATOM     28  C   UNL     1       2.223  -3.216  -4.410  0.00  0.00    +0.133 C 
ATOM     29  S   UNL     1       3.205  -3.116  -5.809  0.00  0.00    -0.019 S 
BRANCH  28  30
ATOM     30  N   UNL     1       1.595  -2.117  -3.948  0.00  0.00    -0.326 N 
ATOM     31  H   UNL     1       0.981  -2.188  -3.199  0.00  0.00    +0.148 HD
BRANCH  30  32
ATOM     32  C   UNL     1       1.839  -0.816  -4.574  0.00  0.00    +0.103 C 
BRANCH  32  34
ATOM     33  C   UNL     1       1.264   1.615  -4.519  0.00  0.00    +0.005 C 
ATOM     34  C   UNL     1       1.009   0.256  -3.864  0.00  0.00    +0.015 C 
ENDBRANCH  32  34
ENDBRANCH  30  32
ENDBRANCH  28  30
ENDBRANCH   1  28
BRANCH   8  35
ATOM     35  C   UNL     1      -1.262  -8.129  -1.403  0.00  0.00    -0.020 C 
ATOM     36  C   UNL     1      -2.540  -8.514  -2.152  0.00  0.00    +0.006 C 
BRANCH  35  37
ATOM     37  C   UNL     1      -1.313  -8.696   0.017  0.00  0.00    -0.001 C 
ATOM     38  C   UNL     1      -2.452  -8.030   0.792  0.00  0.00    +0.004 C 
ENDBRANCH  35  37
ENDBRANCH   8  35
TORSDOF 9
