REMARK  Name = ZINC63679596
REMARK  8 active torsions:
REMARK  status: ('A' for Active; 'I' for Inactive)
REMARK    1  A    between atoms: C_7  and  C_20
REMARK    2  A    between atoms: N_10  and  C_11
REMARK    3  A    between atoms: C_11  and  C_12
REMARK    4  A    between atoms: C_20  and  C_22
REMARK    5  A    between atoms: N_24  and  C_25
REMARK    6  A    between atoms: C_25  and  C_26
REMARK    7  A    between atoms: C_26  and  S_27
REMARK    8  A    between atoms: S_27  and  C_28
REMARK                            x       y       z     vdW  Elec       q    Type
REMARK                         _______ _______ _______ _____ _____    ______ ____
ROOT
ATOM      1  C   UNL     1       0.915  -2.753  -1.276  0.00  0.00    +0.226 C 
ATOM      2  O   UNL     1       1.602  -2.891  -2.260  0.00  0.00    -0.286 OA
ENDROOT
BRANCH   1   9
ATOM      3  C   UNL     1      -0.062   1.444  -0.060  0.00  0.00    +0.000 A 
ATOM      4  C   UNL     1       1.124   2.155  -0.073  0.00  0.00    +0.002 A 
ATOM      5  C   UNL     1       2.332   1.489  -0.078  0.00  0.00    +0.023 A 
ATOM      6  C   UNL     1       2.366   0.093  -0.069  0.00  0.00    +0.034 A 
ATOM      7  C   UNL     1       1.171  -0.609  -0.056  0.00  0.00    -0.014 A 
ATOM      8  C   UNL     1      -0.036   0.062  -0.052  0.00  0.00    +0.006 A 
ATOM      9  C   UNL     1       1.483  -2.089  -0.048  0.00  0.00    +0.114 C 
ATOM     10  C   UNL     1       3.019  -2.160  -0.058  0.00  0.00    +0.122 C 
ATOM     11  N   UNL     1       3.467  -0.765  -0.071  0.00  0.00    -0.320 N 
BRANCH  11  12
ATOM     12  C   UNL     1       4.867  -0.333  -0.084  0.00  0.00    +0.201 C 
BRANCH  12  13
ATOM     13  C   UNL     1       5.358  -0.175   1.332  0.00  0.00    +0.233 C 
ATOM     14  O   UNL     1       4.612  -0.401   2.261  0.00  0.00    -0.274 OA
ATOM     15  N   UNL     1       6.626   0.217   1.566  0.00  0.00    -0.296 N 
ATOM     16  C   UNL     1       7.548   0.503   0.455  0.00  0.00    +0.136 C 
ATOM     17  C   UNL     1       8.185   1.876   0.697  0.00  0.00    +0.179 C 
ATOM     18  O   UNL     1       8.745   1.910   2.011  0.00  0.00    -0.377 OA
ATOM     19  C   UNL     1       7.787   1.752   3.060  0.00  0.00    +0.179 C 
ATOM     20  C   UNL     1       7.128   0.378   2.940  0.00  0.00    +0.136 C 
ENDBRANCH  12  13
ENDBRANCH  11  12
ENDBRANCH   1   9
BRANCH   1  21
ATOM     21  C   UNL     1      -0.494  -3.239  -1.276  0.00  0.00    +0.280 C 
ATOM     22  O   UNL     1      -1.184  -3.101  -0.287  0.00  0.00    -0.267 OA
ATOM     23  N   UNL     1      -1.002  -3.833  -2.374  0.00  0.00    -0.308 N 
ATOM     24  H   UNL     1      -0.450  -3.944  -3.164  0.00  0.00    +0.149 HD
BRANCH  23  25
ATOM     25  C   UNL     1      -2.386  -4.311  -2.375  0.00  0.00    +0.115 C 
BRANCH  25  26
ATOM     26  C   UNL     1      -2.708  -4.939  -3.732  0.00  0.00    +0.093 C 
BRANCH  26  27
ATOM     27  S   UNL     1      -4.423  -5.531  -3.732  0.00  0.00    -0.126 S 
BRANCH  27  28
ATOM     28  C   UNL     1      -4.675  -6.032  -5.295  0.00  0.00    +0.014 C 
ATOM     29  C   UNL     1      -3.736  -6.091  -6.320  0.00  0.00    +0.009 A 
ATOM     30  C   UNL     1      -2.362  -5.770  -6.373  0.00  0.00    +0.011 A 
ATOM     31  C   UNL     1      -1.677  -5.930  -7.535  0.00  0.00    +0.001 A 
ATOM     32  C   UNL     1      -2.299  -6.406  -8.689  0.00  0.00    +0.002 A 
ATOM     33  C   UNL     1      -3.615  -6.734  -8.710  0.00  0.00    +0.026 A 
ATOM     34  C   UNL     1      -4.395  -6.594  -7.535  0.00  0.00    +0.044 A 
ATOM     35  N   UNL     1      -5.671  -6.839  -7.299  0.00  0.00    -0.379 N 
ATOM     36  C   UNL     1      -5.971  -6.524  -5.899  0.00  0.00    +0.155 C 
ATOM     37  H   UNL     1      -6.308  -7.177  -7.949  0.00  0.00    +0.160 HD
ENDBRANCH  27  28
ENDBRANCH  26  27
ENDBRANCH  25  26
ENDBRANCH  23  25
ENDBRANCH   1  21
TORSDOF 8
