REMARK  Name = ZINC31354532
REMARK  6 active torsions:
REMARK  status: ('A' for Active; 'I' for Inactive)
REMARK    1  A    between atoms: C_1  and  N_2
REMARK    2  A    between atoms: C_6  and  C_7
REMARK    3  A    between atoms: C_7  and  C_9
REMARK    4  A    between atoms: C_9  and  S_10
REMARK    5  A    between atoms: S_10  and  C_11
REMARK    6  A    between atoms: C_15  and  N_17
REMARK                            x       y       z     vdW  Elec       q    Type
REMARK                         _______ _______ _______ _____ _____    ______ ____
ROOT
ATOM      1  C   UNL     1       5.354   5.547  -0.022  0.00  0.00    +0.192 A 
ATOM      2  N   UNL     1       5.716   4.272  -0.025  0.00  0.00    -0.207 NA
ATOM      3  C   UNL     1       7.002   3.929  -0.044  0.00  0.00    +0.122 A 
ATOM      4  C   UNL     1       7.970   4.930  -0.049  0.00  0.00    +0.086 A 
ATOM      5  C   UNL     1       7.551   6.257  -0.039  0.00  0.00    +0.122 A 
ATOM      6  N   UNL     1       6.248   6.525  -0.026  0.00  0.00    -0.207 NA
ATOM      7  N   UNL     1       7.373   2.594  -0.054  0.00  0.00    -0.343 N 
ATOM      8  H   UNL     1       8.438   2.318  -0.070  0.00  0.00    +0.144 HD
ATOM      9  H   UNL     1       6.602   1.809  -0.046  0.00  0.00    +0.144 HD
ENDROOT
BRANCH   5  10
ATOM     10  N   UNL     1       8.480   7.286  -0.044  0.00  0.00    -0.343 N 
ATOM     11  H   UNL     1       8.141   8.333  -0.036  0.00  0.00    +0.144 HD
ATOM     12  H   UNL     1       9.556   7.056  -0.055  0.00  0.00    +0.144 HD
ENDBRANCH   5  10
BRANCH   1  13
ATOM     13  S   UNL     1       3.639   5.952  -0.004  0.00  0.00    -0.078 S 
BRANCH  13  14
ATOM     14  C   UNL     1       2.924   4.289  -0.004  0.00  0.00    +0.158 C 
BRANCH  14  15
ATOM     15  C   UNL     1       1.420   4.389   0.010  0.00  0.00    +0.189 C 
ATOM     16  O   UNL     1       0.884   5.478   0.020  0.00  0.00    -0.290 OA
BRANCH  15  22
ATOM     17  C   UNL     1      -1.648   4.306   0.038  0.00  0.00    +0.149 C 
ATOM     18  N   UNL     1      -0.744   3.154   0.025  0.00  0.00    -0.347 N 
ATOM     19  C   UNL     1      -1.120   1.859   0.017  0.00  0.00    +0.086 A 
ATOM     20  C   UNL     1      -0.013   1.076   0.008  0.00  0.00    +0.020 A 
ATOM     21  C   UNL     1       1.105   1.913   0.002  0.00  0.00    +0.031 A 
ATOM     22  C   UNL     1       0.634   3.214   0.012  0.00  0.00    +0.085 A 
ENDBRANCH  15  22
ENDBRANCH  14  15
ENDBRANCH  13  14
ENDBRANCH   1  13
TORSDOF 5
