REMARK  Name = ZINC36148871
REMARK  4 active torsions:
REMARK  status: ('A' for Active; 'I' for Inactive)
REMARK    1  A    between atoms: C_1  and  C_2
REMARK    2  A    between atoms: N_15  and  C_17
REMARK    3  A    between atoms: C_17  and  C_18
REMARK    4  A    between atoms: C_18  and  C_19
REMARK                            x       y       z     vdW  Elec       q    Type
REMARK                         _______ _______ _______ _____ _____    ______ ____
ROOT
ATOM      1  C   UNL     1      -0.018   1.503   0.010  0.00  0.00    +0.045 C 
ATOM      2  C   UNL     1       0.002  -0.004   0.002  0.00  0.00    -0.029 A 
ATOM      3  C   UNL     1       0.006  -0.689  -1.196  0.00  0.00    +0.050 A 
ATOM      4  C   UNL     1       0.024  -2.079  -1.207  0.00  0.00    +0.125 A 
ATOM      5  C   UNL     1       0.044  -2.777  -0.013  0.00  0.00    -0.004 A 
ATOM      6  C   UNL     1       0.040  -2.085   1.187  0.00  0.00    +0.027 A 
ATOM      7  C   UNL     1       0.023  -0.703   1.196  0.00  0.00    +0.044 A 
ATOM      8 CL   UNL     1       0.021   0.155   2.704  0.00  0.00    -0.083 Cl
ATOM      9  C   UNL     1       0.078  -4.284   0.022  0.00  0.00    +0.042 C 
ATOM     10  C   UNL     1      -0.382  -4.843  -1.328  0.00  0.00    +0.051 C 
ATOM     11  C   UNL     1       0.353  -4.094  -2.435  0.00  0.00    +0.095 C 
ATOM     12  O   UNL     1       0.014  -2.717  -2.409  0.00  0.00    -0.487 OA
ATOM     13  C   UNL     1       1.879  -4.280  -2.283  0.00  0.00    +0.027 C 
ATOM     14  C   UNL     1       2.362  -4.098  -3.744  0.00  0.00    -0.075 C 
ATOM     15  N   UNL     1       1.305  -4.716  -4.574  0.00  0.00    +0.383 N 
ATOM     16  C   UNL     1       0.043  -4.712  -3.807  0.00  0.00    -0.030 C 
ATOM     17  H   UNL     1       1.562  -5.665  -4.800  0.00  0.00    -0.082 HD
ENDROOT
BRANCH  15  18
ATOM     18  C   UNL     1       1.133  -3.944  -5.812  0.00  0.00    -0.067 C 
BRANCH  18  19
ATOM     19  C   UNL     1       2.395  -4.065  -6.668  0.00  0.00    +0.106 C 
BRANCH  19  20
ATOM     20  C   UNL     1       2.219  -3.273  -7.938  0.00  0.00    +0.354 C 
ATOM     21  O   UNL     1       1.180  -2.668  -8.139  0.00  0.00    -0.246 OA
ATOM     22  O   UNL     1       3.115  -3.238  -8.763  0.00  0.00    -0.246 OA
ENDBRANCH  19  20
ENDBRANCH  18  19
ENDBRANCH  15  18
TORSDOF 3
