REMARK  Name = ZINC02350928
REMARK  8 active torsions:
REMARK  status: ('A' for Active; 'I' for Inactive)
REMARK    1  A    between atoms: C_1  and  C_2
REMARK    2  A    between atoms: N_8  and  C_9
REMARK    3  A    between atoms: C_9  and  C_10
REMARK    4  A    between atoms: C_16  and  C_24
REMARK    5  A    between atoms: C_18  and  C_22
REMARK    6  A    between atoms: C_19  and  N_21
REMARK    7  A    between atoms: C_24  and  C_25
REMARK    8  A    between atoms: C_24  and  C_26
REMARK                            x       y       z     vdW  Elec       q    Type
REMARK                         _______ _______ _______ _____ _____    ______ ____
ROOT
ATOM      1  C   UNL     1      -2.080  -2.332  -0.833  0.00  0.00    +0.064 C 
ATOM      2  C   UNL     1      -0.756  -1.868  -0.283  0.00  0.00    +0.023 A 
ATOM      3  C   UNL     1      -0.523  -0.546  -0.136  0.00  0.00    +0.068 A 
ATOM      4  C   UNL     1       0.715  -0.106   0.378  0.00  0.00    +0.141 A 
ATOM      5  C   UNL     1       1.666  -1.044   0.722  0.00  0.00    +0.068 A 
ATOM      6  C   UNL     1       1.379  -2.404   0.553  0.00  0.00    +0.259 A 
ATOM      7  O   UNL     1       2.212  -3.245   0.853  0.00  0.00    -0.267 OA
ATOM      8  N   UNL     1       0.187  -2.785   0.058  0.00  0.00    -0.308 N 
ATOM      9  C   UNL     1       2.998  -0.619   1.276  0.00  0.00    +0.076 C 
ATOM     10  C   UNL     1       3.232   0.840   0.999  0.00  0.00    +0.094 C 
ATOM     11  C   UNL     1       2.214   1.660   0.646  0.00  0.00    +0.198 C 
ATOM     12  O   UNL     1       0.952   1.214   0.525  0.00  0.00    -0.441 OA
ENDROOT
BRANCH  11  13
ATOM     13  N   UNL     1       2.479   2.985   0.404  0.00  0.00    -0.328 N 
ATOM     14  H   UNL     1       1.760   3.584   0.150  0.00  0.00    +0.145 HD
ATOM     15  H   UNL     1       3.385   3.321   0.487  0.00  0.00    +0.145 HD
ENDBRANCH  11  13
BRANCH   9  16
ATOM     16  C   UNL     1       3.019  -0.858   2.787  0.00  0.00    -0.004 C 
ATOM     17  C   UNL     1       2.798  -2.345   3.071  0.00  0.00    +0.008 C 
ATOM     18  C   UNL     1       4.374  -0.427   3.353  0.00  0.00    +0.008 C 
ENDBRANCH   9  16
BRANCH  10  19
ATOM     19  C   UNL     1       4.557   1.373   1.111  0.00  0.00    +0.100 C 
ATOM     20  N   UNL     1       5.608   1.795   1.199  0.00  0.00    -0.191 NA
ENDBRANCH  10  19
BRANCH   8  21
ATOM     21  C   UNL     1      -0.099  -4.212  -0.116  0.00  0.00    +0.160 C 
BRANCH  21  22
ATOM     22  C   UNL     1       0.437  -4.673  -1.447  0.00  0.00    -0.028 A 
ATOM     23  C   UNL     1      -0.400  -4.734  -2.545  0.00  0.00    +0.005 A 
ATOM     24  C   UNL     1       0.092  -5.152  -3.767  0.00  0.00    +0.000 A 
ATOM     25  C   UNL     1       1.419  -5.519  -3.888  0.00  0.00    +0.000 A 
ATOM     26  C   UNL     1       2.255  -5.464  -2.788  0.00  0.00    +0.000 A 
ATOM     27  C   UNL     1       1.764  -5.040  -1.568  0.00  0.00    +0.005 A 
ENDBRANCH  21  22
ENDBRANCH   8  21
TORSDOF 5
