REMARK  Name = ZINC39626485
REMARK  10 active torsions:
REMARK  status: ('A' for Active; 'I' for Inactive)
REMARK    1  A    between atoms: C_1  and  C_2
REMARK    2  A    between atoms: C_12  and  O_13
REMARK    3  A    between atoms: O_13  and  C_14
REMARK    4  A    between atoms: C_14  and  C_15
REMARK    5  A    between atoms: C_19  and  C_28
REMARK    6  A    between atoms: N_30  and  C_31
REMARK    7  A    between atoms: C_31  and  C_32
REMARK    8  A    between atoms: C_32  and  N_33
REMARK    9  A    between atoms: N_33  and  C_34
REMARK   10  A    between atoms: N_33  and  C_35
REMARK                            x       y       z     vdW  Elec       q    Type
REMARK                         _______ _______ _______ _____ _____    ______ ____
ROOT
ATOM      1  C   UNL     1       0.217  -6.186   3.538  0.00  0.00    +0.253 C 
ATOM      2  O   UNL     1       0.250  -6.525   2.374  0.00  0.00    -0.272 OA
ATOM      3  N   UNL     1       0.194  -7.118   4.511  0.00  0.00    -0.297 N 
ATOM      4  C   UNL     1       0.146  -6.901   5.976  0.00  0.00    +0.121 C 
ATOM      5  C   UNL     1      -0.808  -7.996   6.502  0.00  0.00    +0.100 C 
ATOM      6  C   UNL     1      -0.759  -9.104   5.436  0.00  0.00    -0.004 C 
ATOM      7  C   UNL     1       0.206  -8.593   4.357  0.00  0.00    +0.115 C 
ATOM      8  C   UNL     1      -2.145  -9.322   4.836  0.00  0.00    -0.010 C 
ATOM      9  C   UNL     1      -2.082 -10.467   3.821  0.00  0.00    -0.082 C 
ATOM     10  N   UNL     1      -1.617 -11.689   4.487  0.00  0.00    +0.379 N 
ATOM     11  C   UNL     1      -0.248 -11.502   4.981  0.00  0.00    -0.082 C 
ATOM     12  C   UNL     1      -0.233 -10.400   6.045  0.00  0.00    -0.010 C 
ATOM     13  H   UNL     1      -2.227 -11.900   5.263  0.00  0.00    -0.086 HD
ATOM     14  H   UNL     1      -1.635 -12.456   3.831  0.00  0.00    -0.086 HD
ENDROOT
BRANCH   5  15
ATOM     15  C   UNL     1      -2.208  -7.454   6.634  0.00  0.00    +0.218 C 
ATOM     16  O   UNL     1      -2.589  -6.573   5.892  0.00  0.00    -0.275 OA
ATOM     17  N   UNL     1      -3.036  -7.947   7.576  0.00  0.00    -0.317 N 
ATOM     18  H   UNL     1      -2.731  -8.651   8.169  0.00  0.00    +0.149 HD
BRANCH  17  19
ATOM     19  C   UNL     1      -4.396  -7.420   7.704  0.00  0.00    +0.085 C 
BRANCH  19  20
ATOM     20  C   UNL     1      -5.120  -8.145   8.840  0.00  0.00    -0.061 C 
BRANCH  20  21
ATOM     21  N   UNL     1      -6.484  -7.617   8.969  0.00  0.00    +0.377 N 
ATOM     22  C   UNL     1      -7.217  -8.393   9.978  0.00  0.00    -0.097 C 
ATOM     23  C   UNL     1      -6.426  -6.208   9.382  0.00  0.00    -0.097 C 
ATOM     24  H   UNL     1      -6.957  -7.687   8.081  0.00  0.00    -0.083 HD
ENDBRANCH  20  21
ENDBRANCH  19  20
ENDBRANCH  17  19
ENDBRANCH   5  15
BRANCH   1  25
ATOM     25  C   UNL     1       0.199  -4.722   3.896  0.00  0.00    +0.324 C 
BRANCH  25  26
ATOM     26  O   UNL     1       0.229  -3.939   2.701  0.00  0.00    -0.479 OA
BRANCH  26  38
ATOM     27  C   UNL     1       0.250   1.994   0.838  0.00  0.00    +0.045 C 
ATOM     28  C   UNL     1       0.261   0.492   0.707  0.00  0.00    -0.033 A 
ATOM     29  C   UNL     1       0.298  -0.101  -0.513  0.00  0.00    +0.096 A 
ATOM     30  C   UNL     1       0.308  -1.509  -0.608  0.00  0.00    +0.338 A 
ATOM     31  O   UNL     1       0.342  -2.029  -1.709  0.00  0.00    -0.245 OA
ATOM     32  O   UNL     1       0.282  -2.289   0.483  0.00  0.00    -0.418 OA
ATOM     33  C   UNL     1       0.245  -1.762   1.726  0.00  0.00    +0.181 A 
ATOM     34  C   UNL     1       0.238  -0.367   1.895  0.00  0.00    +0.024 A 
ATOM     35  C   UNL     1       0.205   0.181   3.181  0.00  0.00    +0.012 A 
ATOM     36  C   UNL     1       0.184  -0.651   4.277  0.00  0.00    +0.004 A 
ATOM     37  C   UNL     1       0.196  -2.028   4.114  0.00  0.00    +0.049 A 
ATOM     38  C   UNL     1       0.218  -2.587   2.849  0.00  0.00    +0.164 A 
ENDBRANCH  26  38
ENDBRANCH  25  26
ENDBRANCH   1  25
TORSDOF 7
