REMARK  Name = ZINC39001066
REMARK  7 active torsions:
REMARK  status: ('A' for Active; 'I' for Inactive)
REMARK    1  A    between atoms: C_1  and  C_2
REMARK    2  A    between atoms: C_5  and  N_8
REMARK    3  A    between atoms: C_9  and  C_11
REMARK    4  A    between atoms: C_11  and  S_12
REMARK    5  A    between atoms: S_12  and  C_13
REMARK    6  A    between atoms: C_16  and  C_20
REMARK    7  A    between atoms: N_18  and  N_19
REMARK                            x       y       z     vdW  Elec       q    Type
REMARK                         _______ _______ _______ _____ _____    ______ ____
ROOT
ATOM      1  C   UNL     1       0.593  -8.709   2.636  0.00  0.00    +0.189 C 
ATOM      2  N   UNL     1       0.598  -9.316   1.498  0.00  0.00    -0.161 NA
ATOM      3  N   UNL     1       0.728 -10.701   1.656  0.00  0.00    -0.243 N 
ATOM      4  C   UNL     1       0.813 -10.942   3.107  0.00  0.00    +0.222 C 
ATOM      5  N   UNL     1       0.724  -9.595   3.695  0.00  0.00    -0.223 N 
ATOM      6  H   UNL     1       0.756 -11.368   0.952  0.00  0.00    +0.170 HD
ENDROOT
BRANCH   4   7
ATOM      7  C   UNL     1       2.149 -11.596   3.465  0.00  0.00    +0.197 C 
ATOM      8  C   UNL     1       2.316 -12.911   2.733  0.00  0.00    -0.017 C 
ATOM      9  C   UNL     1       3.396 -12.740   1.971  0.00  0.00    +0.065 C 
ATOM     10  C   UNL     1       3.670 -14.005   1.177  0.00  0.00    +0.057 C 
ATOM     11  C   UNL     1       2.858 -15.110   1.887  0.00  0.00    +0.011 C 
ATOM     12  C   UNL     1       1.733 -14.290   2.558  0.00  0.00    +0.035 C 
ATOM     13  N   UNL     1       3.898 -11.489   2.154  0.00  0.00    -0.158 NA
ATOM     14  N   UNL     1       3.275 -10.791   2.961  0.00  0.00    -0.176 NA
ENDBRANCH   4   7
BRANCH   5  15
ATOM     15  N   UNL     1       0.760  -9.280   5.024  0.00  0.00    -0.250 NA
ATOM     16  H   UNL     1       0.677  -8.284   5.162  0.00  0.00    +0.141 HD
ATOM     17  H   UNL     1       0.044  -9.777   5.532  0.00  0.00    +0.141 HD
ENDBRANCH   5  15
BRANCH   1  18
ATOM     18  S   UNL     1       0.446  -6.963   2.823  0.00  0.00    -0.078 S 
BRANCH  18  19
ATOM     19  C   UNL     1       0.309  -6.349   1.121  0.00  0.00    +0.173 C 
BRANCH  19  21
ATOM     20  N   UNL     1       0.059  -4.170  -0.021  0.00  0.00    -0.285 N 
ATOM     21  C   UNL     1       0.175  -4.848   1.138  0.00  0.00    +0.227 C 
ATOM     22  O   UNL     1       0.173  -4.251   2.193  0.00  0.00    -0.275 OA
ATOM     23  H   UNL     1      -0.017  -4.651  -0.860  0.00  0.00    +0.155 HD
BRANCH  20  28
ATOM     24  C   UNL     1       0.008   1.503   0.007  0.00  0.00    +0.044 C 
ATOM     25  C   UNL     1       0.022  -0.004  -0.001  0.00  0.00    -0.050 A 
ATOM     26  C   UNL     1       0.777  -0.692   0.931  0.00  0.00    +0.005 A 
ATOM     27  C   UNL     1       0.791  -2.073   0.927  0.00  0.00    +0.023 A 
ATOM     28  C   UNL     1       0.046  -2.771  -0.014  0.00  0.00    +0.033 A 
ATOM     29  C   UNL     1      -0.712  -2.077  -0.948  0.00  0.00    +0.023 A 
ATOM     30  C   UNL     1      -0.726  -0.696  -0.936  0.00  0.00    +0.005 A 
ENDBRANCH  20  28
ENDBRANCH  19  21
ENDBRANCH  18  19
ENDBRANCH   1  18
TORSDOF 6
