REMARK  Name = ZINC22704245
REMARK  6 active torsions:
REMARK  status: ('A' for Active; 'I' for Inactive)
REMARK    1  A    between atoms: C_1  and  C_2
REMARK    2  A    between atoms: N_10  and  C_14
REMARK    3  A    between atoms: C_14  and  C_15
REMARK    4  A    between atoms: C_18  and  C_21
REMARK    5  A    between atoms: C_21  and  N_22
REMARK    6  A    between atoms: C_28  and  C_31
REMARK                            x       y       z     vdW  Elec       q    Type
REMARK                         _______ _______ _______ _____ _____    ______ ____
ROOT
ATOM      1  C   UNL     1       4.526  -3.319  -0.424  0.00  0.00    -0.030 A 
ATOM      2  C   UNL     1       4.851  -4.328   0.463  0.00  0.00    +0.005 A 
ATOM      3  C   UNL     1       4.430  -5.622   0.221  0.00  0.00    +0.005 A 
ATOM      4  C   UNL     1       3.693  -5.909  -0.913  0.00  0.00    -0.030 A 
ATOM      5  C   UNL     1       3.373  -4.900  -1.802  0.00  0.00    +0.005 A 
ATOM      6  C   UNL     1       3.789  -3.605  -1.558  0.00  0.00    +0.005 A 
ENDROOT
BRANCH   1   7
ATOM      7  C   UNL     1       4.980  -1.907  -0.157  0.00  0.00    +0.153 C 
BRANCH   7  17
ATOM      8  C   UNL     1      -0.759   2.033  -1.229  0.00  0.00    +0.007 C 
ATOM      9  C   UNL     1      -0.019   1.526   0.010  0.00  0.00    -0.014 C 
ATOM     10  C   UNL     1       1.417   2.056  -0.000  0.00  0.00    +0.006 C 
ATOM     11  C   UNL     1       2.152   1.559   1.246  0.00  0.00    +0.035 C 
ATOM     12  C   UNL     1       2.156   0.034   1.263  0.00  0.00    +0.113 C 
ATOM     13  C   UNL     1       0.732  -0.510   1.249  0.00  0.00    +0.035 C 
ATOM     14  C   UNL     1       0.002  -0.004   0.002  0.00  0.00    +0.006 C 
ATOM     15  C   UNL     1       2.939  -0.505   0.088  0.00  0.00    +0.247 C 
ATOM     16  O   UNL     1       2.701  -0.343  -1.089  0.00  0.00    -0.273 OA
ATOM     17  N   UNL     1       3.960  -1.205   0.626  0.00  0.00    -0.220 N 
ATOM     18  C   UNL     1       3.924  -1.179   1.964  0.00  0.00    +0.310 C 
ATOM     19  O   UNL     1       4.739  -1.737   2.673  0.00  0.00    -0.252 OA
ATOM     20  N   UNL     1       2.885  -0.465   2.437  0.00  0.00    -0.285 N 
ATOM     21  H   UNL     1       2.531  -0.220   3.449  0.00  0.00    +0.151 HD
ENDBRANCH   7  17
ENDBRANCH   1   7
BRANCH   4  22
ATOM     22  C   UNL     1       3.238  -7.321  -1.180  0.00  0.00    +0.153 C 
BRANCH  22  23
ATOM     23  N   UNL     1       4.258  -8.023  -1.963  0.00  0.00    -0.220 N 
ATOM     24  C   UNL     1       4.291  -8.053  -3.311  0.00  0.00    +0.247 C 
ATOM     25  O   UNL     1       3.512  -7.527  -4.076  0.00  0.00    -0.273 OA
ATOM     26  C   UNL     1       5.505  -8.880  -3.667  0.00  0.00    +0.113 C 
ATOM     27  C   UNL     1       5.088 -10.117  -4.455  0.00  0.00    +0.035 C 
ATOM     28  C   UNL     1       4.474  -9.691  -5.792  0.00  0.00    +0.006 C 
ATOM     29  C   UNL     1       5.500  -8.881  -6.587  0.00  0.00    -0.014 C 
ATOM     30  C   UNL     1       5.889  -7.631  -5.794  0.00  0.00    +0.006 C 
ATOM     31  C   UNL     1       6.509  -8.049  -4.458  0.00  0.00    +0.035 C 
ATOM     32  C   UNL     1       4.892  -8.465  -7.928  0.00  0.00    +0.007 C 
ATOM     33  N   UNL     1       6.067  -9.265  -2.366  0.00  0.00    -0.285 N 
ATOM     34  C   UNL     1       5.271  -8.717  -1.429  0.00  0.00    +0.310 C 
ATOM     35  O   UNL     1       5.450  -8.840  -0.234  0.00  0.00    -0.252 OA
ATOM     36  H   UNL     1       6.973  -9.888  -2.322  0.00  0.00    +0.151 HD
ENDBRANCH  22  23
ENDBRANCH   4  22
TORSDOF 4
