REMARK  Name = ZINC43409114
REMARK  6 active torsions:
REMARK  status: ('A' for Active; 'I' for Inactive)
REMARK    1  A    between atoms: C_1  and  C_2
REMARK    2  A    between atoms: C_2  and  C_3
REMARK    3  A    between atoms: C_4  and  C_21
REMARK    4  A    between atoms: C_7  and  C_8
REMARK    5  A    between atoms: C_10  and  C_18
REMARK    6  A    between atoms: C_18  and  N_20
REMARK                            x       y       z     vdW  Elec       q    Type
REMARK                         _______ _______ _______ _____ _____    ______ ____
ROOT
ATOM      1  C   UNL     1       0.747   0.720  -2.463  0.00  0.00    -0.004 A 
ATOM      2  C   UNL     1       0.373  -0.504  -1.896  0.00  0.00    +0.064 A 
ATOM      3  N   UNL     1       1.328  -1.370  -2.117  0.00  0.00    -0.170 NA
ATOM      4  N   UNL     1       2.346  -0.727  -2.834  0.00  0.00    -0.218 N 
ATOM      5  C   UNL     1       1.961   0.560  -3.038  0.00  0.00    +0.047 A 
ATOM      6  C   UNL     1       2.745   1.618  -3.771  0.00  0.00    +0.066 C 
ATOM      7  C   UNL     1       3.539  -1.306  -3.264  0.00  0.00    +0.164 A 
ATOM      8  C   UNL     1       3.569  -2.028  -4.467  0.00  0.00    +0.047 A 
ATOM      9  C   UNL     1       4.779  -2.599  -4.876  0.00  0.00    +0.019 A 
ATOM     10  C   UNL     1       5.896  -2.426  -4.075  0.00  0.00    -0.025 A 
ATOM     11  C   UNL     1       5.790  -1.700  -2.901  0.00  0.00    +0.047 A 
ATOM     12  N   UNL     1       4.634  -1.167  -2.541  0.00  0.00    -0.232 NA
ATOM     13  C   UNL     1       7.139  -1.655  -2.210  0.00  0.00    +0.056 C 
ATOM     14  C   UNL     1       7.963  -2.790  -2.856  0.00  0.00    +0.011 C 
ATOM     15  C   UNL     1       7.316  -2.917  -4.251  0.00  0.00    +0.037 C 
ATOM     16  C   UNL     1      -0.911  -0.778  -1.157  0.00  0.00    +0.068 C 
ENDROOT
BRANCH   1  18
ATOM     17  C   UNL     1      -0.973   2.037  -3.669  0.00  0.00    +0.009 C 
ATOM     18  C   UNL     1      -0.062   1.991  -2.441  0.00  0.00    +0.035 C 
ENDBRANCH   1  18
BRANCH   8  19
ATOM     19  C   UNL     1       2.351  -2.183  -5.283  0.00  0.00    +0.080 C 
ATOM     20  S   UNL     1       0.846  -1.625  -4.688  0.00  0.00    -0.035 S 
BRANCH  19  21
ATOM     21  N   UNL     1       2.422  -2.764  -6.497  0.00  0.00    -0.352 N 
ATOM     22  H   UNL     1       3.275  -3.081  -6.834  0.00  0.00    +0.143 HD
ATOM     23  H   UNL     1       1.621  -2.866  -7.034  0.00  0.00    +0.143 HD
ENDBRANCH  19  21
ENDBRANCH   8  19
TORSDOF 3
