REMARK  Name = ZINC39430972
REMARK  10 active torsions:
REMARK  status: ('A' for Active; 'I' for Inactive)
REMARK    1  A    between atoms: C_1  and  C_2
REMARK    2  A    between atoms: C_6  and  C_31
REMARK    3  A    between atoms: C_7  and  N_8
REMARK    4  A    between atoms: C_9  and  C_11
REMARK    5  A    between atoms: C_11  and  N_12
REMARK    6  A    between atoms: C_13  and  C_15
REMARK    7  A    between atoms: C_15  and  C_17
REMARK    8  A    between atoms: C_15  and  O_18
REMARK    9  A    between atoms: O_18  and  C_19
REMARK   10  A    between atoms: C_19  and  C_21
REMARK                            x       y       z     vdW  Elec       q    Type
REMARK                         _______ _______ _______ _____ _____    ______ ____
ROOT
ATOM      1  N   UNL     1      -0.231  -0.746   5.978  0.00  0.00    -0.304 N 
ATOM      2  C   UNL     1      -0.311  -0.271   7.236  0.00  0.00    +0.254 C 
ATOM      3  O   UNL     1      -0.268   0.924   7.437  0.00  0.00    -0.272 OA
ATOM      4  H   UNL     1      -0.265  -1.702   5.817  0.00  0.00    +0.149 HD
ENDROOT
BRANCH   2   5
ATOM      5  C   UNL     1      -0.455  -1.225   8.394  0.00  0.00    +0.259 C 
ATOM      6  C   UNL     1       0.805  -2.084   8.507  0.00  0.00    +0.062 C 
BRANCH   5   7
ATOM      7  O   UNL     1      -0.636  -0.484   9.602  0.00  0.00    -0.451 OA
BRANCH   7   8
ATOM      8  C   UNL     1      -1.365  -1.063  10.569  0.00  0.00    +0.334 C 
ATOM      9  O   UNL     1      -1.833  -2.163  10.396  0.00  0.00    -0.248 OA
BRANCH   8  10
ATOM     10  C   UNL     1      -1.598  -0.342  11.872  0.00  0.00    +0.213 C 
ATOM     11  C   UNL     1      -2.369   0.936  11.629  0.00  0.00    +0.018 C 
ATOM     12  C   UNL     1      -3.523   0.816  12.325  0.00  0.00    -0.003 A 
ATOM     13  C   UNL     1      -4.678   1.705  12.496  0.00  0.00    +0.010 A 
ATOM     14  C   UNL     1      -5.708   1.300  13.273  0.00  0.00    +0.001 A 
ATOM     15  C   UNL     1      -5.700   0.056  13.918  0.00  0.00    +0.002 A 
ATOM     16  C   UNL     1      -4.674  -0.816  13.809  0.00  0.00    +0.026 A 
ATOM     17  C   UNL     1      -3.538  -0.493  13.016  0.00  0.00    +0.043 A 
ATOM     18  N   UNL     1      -2.436  -1.157  12.758  0.00  0.00    -0.369 N 
ATOM     19  H   UNL     1      -2.212  -2.038  13.096  0.00  0.00    +0.161 HD
ENDBRANCH   8  10
ENDBRANCH   7   8
ENDBRANCH   5   7
ENDBRANCH   2   5
BRANCH   1  20
ATOM     20  C   UNL     1      -0.090   0.181   4.852  0.00  0.00    +0.200 C 
BRANCH  20  22
ATOM     21  N   UNL     1       0.108   0.050   2.390  0.00  0.00    -0.284 N 
ATOM     22  C   UNL     1      -0.022  -0.598   3.564  0.00  0.00    +0.234 C 
ATOM     23  O   UNL     1      -0.085  -1.810   3.584  0.00  0.00    -0.274 OA
ATOM     24  H   UNL     1       0.224   1.013   2.378  0.00  0.00    +0.155 HD
BRANCH  21  31
ATOM     25  C   UNL     1       2.558  -0.356   1.002  0.00  0.00    +0.045 C 
ATOM     26  C   UNL     1       1.249  -0.887   0.479  0.00  0.00    -0.029 A 
ATOM     27  C   UNL     1       1.214  -1.599  -0.704  0.00  0.00    +0.005 A 
ATOM     28  C   UNL     1       0.013  -2.087  -1.185  0.00  0.00    +0.001 A 
ATOM     29  C   UNL     1      -1.158  -1.863  -0.484  0.00  0.00    +0.005 A 
ATOM     30  C   UNL     1      -1.130  -1.152   0.700  0.00  0.00    -0.029 A 
ATOM     31  C   UNL     1       0.076  -0.666   1.188  0.00  0.00    +0.039 A 
ATOM     32  C   UNL     1      -2.406  -0.908   1.463  0.00  0.00    +0.045 C 
ENDBRANCH  21  31
ENDBRANCH  20  22
ENDBRANCH   1  20
TORSDOF 7
