REMARK  Name = ZINC19332954
REMARK  6 active torsions:
REMARK  status: ('A' for Active; 'I' for Inactive)
REMARK    1  A    between atoms: C_6  and  C_7
REMARK    2  A    between atoms: C_7  and  O_29
REMARK    3  A    between atoms: N_11  and  C_14
REMARK    4  A    between atoms: C_14  and  C_15
REMARK    5  A    between atoms: C_15  and  C_17
REMARK    6  A    between atoms: C_15  and  O_28
REMARK                            x       y       z     vdW  Elec       q    Type
REMARK                         _______ _______ _______ _____ _____    ______ ____
ROOT
ATOM      1  C   UNL     1      -2.489  -0.174   0.637  0.00  0.00    +0.089 C 
ATOM      2  C   UNL     1      -1.722   0.530   1.774  0.00  0.00    +0.038 C 
ATOM      3  C   UNL     1      -0.732   1.579   1.238  0.00  0.00    -0.015 C 
ATOM      4  C   UNL     1      -0.013   1.086   0.008  0.00  0.00    -0.079 C 
ATOM      5  N   UNL     1      -0.740   1.581  -1.177  0.00  0.00    +0.382 N 
ATOM      6  C   UNL     1      -1.844   0.810  -1.552  0.00  0.00    -0.076 C 
ATOM      7  C   UNL     1      -2.922   0.780  -0.447  0.00  0.00    +0.021 C 
ATOM      8  H   UNL     1      -1.216   2.531  -0.891  0.00  0.00    -0.082 HD
ENDROOT
BRANCH   1  14
ATOM      9  C   UNL     1      -4.919  -0.172   1.236  0.00  0.00    +0.009 A 
ATOM     10  C   UNL     1      -6.041  -0.786   1.761  0.00  0.00    +0.039 A 
ATOM     11  C   UNL     1      -5.951  -2.069   2.274  0.00  0.00    +0.123 A 
ATOM     12  C   UNL     1      -4.738  -2.738   2.256  0.00  0.00    +0.039 A 
ATOM     13  C   UNL     1      -3.619  -2.124   1.726  0.00  0.00    +0.009 A 
ATOM     14  C   UNL     1      -3.710  -0.843   1.214  0.00  0.00    -0.016 A 
ATOM     15  F   UNL     1      -7.045  -2.669   2.791  0.00  0.00    -0.205 F 
ENDBRANCH   1  14
BRANCH   1  16
ATOM     16  O   UNL     1      -1.646  -1.175   0.062  0.00  0.00    -0.384 OA
ATOM     17  H   UNL     1      -0.698  -0.887  -0.415  0.00  0.00    +0.211 HD
ENDBRANCH   1  16
BRANCH   5  18
ATOM     18  C   UNL     1       0.174   1.778  -2.311  0.00  0.00    -0.042 C 
BRANCH  18  19
ATOM     19  C   UNL     1       0.726   0.424  -2.762  0.00  0.00    +0.128 C 
BRANCH  19  20
ATOM     20  C   UNL     1       1.663   0.626  -3.925  0.00  0.00    -0.017 A 
ATOM     21  C   UNL     1       2.988   0.948  -3.694  0.00  0.00    +0.010 A 
ATOM     22  C   UNL     1       3.855   1.130  -4.757  0.00  0.00    +0.050 A 
ATOM     23  C   UNL     1       3.388   0.999  -6.054  0.00  0.00    +0.162 A 
ATOM     24  C   UNL     1       2.058   0.682  -6.285  0.00  0.00    +0.162 A 
ATOM     25  C   UNL     1       1.193   0.495  -5.220  0.00  0.00    +0.055 A 
ATOM     26  O   UNL     1       1.608   0.554  -7.567  0.00  0.00    -0.488 OA
ATOM     27  C   UNL     1       1.564   1.757  -8.337  0.00  0.00    +0.232 C 
ATOM     28  C   UNL     1       2.920   2.049  -8.960  0.00  0.00    +0.082 C 
ATOM     29  C   UNL     1       3.987   2.336  -7.915  0.00  0.00    +0.232 C 
ATOM     30  O   UNL     1       4.232   1.180  -7.111  0.00  0.00    -0.488 OA
ENDBRANCH  19  20
BRANCH  19  31
ATOM     31  O   UNL     1       1.433  -0.186  -1.681  0.00  0.00    -0.389 OA
ATOM     32  H   UNL     1       1.903  -1.171  -1.817  0.00  0.00    +0.210 HD
ENDBRANCH  19  31
ENDBRANCH  18  19
ENDBRANCH   5  18
TORSDOF 6
