REMARK  Name = ZINC25878659
REMARK  9 active torsions:
REMARK  status: ('A' for Active; 'I' for Inactive)
REMARK    1  A    between atoms: C_1  and  O_2
REMARK    2  A    between atoms: O_2  and  C_3
REMARK    3  A    between atoms: C_6  and  C_11
REMARK    4  A    between atoms: C_8  and  O_9
REMARK    5  A    between atoms: O_9  and  C_10
REMARK    6  A    between atoms: C_17  and  C_19
REMARK    7  A    between atoms: C_19  and  C_20
REMARK    8  A    between atoms: C_20  and  C_21
REMARK    9  A    between atoms: C_21  and  N_22
REMARK                            x       y       z     vdW  Elec       q    Type
REMARK                         _______ _______ _______ _____ _____    ______ ____
ROOT
ATOM      1  C   UNL     1      -1.333   2.112   0.020  0.00  0.00    +0.106 C 
ATOM      2  C   UNL     1      -1.641   2.618   1.445  0.00  0.00    +0.029 C 
ATOM      3  C   UNL     1      -2.277   4.012   1.187  0.00  0.00    +0.021 C 
ATOM      4  C   UNL     1      -1.472   4.500  -0.044  0.00  0.00    +0.108 C 
ATOM      5  N   UNL     1      -1.255   3.290  -0.857  0.00  0.00    -0.294 N 
ATOM      6  C   UNL     1      -1.025   3.267  -2.185  0.00  0.00    +0.216 C 
ATOM      7  O   UNL     1      -0.861   2.208  -2.753  0.00  0.00    -0.276 OA
ENDROOT
BRANCH   1  11
ATOM      8  C   UNL     1       2.405   0.035  -0.021  0.00  0.00    +0.162 A 
ATOM      9  C   UNL     1       2.379   1.420  -0.013  0.00  0.00    +0.050 A 
ATOM     10  C   UNL     1       1.169   2.089   0.002  0.00  0.00    +0.009 A 
ATOM     11  C   UNL     1      -0.017   1.378   0.010  0.00  0.00    -0.023 A 
ATOM     12  C   UNL     1       0.002  -0.004   0.002  0.00  0.00    +0.055 A 
ATOM     13  C   UNL     1       1.211  -0.680  -0.013  0.00  0.00    +0.162 A 
BRANCH   8  15
ATOM     14  C   UNL     1       4.779   0.174  -0.043  0.00  0.00    +0.277 C 
ATOM     15  O   UNL     1       3.594  -0.625  -0.036  0.00  0.00    -0.491 OA
ENDBRANCH   8  15
BRANCH  13  16
ATOM     16  O   UNL     1       1.232  -2.040  -0.020  0.00  0.00    -0.491 OA
ATOM     17  C   UNL     1      -0.032  -2.708  -0.011  0.00  0.00    +0.277 C 
ENDBRANCH  13  16
ENDBRANCH   1  11
BRANCH   6  18
ATOM     18  C   UNL     1      -0.972   4.556  -2.963  0.00  0.00    +0.097 C 
BRANCH  18  19
ATOM     19  C   UNL     1      -0.698   4.251  -4.437  0.00  0.00    +0.029 C 
BRANCH  19  20
ATOM     20  C   UNL     1      -0.644   5.561  -5.227  0.00  0.00    +0.118 C 
BRANCH  20  21
ATOM     21  N   UNL     1      -0.383   5.269  -6.638  0.00  0.00    -0.224 N 
ATOM     22  C   UNL     1       0.852   5.192  -7.182  0.00  0.00    +0.246 C 
ATOM     23  O   UNL     1       1.914   5.344  -6.618  0.00  0.00    -0.273 OA
ATOM     24  C   UNL     1       0.626   4.872  -8.638  0.00  0.00    +0.113 C 
ATOM     25  C   UNL     1       1.219   5.966  -9.535  0.00  0.00    +0.035 C 
ATOM     26  C   UNL     1       2.585   5.383  -9.983  0.00  0.00    +0.003 C 
ATOM     27  C   UNL     1       2.272   3.878 -10.173  0.00  0.00    +0.003 C 
ATOM     28  C   UNL     1       1.287   3.548  -9.029  0.00  0.00    +0.035 C 
ATOM     29  N   UNL     1      -0.830   4.805  -8.777  0.00  0.00    -0.285 N 
ATOM     30  C   UNL     1      -1.337   5.051  -7.552  0.00  0.00    +0.309 C 
ATOM     31  O   UNL     1      -2.527   5.072  -7.305  0.00  0.00    -0.252 OA
ATOM     32  H   UNL     1      -1.280   4.586  -9.757  0.00  0.00    +0.151 HD
ENDBRANCH  20  21
ENDBRANCH  19  20
ENDBRANCH  18  19
ENDBRANCH   6  18
TORSDOF 7
