REMARK  Name = ZINC05583578
REMARK  5 active torsions:
REMARK  status: ('A' for Active; 'I' for Inactive)
REMARK    1  A    between atoms: C_4  and  N_10
REMARK    2  A    between atoms: C_5  and  C_7
REMARK    3  A    between atoms: C_11  and  C_13
REMARK    4  A    between atoms: C_14  and  C_15
REMARK    5  A    between atoms: C_18  and  N_21
REMARK                            x       y       z     vdW  Elec       q    Type
REMARK                         _______ _______ _______ _____ _____    ______ ____
ROOT
ATOM      1  N   UNL     1       1.219   3.450  -0.006  0.00  0.00    -0.281 N 
ATOM      2  C   UNL     1       1.232   2.103  -0.017  0.00  0.00    +0.241 C 
ATOM      3  O   UNL     1       2.292   1.504  -0.016  0.00  0.00    -0.270 OA
ATOM      4  H   UNL     1       0.377   3.927  -0.072  0.00  0.00    +0.155 HD
ENDROOT
BRANCH   1   8
ATOM      5  C   UNL     1       4.797   5.566   0.307  0.00  0.00    +0.001 A 
ATOM      6  C   UNL     1       4.748   4.379  -0.405  0.00  0.00    +0.002 A 
ATOM      7  C   UNL     1       3.566   3.673  -0.505  0.00  0.00    +0.024 A 
ATOM      8  C   UNL     1       2.413   4.157   0.099  0.00  0.00    +0.046 A 
ATOM      9  C   UNL     1       2.459   5.359   0.820  0.00  0.00    +0.058 A 
ATOM     10  C   UNL     1       3.664   6.059   0.918  0.00  0.00    +0.015 A 
BRANCH   9  11
ATOM     11  C   UNL     1       1.243   5.881   1.472  0.00  0.00    +0.243 C 
ATOM     12  O   UNL     1       0.222   5.222   1.470  0.00  0.00    -0.270 OA
ATOM     13  N   UNL     1       1.264   7.088   2.071  0.00  0.00    -0.325 N 
ATOM     14  H   UNL     1       2.079   7.614   2.073  0.00  0.00    +0.145 HD
ATOM     15  H   UNL     1       0.465   7.431   2.499  0.00  0.00    +0.145 HD
ENDBRANCH   9  11
ENDBRANCH   1   8
BRANCH   2  16
ATOM     16  C   UNL     1      -0.028   1.358  -0.030  0.00  0.00    +0.068 C 
ATOM     17  C   UNL     1      -0.015   0.010  -0.040  0.00  0.00    +0.013 C 
BRANCH  17  18
ATOM     18  C   UNL     1      -1.282  -0.739  -0.053  0.00  0.00    -0.025 A 
ATOM     19  C   UNL     1      -2.502  -0.055  -0.048  0.00  0.00    +0.010 A 
ATOM     20  C   UNL     1      -3.685  -0.763  -0.066  0.00  0.00    +0.033 A 
ATOM     21  C   UNL     1      -3.667  -2.147  -0.077  0.00  0.00    +0.126 A 
ATOM     22  C   UNL     1      -2.464  -2.831  -0.076  0.00  0.00    +0.033 A 
ATOM     23  C   UNL     1      -1.272  -2.137  -0.064  0.00  0.00    +0.010 A 
BRANCH  21  24
ATOM     24  N   UNL     1      -4.942  -2.900  -0.089  0.00  0.00    +0.056 N 
ATOM     25  O   UNL     1      -4.930  -4.118  -0.099  0.00  0.00    -0.126 OA
ATOM     26  O   UNL     1      -6.002  -2.301  -0.090  0.00  0.00    -0.126 OA
ENDBRANCH  21  24
ENDBRANCH  17  18
ENDBRANCH   2  16
TORSDOF 5
