REMARK  Name = ZINC67438024
REMARK  11 active torsions:
REMARK  status: ('A' for Active; 'I' for Inactive)
REMARK    1  A    between atoms: C_1  and  C_2
REMARK    2  A    between atoms: C_2  and  N_3
REMARK    3  A    between atoms: C_4  and  C_6
REMARK    4  A    between atoms: C_9  and  N_12
REMARK    5  A    between atoms: C_13  and  C_15
REMARK    6  A    between atoms: N_17  and  C_18
REMARK    7  A    between atoms: C_18  and  C_20
REMARK    8  A    between atoms: C_18  and  C_21
REMARK    9  A    between atoms: C_21  and  N_22
REMARK   10  A    between atoms: C_24  and  C_31
REMARK   11  A    between atoms: C_27  and  C_30
REMARK                            x       y       z     vdW  Elec       q    Type
REMARK                         _______ _______ _______ _____ _____    ______ ____
ROOT
ATOM      1  N   UNL     1       3.581  -3.682   5.963  0.00  0.00    -0.278 N 
ATOM      2  C   UNL     1       3.642  -5.004   6.218  0.00  0.00    +0.303 C 
ATOM      3  O   UNL     1       3.190  -5.798   5.419  0.00  0.00    -0.265 OA
ATOM      4  H   UNL     1       4.010  -3.052   6.564  0.00  0.00    +0.155 HD
ENDROOT
BRANCH   1   8
ATOM      5  C   UNL     1       1.552  -2.301   2.599  0.00  0.00    +0.037 A 
ATOM      6  C   UNL     1       1.099  -3.439   3.273  0.00  0.00    +0.015 A 
ATOM      7  C   UNL     1       1.772  -3.893   4.384  0.00  0.00    +0.024 A 
ATOM      8  C   UNL     1       2.903  -3.220   4.838  0.00  0.00    +0.034 A 
ATOM      9  C   UNL     1       3.356  -2.087   4.170  0.00  0.00    +0.024 A 
ATOM     10  C   UNL     1       2.691  -1.631   3.054  0.00  0.00    +0.015 A 
BRANCH   5  12
ATOM     11  N   UNL     1      -0.265  -2.459   0.970  0.00  0.00    -0.312 N 
ATOM     12  C   UNL     1       0.833  -1.812   1.407  0.00  0.00    +0.244 C 
ATOM     13  O   UNL     1       1.231  -0.825   0.819  0.00  0.00    -0.270 OA
ATOM     14  H   UNL     1      -0.583  -3.247   1.438  0.00  0.00    +0.149 HD
BRANCH  11  16
ATOM     15  C   UNL     1      -2.179  -2.880  -0.494  0.00  0.00    +0.024 C 
ATOM     16  C   UNL     1      -0.979  -1.974  -0.214  0.00  0.00    +0.101 C 
ENDBRANCH  11  16
ENDBRANCH   5  12
ENDBRANCH   1   8
BRANCH   2  17
ATOM     17  C   UNL     1       4.267  -5.493   7.484  0.00  0.00    +0.299 C 
ATOM     18  O   UNL     1       4.719  -4.699   8.283  0.00  0.00    -0.265 OA
ATOM     19  N   UNL     1       4.328  -6.815   7.739  0.00  0.00    -0.307 N 
ATOM     20  H   UNL     1       3.966  -7.449   7.100  0.00  0.00    +0.149 HD
BRANCH  19  21
ATOM     21  C   UNL     1       4.940  -7.294   8.980  0.00  0.00    +0.054 C 
ATOM     22  C   UNL     1       6.454  -7.410   8.791  0.00  0.00    +0.026 C 
BRANCH  21  23
ATOM     23  C   UNL     1       4.364  -8.666   9.336  0.00  0.00    -0.057 C 
BRANCH  23  24
ATOM     24  N   UNL     1       2.899  -8.581   9.401  0.00  0.00    +0.381 N 
ATOM     25  C   UNL     1       2.511  -7.690  10.501  0.00  0.00    -0.076 C 
ATOM     26  C   UNL     1       0.989  -7.533  10.522  0.00  0.00    -0.031 C 
ATOM     27  C   UNL     1       0.342  -8.906  10.723  0.00  0.00    +0.003 C 
ATOM     28  C   UNL     1       0.813  -9.849   9.612  0.00  0.00    -0.031 C 
ATOM     29  C   UNL     1       2.342  -9.920   9.624  0.00  0.00    -0.076 C 
ATOM     30  C   UNL     1       0.234 -11.246   9.847  0.00  0.00    +0.005 C 
ATOM     31  C   UNL     1       0.586  -6.605  11.670  0.00  0.00    +0.005 C 
ATOM     32  H   UNL     1       2.546  -8.211   8.531  0.00  0.00    -0.082 HD
ENDBRANCH  23  24
ENDBRANCH  21  23
ENDBRANCH  19  21
ENDBRANCH   2  17
TORSDOF 7
