REMARK  Name = ZINC62140099
REMARK  5 active torsions:
REMARK  status: ('A' for Active; 'I' for Inactive)
REMARK    1  A    between atoms: C_3  and  N_17
REMARK    2  A    between atoms: C_6  and  C_7
REMARK    3  A    between atoms: C_7  and  C_8
REMARK    4  A    between atoms: C_8  and  C_10
REMARK    5  A    between atoms: C_8  and  O_16
REMARK                            x       y       z     vdW  Elec       q    Type
REMARK                         _______ _______ _______ _____ _____    ______ ____
ROOT
ATOM      1  C   UNL     1      -1.293  -0.775   0.010  0.00  0.00    +0.074 C 
ENDROOT
BRANCH   1   7
ATOM      2  C   UNL     1      -0.017   1.378   0.010  0.00  0.00    +0.006 A 
ATOM      3  C   UNL     1       1.171   2.086   0.002  0.00  0.00    +0.033 A 
ATOM      4  C   UNL     1       2.377   1.411  -0.013  0.00  0.00    +0.126 A 
ATOM      5  C   UNL     1       2.396   0.029  -0.020  0.00  0.00    +0.033 A 
ATOM      6  C   UNL     1       1.208  -0.679  -0.012  0.00  0.00    +0.006 A 
ATOM      7  C   UNL     1       0.002  -0.004   0.002  0.00  0.00    -0.044 A 
BRANCH   4   8
ATOM      8  N   UNL     1       3.649   2.168  -0.022  0.00  0.00    +0.056 N 
ATOM      9  O   UNL     1       3.633   3.377  -0.016  0.00  0.00    -0.126 OA
ATOM     10  O   UNL     1       4.704   1.578  -0.035  0.00  0.00    -0.126 OA
ENDBRANCH   4   8
ENDBRANCH   1   7
BRANCH   1  11
ATOM     11  C   UNL     1      -1.744  -1.028  -1.429  0.00  0.00    +0.184 C 
BRANCH  11  12
ATOM     12  C   UNL     1      -3.098  -1.691  -1.422  0.00  0.00    +0.135 A 
ATOM     13  C   UNL     1      -4.276  -1.076  -1.634  0.00  0.00    +0.048 A 
ATOM     14  C   UNL     1      -5.279  -2.067  -1.537  0.00  0.00    +0.057 A 
ATOM     15  C   UNL     1      -4.654  -3.230  -1.270  0.00  0.00    +0.170 A 
ATOM     16  O   UNL     1      -3.333  -2.996  -1.208  0.00  0.00    -0.450 OA
ATOM     17 BR   UNL     1      -5.493  -4.907  -1.032  0.00  0.00    -0.008 Br
ENDBRANCH  11  12
BRANCH  11  18
ATOM     18  O   UNL     1      -0.801  -1.881  -2.082  0.00  0.00    -0.384 OA
ATOM     19  H   UNL     1      -0.694  -2.744  -1.660  0.00  0.00    +0.210 HD
ENDBRANCH  11  18
ENDBRANCH   1  11
TORSDOF 5
