REMARK  Name = ZINC02887130
REMARK  9 active torsions:
REMARK  status: ('A' for Active; 'I' for Inactive)
REMARK    1  A    between atoms: C_1  and  C_2
REMARK    2  A    between atoms: C_3  and  C_29
REMARK    3  A    between atoms: C_4  and  C_14
REMARK    4  A    between atoms: C_4  and  N_18
REMARK    5  A    between atoms: N_7  and  C_8
REMARK    6  A    between atoms: N_18  and  S_19
REMARK    7  A    between atoms: S_19  and  C_22
REMARK    8  A    between atoms: C_25  and  N_28
REMARK    9  A    between atoms: C_29  and  C_31
REMARK                            x       y       z     vdW  Elec       q    Type
REMARK                         _______ _______ _______ _____ _____    ______ ____
ROOT
ATOM      1  C   UNL     1      -1.002   1.507  -0.060  0.00  0.00    +0.062 C 
ATOM      2  C   UNL     1      -0.810   0.014  -0.125  0.00  0.00    +0.024 C 
ATOM      3  C   UNL     1      -1.811  -0.882   0.017  0.00  0.00    +0.051 C 
ATOM      4  C   UNL     1      -1.171  -2.249  -0.117  0.00  0.00    +0.240 C 
ATOM      5  C   UNL     1       0.293  -1.932  -0.347  0.00  0.00    +0.259 C 
ATOM      6  O   UNL     1       1.194  -2.728  -0.511  0.00  0.00    -0.272 OA
ATOM      7  N   UNL     1       0.392  -0.590  -0.338  0.00  0.00    -0.242 N 
ENDROOT
BRANCH   7   8
ATOM      8  C   UNL     1       1.593   0.106  -0.524  0.00  0.00    +0.041 A 
ATOM      9  C   UNL     1       2.236   0.070  -1.754  0.00  0.00    +0.024 A 
ATOM     10  C   UNL     1       3.420   0.757  -1.934  0.00  0.00    +0.002 A 
ATOM     11  C   UNL     1       3.966   1.481  -0.890  0.00  0.00    +0.000 A 
ATOM     12  C   UNL     1       3.329   1.519   0.337  0.00  0.00    +0.002 A 
ATOM     13  C   UNL     1       2.141   0.839   0.521  0.00  0.00    +0.024 A 
ENDBRANCH   7   8
BRANCH   4  14
ATOM     14  C   UNL     1      -1.753  -3.002  -1.315  0.00  0.00    +0.422 C 
ATOM     15  F   UNL     1      -1.416  -2.332  -2.496  0.00  0.00    -0.168 F 
ATOM     16  F   UNL     1      -1.231  -4.299  -1.350  0.00  0.00    -0.168 F 
ATOM     17  F   UNL     1      -3.146  -3.063  -1.195  0.00  0.00    -0.168 F 
ENDBRANCH   4  14
BRANCH   3  18
ATOM     18  C   UNL     1      -3.170  -0.603   0.243  0.00  0.00    +0.160 C 
ATOM     19  O   UNL     1      -3.608   0.507   0.016  0.00  0.00    -0.293 OA
ATOM     20  C   UNL     1      -4.084  -1.681   0.765  0.00  0.00    +0.091 C 
ENDBRANCH   3  18
BRANCH   4  21
ATOM     21  N   UNL     1      -1.344  -3.023   1.114  0.00  0.00    -0.162 NA
ATOM     22  H   UNL     1      -1.893  -3.824   1.111  0.00  0.00    +0.150 HD
BRANCH  21  23
ATOM     23  S   UNL     1      -0.605  -2.532   2.512  0.00  0.00    +0.060 S 
ATOM     24  O   UNL     1      -0.898  -3.517   3.494  0.00  0.00    -0.153 OA
ATOM     25  O   UNL     1       0.726  -2.176   2.164  0.00  0.00    -0.153 OA
BRANCH  23  26
ATOM     26  C   UNL     1      -1.404  -1.050   3.031  0.00  0.00    +0.105 A 
ATOM     27  C   UNL     1      -0.837   0.178   2.741  0.00  0.00    +0.030 A 
ATOM     28  C   UNL     1      -1.460   1.341   3.146  0.00  0.00    +0.024 A 
ATOM     29  C   UNL     1      -2.659   1.278   3.846  0.00  0.00    +0.025 A 
ATOM     30  C   UNL     1      -3.225   0.043   4.136  0.00  0.00    +0.024 A 
ATOM     31  C   UNL     1      -2.599  -1.116   3.723  0.00  0.00    +0.030 A 
BRANCH  29  32
ATOM     32  N   UNL     1      -3.292   2.453   4.258  0.00  0.00    -0.358 N 
ATOM     33  H   UNL     1      -2.895   3.314   4.055  0.00  0.00    +0.142 HD
ATOM     34  H   UNL     1      -4.128   2.407   4.747  0.00  0.00    +0.142 HD
ENDBRANCH  29  32
ENDBRANCH  23  26
ENDBRANCH  21  23
ENDBRANCH   4  21
TORSDOF 7
