REMARK  Name = ZINC04236966
REMARK  12 active torsions:
REMARK  status: ('A' for Active; 'I' for Inactive)
REMARK    1  A    between atoms: C_1  and  C_2
REMARK    2  A    between atoms: C_5  and  O_33
REMARK    3  A    between atoms: C_7  and  C_30
REMARK    4  A    between atoms: C_7  and  C_31
REMARK    5  A    between atoms: C_12  and  O_29
REMARK    6  A    between atoms: C_14  and  C_16
REMARK    7  A    between atoms: C_16  and  C_17
REMARK    8  A    between atoms: N_19  and  C_20
REMARK    9  A    between atoms: C_20  and  C_21
REMARK   10  A    between atoms: C_24  and  O_27
REMARK   11  A    between atoms: O_27  and  C_28
REMARK   12  A    between atoms: C_31  and  O_32
REMARK                            x       y       z     vdW  Elec       q    Type
REMARK                         _______ _______ _______ _____ _____    ______ ____
ROOT
ATOM      1  C   UNL     1       6.275   5.186  -5.122  0.00  0.00    +0.012 C 
ATOM      2  C   UNL     1       7.327   4.428  -4.309  0.00  0.00    -0.023 C 
ATOM      3  C   UNL     1       7.592   3.069  -4.960  0.00  0.00    +0.010 C 
ATOM      4  C   UNL     1       8.104   3.278  -6.387  0.00  0.00    +0.032 C 
ATOM      5  C   UNL     1       9.401   4.088  -6.350  0.00  0.00    +0.123 C 
ATOM      6  C   UNL     1       9.136   5.447  -5.699  0.00  0.00    +0.020 C 
ATOM      7  C   UNL     1       8.624   5.238  -4.272  0.00  0.00    +0.006 C 
ATOM      8  C   UNL     1       8.359   6.597  -3.622  0.00  0.00    +0.007 C 
ATOM      9  C   UNL     1       7.847   6.388  -2.195  0.00  0.00    +0.032 C 
ATOM     10  C   UNL     1       6.550   5.578  -2.232  0.00  0.00    +0.119 C 
ATOM     11  C   UNL     1       6.815   4.219  -2.882  0.00  0.00    +0.032 C 
ATOM     12  C   UNL     1      10.433   6.257  -5.662  0.00  0.00    +0.016 C 
ENDROOT
BRANCH  10  13
ATOM     13  O   UNL     1       5.568   6.286  -2.991  0.00  0.00    -0.391 OA
ATOM     14  H   UNL     1       5.349   7.158  -2.635  0.00  0.00    +0.210 HD
ENDBRANCH  10  13
BRANCH   5  15
ATOM     15  O   UNL     1       9.879   4.283  -7.683  0.00  0.00    -0.391 OA
ATOM     16  H   UNL     1      10.069   3.462  -8.156  0.00  0.00    +0.210 HD
ENDBRANCH   5  15
BRANCH  11  17
ATOM     17  C   UNL     1       5.518   3.409  -2.919  0.00  0.00    +0.102 C 
BRANCH  17  18
ATOM     18  C   UNL     1       5.080   3.098  -1.511  0.00  0.00    +0.214 C 
ATOM     19  O   UNL     1       5.740   3.486  -0.571  0.00  0.00    -0.276 OA
ATOM     20  N   UNL     1       3.954   2.389  -1.297  0.00  0.00    -0.311 N 
ATOM     21  H   UNL     1       3.426   2.078  -2.049  0.00  0.00    +0.149 HD
BRANCH  20  22
ATOM     22  C   UNL     1       3.528   2.087   0.072  0.00  0.00    +0.139 C 
BRANCH  22  23
ATOM     23  C   UNL     1       2.250   1.289   0.035  0.00  0.00    -0.030 A 
ATOM     24  C   UNL     1       1.030   1.939   0.044  0.00  0.00    +0.009 A 
ATOM     25  C   UNL     1      -0.143   1.210   0.011  0.00  0.00    +0.046 A 
ATOM     26  C   UNL     1      -0.096  -0.176  -0.032  0.00  0.00    +0.120 A 
ATOM     27  C   UNL     1       1.130  -0.826  -0.041  0.00  0.00    +0.046 A 
ATOM     28  C   UNL     1       2.300  -0.092  -0.008  0.00  0.00    +0.009 A 
BRANCH  26  29
ATOM     29  O   UNL     1      -1.248  -0.896  -0.064  0.00  0.00    -0.495 OA
ATOM     30  C   UNL     1      -1.124  -2.319  -0.107  0.00  0.00    +0.277 C 
ENDBRANCH  26  29
ENDBRANCH  22  23
ENDBRANCH  20  22
ENDBRANCH  17  18
ENDBRANCH  11  17
BRANCH   6  31
ATOM     31  C   UNL     1       8.084   6.205  -6.512  0.00  0.00    +0.165 C 
BRANCH  31  32
ATOM     32  O   UNL     1       8.635   6.572  -7.778  0.00  0.00    -0.394 OA
ATOM     33  H   UNL     1       8.022   7.058  -8.348  0.00  0.00    +0.209 HD
ENDBRANCH  31  32
ENDBRANCH   6  31
TORSDOF 9
