REMARK  Name = ZINC44201220
REMARK  5 active torsions:
REMARK  status: ('A' for Active; 'I' for Inactive)
REMARK    1  A    between atoms: C_4  and  N_15
REMARK    2  A    between atoms: C_6  and  C_7
REMARK    3  A    between atoms: C_7  and  C_9
REMARK    4  A    between atoms: C_7  and  N_13
REMARK    5  A    between atoms: C_9  and  C_10
REMARK                            x       y       z     vdW  Elec       q    Type
REMARK                         _______ _______ _______ _____ _____    ______ ____
ROOT
ATOM      1  C   UNL     1      -0.017   1.377   0.010  0.00  0.00    +0.021 A 
ATOM      2  C   UNL     1       1.171   2.086   0.002  0.00  0.00    +0.020 A 
ATOM      3  C   UNL     1       2.380   1.414  -0.013  0.00  0.00    +0.052 A 
ATOM      4  C   UNL     1       2.403   0.032  -0.021  0.00  0.00    +0.174 A 
ATOM      5  C   UNL     1       1.214  -0.680  -0.013  0.00  0.00    +0.211 A 
ATOM      6  C   UNL     1       0.002  -0.004   0.002  0.00  0.00    -0.011 A 
ATOM      7  O   UNL     1       1.234  -2.039  -0.021  0.00  0.00    -0.285 OA
ATOM      8 BR   UNL     1       1.143   3.977   0.012  0.00  0.00    -0.050 Br
ENDROOT
BRANCH   4   9
ATOM      9  N   UNL     1       3.697  -0.687  -0.037  0.00  0.00    +0.060 N 
ATOM     10  O   UNL     1       4.734  -0.065  -0.044  0.00  0.00    -0.126 OA
ATOM     11  O   UNL     1       3.717  -1.895  -0.044  0.00  0.00    -0.126 OA
ENDBRANCH   4   9
BRANCH   6  12
ATOM     12  C   UNL     1      -1.292  -0.776   0.011  0.00  0.00    -0.030 C 
BRANCH  12  13
ATOM     13  N   UNL     1      -2.361   0.055  -0.559  0.00  0.00    +0.383 N 
ATOM     14  H   UNL     1      -2.124   0.303  -1.508  0.00  0.00    -0.089 HD
ATOM     15  H   UNL     1      -3.228  -0.462  -0.554  0.00  0.00    -0.089 HD
ATOM     16  H   UNL     1      -2.466   0.893  -0.008  0.00  0.00    -0.089 HD
ENDBRANCH  12  13
BRANCH  12  17
ATOM     17  C   UNL     1      -1.652  -1.153   1.449  0.00  0.00    +0.113 C 
BRANCH  17  18
ATOM     18  C   UNL     1      -2.878  -2.028   1.448  0.00  0.00    +0.355 C 
ATOM     19  O   UNL     1      -3.416  -2.323   0.394  0.00  0.00    -0.246 OA
ATOM     20  O   UNL     1      -3.334  -2.441   2.501  0.00  0.00    -0.246 OA
ENDBRANCH  17  18
ENDBRANCH  12  17
ENDBRANCH   6  12
TORSDOF 5
