REMARK  Name = ZINC56574650
REMARK  3 active torsions:
REMARK  status: ('A' for Active; 'I' for Inactive)
REMARK    1  A    between atoms: C_6  and  N_7
REMARK    2  A    between atoms: C_13  and  C_16
REMARK    3  A    between atoms: N_18  and  C_19
REMARK                            x       y       z     vdW  Elec       q    Type
REMARK                         _______ _______ _______ _____ _____    ______ ____
ROOT
ATOM      1  N   UNL     1      -1.207  -0.720  -0.035  0.00  0.00    -0.269 N 
ATOM      2  C   UNL     1      -2.375  -0.068   0.127  0.00  0.00    +0.306 C 
ATOM      3  O   UNL     1      -2.391   1.147   0.174  0.00  0.00    -0.252 OA
ATOM      4  N   UNL     1      -3.525  -0.762   0.236  0.00  0.00    -0.285 N 
ATOM      5  C   UNL     1      -3.508  -2.227   0.345  0.00  0.00    +0.110 C 
ATOM      6  C   UNL     1      -4.419  -2.813  -0.738  0.00  0.00    +0.032 C 
ATOM      7  C   UNL     1      -5.812  -2.190  -0.618  0.00  0.00    +0.078 C 
ATOM      8  C   UNL     1      -5.717  -0.678  -0.834  0.00  0.00    +0.032 C 
ATOM      9  C   UNL     1      -4.820  -0.067   0.254  0.00  0.00    +0.110 C 
ATOM     10  H   UNL     1      -1.204  -1.675  -0.209  0.00  0.00    +0.156 HD
ENDROOT
BRANCH   1  16
ATOM     11  C   UNL     1       0.031   1.349  -0.175  0.00  0.00    +0.027 A 
ATOM     12  C   UNL     1       1.225   2.041  -0.093  0.00  0.00    +0.051 A 
ATOM     13  C   UNL     1       2.398   1.370   0.213  0.00  0.00    +0.173 A 
ATOM     14  C   UNL     1       2.374  -0.004   0.439  0.00  0.00    +0.174 A 
ATOM     15  C   UNL     1       1.177  -0.696   0.357  0.00  0.00    +0.073 A 
ATOM     16  C   UNL     1       0.004  -0.020   0.049  0.00  0.00    +0.038 A 
ATOM     17  O   UNL     1       3.643  -0.423   0.718  0.00  0.00    -0.395 OA
ATOM     18  C   UNL     1       4.506   0.634   0.260  0.00  0.00    +0.589 C 
ATOM     19  O   UNL     1       3.683   1.812   0.351  0.00  0.00    -0.395 OA
ATOM     20  F   UNL     1       5.625   0.751   1.092  0.00  0.00    -0.125 F 
ATOM     21  F   UNL     1       4.898   0.410  -1.064  0.00  0.00    -0.125 F 
ENDBRANCH   1  16
BRANCH   7  22
ATOM     22  C   UNL     1      -6.721  -2.789  -1.660  0.00  0.00    +0.216 C 
ATOM     23  O   UNL     1      -6.297  -3.631  -2.423  0.00  0.00    -0.276 OA
ATOM     24  N   UNL     1      -8.005  -2.389  -1.744  0.00  0.00    -0.312 N 
ATOM     25  H   UNL     1      -8.345  -1.716  -1.134  0.00  0.00    +0.149 HD
BRANCH  24  26
ATOM     26  C   UNL     1      -8.889  -2.972  -2.757  0.00  0.00    +0.073 C 
ATOM     27  C   UNL     1      -9.806  -2.019  -3.528  0.00  0.00    +0.024 C 
ATOM     28  C   UNL     1     -10.393  -2.960  -2.474  0.00  0.00    +0.024 C 
ENDBRANCH  24  26
ENDBRANCH   7  22
TORSDOF 3
