REMARK  Name = ZINC17099225
REMARK  7 active torsions:
REMARK  status: ('A' for Active; 'I' for Inactive)
REMARK    1  A    between atoms: C_1  and  C_2
REMARK    2  A    between atoms: C_6  and  N_8
REMARK    3  A    between atoms: C_9  and  C_11
REMARK    4  A    between atoms: N_21  and  C_22
REMARK    5  A    between atoms: C_22  and  C_24
REMARK    6  A    between atoms: C_26  and  C_30
REMARK    7  A    between atoms: C_28  and  C_29
REMARK                            x       y       z     vdW  Elec       q    Type
REMARK                         _______ _______ _______ _____ _____    ______ ____
ROOT
ATOM      1  C   UNL     1      -4.907  -4.505   0.177  0.00  0.00    +0.097 A 
ATOM      2  C   UNL     1      -5.583  -5.659  -0.213  0.00  0.00    +0.029 A 
ATOM      3  C   UNL     1      -4.816  -6.735  -0.728  0.00  0.00    +0.020 A 
ATOM      4  C   UNL     1      -5.446  -7.833  -1.331  0.00  0.00    +0.031 A 
ATOM      5  C   UNL     1      -4.692  -8.832  -1.879  0.00  0.00    +0.042 A 
ATOM      6  C   UNL     1      -3.304  -8.774  -1.834  0.00  0.00    +0.023 A 
ATOM      7  C   UNL     1      -2.665  -7.715  -1.225  0.00  0.00    +0.048 A 
ATOM      8  C   UNL     1      -3.410  -6.692  -0.653  0.00  0.00    +0.137 A 
ATOM      9  O   UNL     1      -2.792  -5.664  -0.027  0.00  0.00    -0.439 OA
ATOM     10  C   UNL     1      -3.449  -4.482  -0.020  0.00  0.00    +0.225 A 
ATOM     11  N   UNL     1      -2.799  -3.338  -0.180  0.00  0.00    -0.141 NA
ATOM     12 CL   UNL     1      -5.473 -10.185  -2.636  0.00  0.00    -0.084 Cl
ENDROOT
BRANCH   1  14
ATOM     13  N   UNL     1      -4.937  -2.251   1.120  0.00  0.00    -0.281 N 
ATOM     14  C   UNL     1      -5.621  -3.354   0.757  0.00  0.00    +0.253 C 
ATOM     15  O   UNL     1      -6.827  -3.400   0.909  0.00  0.00    -0.270 OA
ATOM     16  H   UNL     1      -3.969  -2.243   1.072  0.00  0.00    +0.155 HD
BRANCH  13  22
ATOM     17  C   UNL     1      -5.129   1.713   4.021  0.00  0.00    +0.044 C 
ATOM     18  C   UNL     1      -5.741   0.822   2.972  0.00  0.00    -0.049 A 
ATOM     19  C   UNL     1      -6.984   1.125   2.448  0.00  0.00    +0.003 A 
ATOM     20  C   UNL     1      -7.549   0.310   1.484  0.00  0.00    +0.002 A 
ATOM     21  C   UNL     1      -6.871  -0.807   1.038  0.00  0.00    +0.023 A 
ATOM     22  C   UNL     1      -5.625  -1.117   1.566  0.00  0.00    +0.034 A 
ATOM     23  C   UNL     1      -5.060  -0.297   2.534  0.00  0.00    +0.026 A 
ENDBRANCH  13  22
ENDBRANCH   1  14
BRANCH  11  24
ATOM     24  C   UNL     1      -1.470  -3.340  -0.352  0.00  0.00    +0.274 C 
ATOM     25  O   UNL     1      -0.859  -4.395  -0.361  0.00  0.00    -0.268 OA
BRANCH  24  26
ATOM     26  C   UNL     1      -0.746  -2.065  -0.530  0.00  0.00    +0.080 A 
ATOM     27  C   UNL     1      -1.319  -0.712  -0.539  0.00  0.00    +0.057 A 
ATOM     28  C   UNL     1      -0.288   0.125  -0.733  0.00  0.00    +0.103 A 
ATOM     29  O   UNL     1       0.844  -0.589  -0.833  0.00  0.00    -0.464 OA
ATOM     30  C   UNL     1       0.594  -1.898  -0.715  0.00  0.00    +0.114 A 
ATOM     31  C   UNL     1       1.620  -3.000  -0.774  0.00  0.00    +0.087 C 
ATOM     32  C   UNL     1      -0.385   1.626  -0.819  0.00  0.00    +0.086 C 
ENDBRANCH  24  26
ENDBRANCH  11  24
TORSDOF 4
