REMARK  Name = ZINC40485078
REMARK  7 active torsions:
REMARK  status: ('A' for Active; 'I' for Inactive)
REMARK    1  A    between atoms: C_1  and  C_2
REMARK    2  A    between atoms: C_2  and  O_3
REMARK    3  A    between atoms: O_3  and  C_4
REMARK    4  A    between atoms: C_9  and  N_10
REMARK    5  A    between atoms: C_11  and  C_13
REMARK    6  A    between atoms: C_14  and  C_30
REMARK    7  A    between atoms: C_21  and  C_23
REMARK                            x       y       z     vdW  Elec       q    Type
REMARK                         _______ _______ _______ _____ _____    ______ ____
ROOT
ATOM      1  C   UNL     1       3.304  -1.326   5.507  0.00  0.00    +0.060 C 
ATOM      2  C   UNL     1       3.963  -1.961   6.487  0.00  0.00    +0.018 C 
ATOM      3  N   UNL     1       4.584  -1.286   7.509  0.00  0.00    -0.287 N 
ATOM      4  C   UNL     1       4.739   0.086   7.367  0.00  0.00    +0.218 A 
ATOM      5  N   UNL     1       5.463   0.928   8.052  0.00  0.00    -0.201 NA
ATOM      6  C   UNL     1       5.308   2.159   7.555  0.00  0.00    +0.247 A 
ATOM      7  N   UNL     1       4.477   2.114   6.543  0.00  0.00    -0.156 NA
ATOM      8  N   UNL     1       4.089   0.783   6.401  0.00  0.00    -0.221 N 
ATOM      9  C   UNL     1       3.178   0.173   5.438  0.00  0.00    +0.178 C 
ATOM     10  C   UNL     1       4.023  -3.467   6.466  0.00  0.00    +0.061 C 
ATOM     11  H   UNL     1       4.903  -1.750   8.299  0.00  0.00    +0.155 HD
ENDROOT
BRANCH   9  12
ATOM     12  C   UNL     1       1.763   0.574   5.769  0.00  0.00    -0.004 A 
ATOM     13  C   UNL     1       1.224   0.255   7.001  0.00  0.00    +0.007 A 
ATOM     14  C   UNL     1      -0.073   0.623   7.305  0.00  0.00    +0.000 A 
ATOM     15  C   UNL     1      -0.832   1.311   6.376  0.00  0.00    +0.001 A 
ATOM     16  C   UNL     1      -0.294   1.631   5.144  0.00  0.00    +0.015 A 
ATOM     17  C   UNL     1       1.006   1.267   4.842  0.00  0.00    +0.023 A 
ATOM     18 BR   UNL     1       1.746   1.710   3.159  0.00  0.00    -0.050 Br
ENDBRANCH   9  12
BRANCH   1  20
ATOM     19  N   UNL     1       1.472  -2.618   4.670  0.00  0.00    -0.279 N 
ATOM     20  C   UNL     1       2.703  -2.100   4.487  0.00  0.00    +0.248 C 
ATOM     21  O   UNL     1       3.297  -2.299   3.443  0.00  0.00    -0.270 OA
ATOM     22  H   UNL     1       0.965  -2.393   5.466  0.00  0.00    +0.155 HD
BRANCH  19  28
ATOM     23  C   UNL     1      -0.457  -3.615   3.601  0.00  0.00    +0.142 A 
ATOM     24  C   UNL     1      -0.993  -4.466   2.648  0.00  0.00    +0.047 A 
ATOM     25  C   UNL     1      -0.156  -5.182   1.812  0.00  0.00    +0.004 A 
ATOM     26  C   UNL     1       1.216  -5.053   1.924  0.00  0.00    +0.002 A 
ATOM     27  C   UNL     1       1.758  -4.207   2.873  0.00  0.00    +0.027 A 
ATOM     28  C   UNL     1       0.925  -3.480   3.712  0.00  0.00    +0.076 A 
BRANCH  23  29
ATOM     29  O   UNL     1      -1.279  -2.910   4.424  0.00  0.00    -0.490 OA
BRANCH  29  31
ATOM     30  C   UNL     1      -3.442  -2.229   5.260  0.00  0.00    +0.048 C 
ATOM     31  C   UNL     1      -2.685  -3.099   4.254  0.00  0.00    +0.226 C 
ENDBRANCH  29  31
ENDBRANCH  23  29
ENDBRANCH  19  28
ENDBRANCH   1  20
TORSDOF 5
