REMARK  Name = ZINC32096281
REMARK  2 active torsions:
REMARK  status: ('A' for Active; 'I' for Inactive)
REMARK    1  A    between atoms: C_10  and  C_15
REMARK    2  A    between atoms: C_15  and  C_16
REMARK                            x       y       z     vdW  Elec       q    Type
REMARK                         _______ _______ _______ _____ _____    ______ ____
ROOT
ATOM      1  C   UNL     1      -0.017   1.370   0.010  0.00  0.00    +0.001 A 
ATOM      2  C   UNL     1       1.173   2.080   0.002  0.00  0.00    +0.002 A 
ATOM      3  C   UNL     1       2.377   1.413  -0.010  0.00  0.00    +0.024 A 
ATOM      4  C   UNL     1       2.418   0.016  -0.017  0.00  0.00    +0.046 A 
ATOM      5  C   UNL     1       1.222  -0.701  -0.013  0.00  0.00    +0.058 A 
ATOM      6  C   UNL     1       0.002  -0.004   0.002  0.00  0.00    +0.015 A 
ATOM      7  C   UNL     1       1.166  -2.168  -0.030  0.00  0.00    +0.246 C 
ATOM      8  O   UNL     1       0.328  -2.710   0.664  0.00  0.00    -0.270 OA
ATOM      9  N   UNL     1       1.970  -2.945  -0.753  0.00  0.00    -0.300 N 
ATOM     10  C   UNL     1       3.019  -2.380  -1.602  0.00  0.00    +0.168 C 
ATOM     11  C   UNL     1       4.008  -1.651  -0.734  0.00  0.00    +0.238 C 
ATOM     12  O   UNL     1       5.152  -2.051  -0.683  0.00  0.00    -0.273 OA
ATOM     13  N   UNL     1       3.665  -0.582  -0.023  0.00  0.00    -0.283 N 
ATOM     14  H   UNL     1       1.859  -3.908  -0.715  0.00  0.00    +0.150 HD
ATOM     15  H   UNL     1       4.349  -0.188   0.541  0.00  0.00    +0.155 HD
ENDROOT
BRANCH  10  16
ATOM     16  C   UNL     1       2.397  -1.405  -2.604  0.00  0.00    +0.128 C 
BRANCH  16  17
ATOM     17  C   UNL     1       1.489  -2.159  -3.541  0.00  0.00    +0.221 C 
ATOM     18  O   UNL     1       1.353  -3.358  -3.420  0.00  0.00    -0.275 OA
ATOM     19  N   UNL     1       0.828  -1.501  -4.514  0.00  0.00    -0.265 N 
ATOM     20  C   UNL     1      -0.006  -2.195  -5.376  0.00  0.00    +0.165 A 
ATOM     21  N   UNL     1      -0.283  -3.478  -5.399  0.00  0.00    -0.225 NA
ATOM     22  C   UNL     1      -1.124  -4.022  -6.305  0.00  0.00    +0.080 A 
ATOM     23  C   UNL     1      -1.504  -5.378  -6.439  0.00  0.00    +0.029 A 
ATOM     24  C   UNL     1      -2.375  -5.767  -7.423  0.00  0.00    +0.002 A 
ATOM     25  C   UNL     1      -2.913  -4.854  -8.318  0.00  0.00    +0.001 A 
ATOM     26  C   UNL     1      -2.563  -3.520  -8.216  0.00  0.00    +0.017 A 
ATOM     27  C   UNL     1      -1.691  -3.121  -7.234  0.00  0.00    +0.041 A 
ATOM     28  S   UNL     1      -0.985  -1.569  -6.734  0.00  0.00    -0.052 S 
ATOM     29  H   UNL     1       0.937  -0.542  -4.612  0.00  0.00    +0.157 HD
ENDBRANCH  16  17
ENDBRANCH  10  16
TORSDOF 2
