REMARK  Name = ZINC22419141
REMARK  8 active torsions:
REMARK  status: ('A' for Active; 'I' for Inactive)
REMARK    1  A    between atoms: C_1  and  N_2
REMARK    2  A    between atoms: N_2  and  C_3
REMARK    3  A    between atoms: N_2  and  C_4
REMARK    4  A    between atoms: C_7  and  C_10
REMARK    5  A    between atoms: C_10  and  C_12
REMARK    6  A    between atoms: C_10  and  N_22
REMARK    7  A    between atoms: C_12  and  N_13
REMARK    8  A    between atoms: N_16  and  C_17
REMARK                            x       y       z     vdW  Elec       q    Type
REMARK                         _______ _______ _______ _____ _____    ______ ____
ROOT
ATOM      1  C   UNL     1       7.200   1.925   0.070  0.00  0.00    -0.020 C 
ENDROOT
BRANCH   1   2
ATOM      2  N   UNL     1       7.098   0.949   1.163  0.00  0.00    +0.388 N 
ATOM      3  C   UNL     1       6.760  -0.387   0.647  0.00  0.00    -0.073 C 
ATOM      4  C   UNL     1       7.026  -1.415   1.748  0.00  0.00    +0.017 C 
ATOM      5  C   UNL     1       6.363  -0.979   3.029  0.00  0.00    -0.048 A 
ATOM      6  C   UNL     1       6.182  -1.918   4.033  0.00  0.00    +0.004 A 
ATOM      7  C   UNL     1       5.587  -1.559   5.225  0.00  0.00    +0.000 A 
ATOM      8  C   UNL     1       5.168  -0.256   5.420  0.00  0.00    +0.000 A 
ATOM      9  C   UNL     1       5.345   0.679   4.420  0.00  0.00    +0.002 A 
ATOM     10  C   UNL     1       5.942   0.320   3.220  0.00  0.00    -0.061 A 
ATOM     11  C   UNL     1       6.109   1.374   2.158  0.00  0.00    -0.042 C 
ATOM     12  H   UNL     1       8.081   0.895   1.655  0.00  0.00    -0.080 HD
ENDBRANCH   1   2
BRANCH   1  16
ATOM     13  C   UNL     1      10.259   4.768   0.979  0.00  0.00    +0.029 A 
ATOM     14  C   UNL     1      10.184   4.208  -0.290  0.00  0.00    +0.023 A 
ATOM     15  C   UNL     1       9.194   3.290  -0.580  0.00  0.00    +0.004 A 
ATOM     16  C   UNL     1       8.278   2.928   0.391  0.00  0.00    -0.059 A 
ATOM     17  C   UNL     1       8.347   3.487   1.653  0.00  0.00    +0.004 A 
ATOM     18  C   UNL     1       9.337   4.402   1.952  0.00  0.00    +0.023 A 
BRANCH  13  20
ATOM     19  C   UNL     1      12.229   6.083   0.248  0.00  0.00    +0.129 C 
ATOM     20  N   UNL     1      11.258   5.698   1.276  0.00  0.00    -0.336 N 
ATOM     21  C   UNL     1      11.336   6.287   2.615  0.00  0.00    +0.129 C 
ENDBRANCH  13  20
ENDBRANCH   1  16
BRANCH   1  22
ATOM     22  C   UNL     1       5.862   2.650  -0.092  0.00  0.00    +0.095 C 
BRANCH  22  23
ATOM     23  N   UNL     1       4.818   1.678  -0.427  0.00  0.00    -0.300 N 
ATOM     24  C   UNL     1       3.531   2.071  -0.500  0.00  0.00    +0.304 C 
ATOM     25  O   UNL     1       3.236   3.231  -0.288  0.00  0.00    -0.252 OA
ATOM     26  N   UNL     1       2.570   1.177  -0.809  0.00  0.00    -0.264 N 
ATOM     27  H   UNL     1       5.085   0.628  -0.619  0.00  0.00    +0.150 HD
ATOM     28  H   UNL     1       2.837   0.127  -1.001  0.00  0.00    +0.157 HD
BRANCH  26  29
ATOM     29  C   UNL     1       1.235   1.584  -0.885  0.00  0.00    +0.073 A 
ATOM     30  C   UNL     1       0.128   0.846  -1.178  0.00  0.00    +0.031 A 
ATOM     31  C   UNL     1      -1.104   1.473  -1.200  0.00  0.00    +0.009 A 
ATOM     32  C   UNL     1      -1.175   2.796  -0.920  0.00  0.00    +0.047 A 
ATOM     33  S   UNL     1       0.537   3.206  -0.623  0.00  0.00    -0.082 S 
ENDBRANCH  26  29
ENDBRANCH  22  23
ENDBRANCH   1  22
TORSDOF 6
