REMARK  Name = ZINC13451343
REMARK  9 active torsions:
REMARK  status: ('A' for Active; 'I' for Inactive)
REMARK    1  A    between atoms: C_4  and  C_7
REMARK    2  A    between atoms: C_13  and  O_36
REMARK    3  A    between atoms: C_14  and  C_28
REMARK    4  A    between atoms: C_15  and  O_27
REMARK    5  A    between atoms: C_16  and  C_19
REMARK    6  A    between atoms: C_19  and  C_20
REMARK    7  A    between atoms: C_25  and  O_26
REMARK    8  A    between atoms: C_28  and  C_29
REMARK    9  A    between atoms: C_34  and  O_35
REMARK                            x       y       z     vdW  Elec       q    Type
REMARK                         _______ _______ _______ _____ _____    ______ ____
ROOT
ATOM      1  C   UNL     1       2.768  -1.222  -5.952  0.00  0.00    +0.211 C 
ATOM      2  C   UNL     1       2.556  -2.453  -5.059  0.00  0.00    +0.129 C 
ATOM      3  C   UNL     1       1.985  -1.959  -3.742  0.00  0.00    +0.174 C 
ATOM      4  O   UNL     1       1.106  -2.562  -3.162  0.00  0.00    -0.292 OA
ATOM      5  C   UNL     1       2.549  -0.715  -3.206  0.00  0.00    +0.101 A 
ATOM      6  C   UNL     1       2.281  -0.316  -1.887  0.00  0.00    +0.138 A 
ATOM      7  C   UNL     1       2.813   0.869  -1.412  0.00  0.00    +0.041 A 
ATOM      8  C   UNL     1       3.616   1.650  -2.234  0.00  0.00    +0.131 A 
ATOM      9  C   UNL     1       3.893   1.256  -3.537  0.00  0.00    +0.041 A 
ATOM     10  C   UNL     1       3.369   0.075  -4.033  0.00  0.00    +0.142 A 
ATOM     11  O   UNL     1       3.652  -0.310  -5.300  0.00  0.00    -0.483 OA
ENDROOT
BRANCH   1  15
ATOM     12  C   UNL     1       4.469  -2.438  -9.677  0.00  0.00    +0.000 A 
ATOM     13  C   UNL     1       3.114  -2.183  -9.586  0.00  0.00    +0.000 A 
ATOM     14  C   UNL     1       2.563  -1.790  -8.381  0.00  0.00    +0.007 A 
ATOM     15  C   UNL     1       3.368  -1.651  -7.266  0.00  0.00    -0.007 A 
ATOM     16  C   UNL     1       4.725  -1.901  -7.357  0.00  0.00    +0.007 A 
ATOM     17  C   UNL     1       5.274  -2.300  -8.562  0.00  0.00    +0.000 A 
ENDBRANCH   1  15
BRANCH   8  18
ATOM     18  O   UNL     1       4.136   2.810  -1.760  0.00  0.00    -0.506 OA
ATOM     19  H   UNL     1       5.001   2.711  -1.338  0.00  0.00    +0.292 HD
ENDBRANCH   8  18
BRANCH   6  20
ATOM     20  O   UNL     1       1.503  -1.085  -1.086  0.00  0.00    -0.506 OA
ATOM     21  H   UNL     1       0.554  -0.937  -1.200  0.00  0.00    +0.292 HD
ENDBRANCH   6  20
BRANCH   9  22
ATOM     22  C   UNL     1       4.768   2.116  -4.412  0.00  0.00    +0.081 C 
BRANCH  22  23
ATOM     23  C   UNL     1       6.207   1.700  -4.248  0.00  0.00    -0.001 A 
ATOM     24  C   UNL     1       7.021   2.368  -3.353  0.00  0.00    +0.007 A 
ATOM     25  C   UNL     1       8.340   1.985  -3.198  0.00  0.00    +0.001 A 
ATOM     26  C   UNL     1       8.851   0.939  -3.945  0.00  0.00    +0.004 A 
ATOM     27  C   UNL     1       8.043   0.271  -4.844  0.00  0.00    +0.046 A 
ATOM     28  C   UNL     1       6.717   0.651  -4.998  0.00  0.00    +0.120 A 
BRANCH  28  29
ATOM     29  O   UNL     1       5.919  -0.004  -5.882  0.00  0.00    -0.506 OA
ATOM     30  H   UNL     1       5.925   0.374  -6.772  0.00  0.00    +0.292 HD
ENDBRANCH  28  29
ENDBRANCH  22  23
ENDBRANCH   9  22
BRANCH   7  31
ATOM     31  C   UNL     1       2.526   1.311  -0.000  0.00  0.00    +0.081 C 
BRANCH  31  32
ATOM     32  C   UNL     1       1.370   2.277  -0.001  0.00  0.00    -0.001 A 
ATOM     33  C   UNL     1       1.605   3.636  -0.091  0.00  0.00    +0.007 A 
ATOM     34  C   UNL     1       0.545   4.523  -0.093  0.00  0.00    +0.001 A 
ATOM     35  C   UNL     1      -0.753   4.054  -0.004  0.00  0.00    +0.004 A 
ATOM     36  C   UNL     1      -0.993   2.696   0.081  0.00  0.00    +0.046 A 
ATOM     37  C   UNL     1       0.070   1.804   0.088  0.00  0.00    +0.120 A 
BRANCH  37  38
ATOM     38  O   UNL     1      -0.164   0.468   0.176  0.00  0.00    -0.506 OA
ATOM     39  H   UNL     1      -0.190   0.132   1.083  0.00  0.00    +0.292 HD
ENDBRANCH  37  38
ENDBRANCH  31  32
ENDBRANCH   7  31
TORSDOF 9
