REMARK  Name = ZINC25881846
REMARK  3 active torsions:
REMARK  status: ('A' for Active; 'I' for Inactive)
REMARK    1  A    between atoms: C_7  and  C_15
REMARK    2  A    between atoms: N_17  and  C_18
REMARK    3  A    between atoms: C_21  and  N_24
REMARK                            x       y       z     vdW  Elec       q    Type
REMARK                         _______ _______ _______ _____ _____    ______ ____
ROOT
ATOM      1  C   UNL     1       0.918  -2.659   1.392  0.00  0.00    +0.229 C 
ATOM      2  O   UNL     1       0.734  -1.875   2.298  0.00  0.00    -0.274 OA
ATOM      3  N   UNL     1       0.854  -3.985   1.625  0.00  0.00    -0.285 N 
ATOM      4  H   UNL     1       0.933  -4.612   0.889  0.00  0.00    +0.155 HD
ENDROOT
BRANCH   1  11
ATOM      5  C   UNL     1       0.023   1.423   0.062  0.00  0.00    +0.001 A 
ATOM      6  C   UNL     1       1.216   2.123   0.052  0.00  0.00    +0.004 A 
ATOM      7  C   UNL     1       2.416   1.441   0.025  0.00  0.00    +0.046 A 
ATOM      8  C   UNL     1       2.428   0.050   0.009  0.00  0.00    +0.133 A 
ATOM      9  C   UNL     1       1.232  -0.648   0.019  0.00  0.00    +0.011 A 
ATOM     10  C   UNL     1       0.032   0.041   0.045  0.00  0.00    +0.008 A 
ATOM     11  C   UNL     1       1.218  -2.152   0.005  0.00  0.00    +0.142 C 
ATOM     12  C   UNL     1       2.550  -2.690  -0.443  0.00  0.00    +0.011 A 
ATOM     13  C   UNL     1       2.642  -4.004  -0.868  0.00  0.00    +0.008 A 
ATOM     14  C   UNL     1       3.856  -4.517  -1.282  0.00  0.00    +0.001 A 
ATOM     15  C   UNL     1       4.985  -3.719  -1.272  0.00  0.00    +0.004 A 
ATOM     16  C   UNL     1       4.899  -2.408  -0.849  0.00  0.00    +0.046 A 
ATOM     17  C   UNL     1       3.679  -1.888  -0.432  0.00  0.00    +0.133 A 
ATOM     18  O   UNL     1       3.616  -0.600  -0.017  0.00  0.00    -0.455 OA
ENDBRANCH   1  11
BRANCH   3  19
ATOM     19  C   UNL     1       0.672  -4.459   2.931  0.00  0.00    +0.034 A 
ATOM     20  C   UNL     1       1.292  -5.634   3.336  0.00  0.00    +0.025 A 
ATOM     21  C   UNL     1       1.113  -6.100   4.623  0.00  0.00    +0.025 A 
ATOM     22  C   UNL     1       0.313  -5.395   5.512  0.00  0.00    +0.035 A 
ATOM     23  C   UNL     1      -0.307  -4.220   5.107  0.00  0.00    +0.025 A 
ATOM     24  C   UNL     1      -0.122  -3.750   3.822  0.00  0.00    +0.025 A 
BRANCH  22  25
ATOM     25  N   UNL     1       0.131  -5.869   6.818  0.00  0.00    -0.270 N 
ATOM     26  C   UNL     1      -1.055  -5.701   7.437  0.00  0.00    +0.301 C 
ATOM     27  O   UNL     1      -1.939  -5.067   6.895  0.00  0.00    -0.253 OA
ATOM     28  N   UNL     1      -1.260  -6.238   8.656  0.00  0.00    -0.313 N 
ATOM     29  H   UNL     1       0.859  -6.317   7.277  0.00  0.00    +0.156 HD
ATOM     30  H   UNL     1      -0.555  -6.744   9.088  0.00  0.00    +0.146 HD
ATOM     31  H   UNL     1      -2.114  -6.117   9.101  0.00  0.00    +0.146 HD
ENDBRANCH  22  25
ENDBRANCH   3  19
TORSDOF 3
