REMARK  Name = ZINC34388725
REMARK  10 active torsions:
REMARK  status: ('A' for Active; 'I' for Inactive)
REMARK    1  A    between atoms: C_1  and  C_2
REMARK    2  A    between atoms: C_5  and  N_9
REMARK    3  A    between atoms: C_14  and  C_29
REMARK    4  A    between atoms: C_17  and  C_22
REMARK    5  A    between atoms: C_17  and  C_26
REMARK    6  A    between atoms: C_22  and  C_24
REMARK    7  A    between atoms: C_22  and  O_25
REMARK    8  A    between atoms: C_32  and  O_37
REMARK    9  A    between atoms: C_33  and  O_35
REMARK   10  A    between atoms: O_35  and  C_36
REMARK                            x       y       z     vdW  Elec       q    Type
REMARK                         _______ _______ _______ _____ _____    ______ ____
ROOT
ATOM      1  N   UNL     1       0.084  -4.147   0.060  0.00  0.00    -0.210 N 
ATOM      2  C   UNL     1       0.097  -4.872  -1.106  0.00  0.00    +0.229 C 
ATOM      3  O   UNL     1       0.318  -4.469  -2.227  0.00  0.00    -0.275 OA
ATOM      4  C   UNL     1      -0.212  -6.223  -0.698  0.00  0.00    +0.077 C 
ATOM      5  C   UNL     1      -0.104  -7.603  -1.192  0.00  0.00    -0.026 C 
ATOM      6  N   UNL     1      -0.235  -8.449   0.041  0.00  0.00    +0.397 N 
ATOM      7  C   UNL     1      -0.289  -7.524   1.219  0.00  0.00    +0.074 C 
ATOM      8  C   UNL     1       0.507  -6.304   0.708  0.00  0.00    +0.089 C 
ATOM      9  C   UNL     1       0.089  -4.936   1.174  0.00  0.00    +0.229 C 
ATOM     10  O   UNL     1      -0.188  -4.604   2.307  0.00  0.00    -0.275 OA
ATOM     11  H   UNL     1      -1.083  -8.994  -0.006  0.00  0.00    -0.083 HD
ATOM     12  H   UNL     1       0.563  -9.061   0.122  0.00  0.00    -0.083 HD
ENDROOT
BRANCH   1  17
ATOM     13  C   UNL     1       0.038   1.527   0.226  0.00  0.00    +0.045 C 
ATOM     14  C   UNL     1       0.050   0.021   0.182  0.00  0.00    -0.032 A 
ATOM     15  C   UNL     1       0.057  -0.634  -1.036  0.00  0.00    +0.006 A 
ATOM     16  C   UNL     1       0.069  -2.014  -1.079  0.00  0.00    +0.024 A 
ATOM     17  C   UNL     1       0.073  -2.745   0.101  0.00  0.00    +0.045 A 
ATOM     18  C   UNL     1       0.066  -2.086   1.323  0.00  0.00    +0.044 A 
ATOM     19  C   UNL     1       0.060  -0.704   1.361  0.00  0.00    +0.046 A 
ATOM     20 CL   UNL     1       0.057   0.122   2.888  0.00  0.00    -0.083 Cl
ENDBRANCH   1  17
BRANCH   5  21
ATOM     21  C   UNL     1       1.234  -7.825  -1.847  0.00  0.00    -0.057 A 
ATOM     22  C   UNL     1       2.350  -8.071  -1.070  0.00  0.00    +0.006 A 
ATOM     23  C   UNL     1       3.581  -8.276  -1.666  0.00  0.00    +0.049 A 
ATOM     24  C   UNL     1       3.697  -8.235  -3.046  0.00  0.00    +0.158 A 
ATOM     25  C   UNL     1       2.573  -7.987  -3.829  0.00  0.00    +0.161 A 
ATOM     26  C   UNL     1       1.342  -7.788  -3.225  0.00  0.00    +0.051 A 
BRANCH  25  27
ATOM     27  O   UNL     1       2.682  -7.946  -5.184  0.00  0.00    -0.491 OA
ATOM     28  C   UNL     1       1.487  -7.687  -5.923  0.00  0.00    +0.277 C 
ENDBRANCH  25  27
BRANCH  24  29
ATOM     29  O   UNL     1       4.906  -8.435  -3.635  0.00  0.00    -0.503 OA
ATOM     30  H   UNL     1       5.093  -9.361  -3.845  0.00  0.00    +0.292 HD
ENDBRANCH  24  29
ENDBRANCH   5  21
BRANCH   7  31
ATOM     31  C   UNL     1       0.398  -8.138   2.412  0.00  0.00    +0.349 C 
ATOM     32  O   UNL     1       0.875  -9.257   2.331  0.00  0.00    -0.248 OA
ATOM     33  O   UNL     1       0.476  -7.516   3.457  0.00  0.00    -0.248 OA
ENDBRANCH   7  31
BRANCH   7  34
ATOM     34  C   UNL     1      -1.736  -7.157   1.554  0.00  0.00    +0.112 C 
ATOM     35  C   UNL     1      -2.542  -8.433   1.801  0.00  0.00    +0.037 C 
BRANCH  34  36
ATOM     36  O   UNL     1      -1.761  -6.343   2.729  0.00  0.00    -0.393 OA
ATOM     37  H   UNL     1      -1.387  -6.771   3.511  0.00  0.00    +0.210 HD
ENDBRANCH  34  36
ENDBRANCH   7  34
TORSDOF 7
