REMARK  Name = ZINC43534890
REMARK  4 active torsions:
REMARK  status: ('A' for Active; 'I' for Inactive)
REMARK    1  A    between atoms: C_4  and  N_7
REMARK    2  A    between atoms: C_8  and  C_21
REMARK    3  A    between atoms: C_10  and  S_12
REMARK    4  A    between atoms: S_12  and  C_13
REMARK                            x       y       z     vdW  Elec       q    Type
REMARK                         _______ _______ _______ _____ _____    ______ ____
ROOT
ATOM      1  N   UNL     1       3.623  -0.652  -0.037  0.00  0.00    -0.216 N 
ATOM      2  C   UNL     1       3.902  -1.822   0.568  0.00  0.00    +0.137 A 
ATOM      3  N   UNL     1       5.149  -2.126   0.315  0.00  0.00    -0.205 NA
ATOM      4  C   UNL     1       5.701  -1.175  -0.447  0.00  0.00    +0.215 A 
ATOM      5  N   UNL     1       4.800  -0.253  -0.693  0.00  0.00    -0.138 NA
ENDROOT
BRANCH   1   9
ATOM      6  C   UNL     1      -0.017   1.379   0.010  0.00  0.00    +0.000 A 
ATOM      7  C   UNL     1       1.170   2.089   0.002  0.00  0.00    +0.002 A 
ATOM      8  C   UNL     1       2.377   1.419  -0.013  0.00  0.00    +0.028 A 
ATOM      9  C   UNL     1       2.400   0.031  -0.021  0.00  0.00    +0.067 A 
ATOM     10  C   UNL     1       1.207  -0.680  -0.013  0.00  0.00    +0.028 A 
ATOM     11  C   UNL     1       0.002  -0.004   0.002  0.00  0.00    +0.002 A 
ENDBRANCH   1   9
BRANCH   2  12
ATOM     12  C   UNL     1       2.943  -2.641   1.393  0.00  0.00    +0.057 C 
ATOM     13  C   UNL     1       3.513  -3.836   2.159  0.00  0.00    +0.012 C 
ATOM     14  C   UNL     1       2.642  -4.065   0.922  0.00  0.00    +0.012 C 
ENDBRANCH   2  12
BRANCH   4  15
ATOM     15  S   UNL     1       7.363  -1.166  -1.032  0.00  0.00    -0.028 S 
BRANCH  15  16
ATOM     16  C   UNL     1       7.478   0.324  -1.965  0.00  0.00    +0.111 A 
ATOM     17  C   UNL     1       8.673   0.672  -2.598  0.00  0.00    +0.075 A 
ATOM     18  C   UNL     1       8.717   1.850  -3.320  0.00  0.00    +0.135 A 
ATOM     19  N   UNL     1       7.631   2.609  -3.391  0.00  0.00    -0.203 NA
ATOM     20  C   UNL     1       6.511   2.252  -2.780  0.00  0.00    +0.215 A 
ATOM     21  N   UNL     1       6.427   1.129  -2.083  0.00  0.00    -0.208 NA
ATOM     22  N   UNL     1       5.400   3.071  -2.877  0.00  0.00    -0.327 N 
ATOM     23 CL   UNL     1      10.178   2.332  -4.126  0.00  0.00    -0.062 Cl
ATOM     24  H   UNL     1       5.447   3.894  -3.388  0.00  0.00    +0.145 HD
ATOM     25  H   UNL     1       4.573   2.821  -2.435  0.00  0.00    +0.145 HD
ENDBRANCH  15  16
ENDBRANCH   4  15
TORSDOF 4
