REMARK  Name = ZINC38849598
REMARK  9 active torsions:
REMARK  status: ('A' for Active; 'I' for Inactive)
REMARK    1  A    between atoms: C_1  and  C_2
REMARK    2  A    between atoms: C_7  and  N_8
REMARK    3  A    between atoms: C_9  and  C_11
REMARK    4  A    between atoms: N_14  and  S_26
REMARK    5  A    between atoms: C_17  and  C_22
REMARK    6  A    between atoms: C_22  and  C_23
REMARK    7  A    between atoms: C_22  and  C_24
REMARK    8  A    between atoms: C_22  and  C_25
REMARK    9  A    between atoms: S_26  and  C_29
REMARK                            x       y       z     vdW  Elec       q    Type
REMARK                         _______ _______ _______ _____ _____    ______ ____
ROOT
ATOM      1  C   UNL     1      -0.168   0.054   4.882  0.00  0.00    +0.278 C 
ATOM      2  C   UNL     1      -1.499   0.817   4.926  0.00  0.00    +0.185 C 
ATOM      3  N   UNL     1      -1.585   1.489   6.234  0.00  0.00    -0.200 N 
ATOM      4  C   UNL     1      -1.173   0.768   7.366  0.00  0.00    +0.093 A 
ATOM      5  C   UNL     1      -1.491   1.226   8.634  0.00  0.00    +0.032 A 
ATOM      6  C   UNL     1      -1.080   0.514   9.747  0.00  0.00    -0.040 A 
ATOM      7  C   UNL     1      -0.354  -0.652   9.593  0.00  0.00    +0.008 A 
ATOM      8  C   UNL     1      -0.035  -1.113   8.330  0.00  0.00    +0.048 A 
ATOM      9  C   UNL     1      -0.444  -0.407   7.209  0.00  0.00    +0.144 A 
ATOM     10  O   UNL     1      -0.129  -0.873   5.970  0.00  0.00    -0.476 OA
ENDROOT
BRANCH   1  12
ATOM     11  N   UNL     1       0.025  -0.014   2.417  0.00  0.00    -0.282 N 
ATOM     12  C   UNL     1      -0.056  -0.693   3.578  0.00  0.00    +0.260 C 
ATOM     13  O   UNL     1      -0.040  -1.906   3.574  0.00  0.00    -0.271 OA
ATOM     14  H   UNL     1       0.078   0.955   2.424  0.00  0.00    +0.155 HD
BRANCH  11  21
ATOM     15  C   UNL     1      -1.264   1.183   0.181  0.00  0.00    +0.045 C 
ATOM     16  C   UNL     1      -0.584  -0.158   0.084  0.00  0.00    -0.029 A 
ATOM     17  C   UNL     1      -0.569  -0.840  -1.117  0.00  0.00    +0.006 A 
ATOM     18  C   UNL     1       0.054  -2.070  -1.207  0.00  0.00    +0.020 A 
ATOM     19  C   UNL     1       0.666  -2.622  -0.095  0.00  0.00    +0.043 A 
ATOM     20  C   UNL     1       0.655  -1.944   1.109  0.00  0.00    +0.043 A 
ATOM     21  C   UNL     1       0.034  -0.706   1.201  0.00  0.00    +0.038 A 
ATOM     22 CL   UNL     1       1.449  -4.168  -0.213  0.00  0.00    -0.083 Cl
ENDBRANCH  11  21
ENDBRANCH   1  12
BRANCH   6  23
ATOM     23  C   UNL     1      -1.425   1.010  11.127  0.00  0.00    -0.013 C 
ATOM     24  C   UNL     1      -2.946   1.085  11.277  0.00  0.00    +0.015 C 
ATOM     25  C   UNL     1      -0.857   0.048  12.172  0.00  0.00    +0.015 C 
ATOM     26  C   UNL     1      -0.823   2.401  11.335  0.00  0.00    +0.015 C 
ENDBRANCH   6  23
BRANCH   3  27
ATOM     27  S   UNL     1      -2.146   3.042   6.364  0.00  0.00    +0.043 S 
ATOM     28  O   UNL     1      -1.539   3.549   7.544  0.00  0.00    -0.155 OA
ATOM     29  O   UNL     1      -1.878   3.632   5.100  0.00  0.00    -0.155 OA
ATOM     30  C   UNL     1      -3.936   2.871   6.607  0.00  0.00    +0.218 C 
ENDBRANCH   3  27
TORSDOF 4
