REMARK  Name = ZINC50252678
REMARK  8 active torsions:
REMARK  status: ('A' for Active; 'I' for Inactive)
REMARK    1  A    between atoms: C_1  and  C_2
REMARK    2  A    between atoms: C_4  and  S_8
REMARK    3  A    between atoms: N_6  and  C_7
REMARK    4  A    between atoms: S_8  and  N_11
REMARK    5  A    between atoms: N_11  and  C_12
REMARK    6  A    between atoms: C_12  and  C_14
REMARK    7  A    between atoms: C_12  and  C_15
REMARK    8  A    between atoms: C_20  and  N_21
REMARK                            x       y       z     vdW  Elec       q    Type
REMARK                         _______ _______ _______ _____ _____    ______ ____
ROOT
ATOM      1  N   UNL     1      -0.756  -2.793  -2.953  0.00  0.00    -0.181 NA
ATOM      2  H   UNL     1      -1.599  -3.255  -3.086  0.00  0.00    +0.149 HD
ENDROOT
BRANCH   1   3
ATOM      3  S   UNL     1       0.068  -2.969  -1.527  0.00  0.00    +0.078 S 
ATOM      4  O   UNL     1       1.413  -3.270  -1.869  0.00  0.00    -0.152 OA
ATOM      5  O   UNL     1      -0.719  -3.822  -0.706  0.00  0.00    -0.152 OA
BRANCH   3   9
ATOM      6  C   UNL     1       0.095   2.227  -0.754  0.00  0.00    +0.086 C 
ATOM      7  C   UNL     1       0.099   0.748  -0.465  0.00  0.00    +0.109 A 
ATOM      8  N   UNL     1       0.076  -0.202  -1.359  0.00  0.00    -0.213 NA
ATOM      9  C   UNL     1       0.089  -1.392  -0.740  0.00  0.00    +0.211 A 
ATOM     10  C   UNL     1       0.120  -1.171   0.588  0.00  0.00    +0.135 A 
ATOM     11  N   UNL     1       0.132   0.186   0.763  0.00  0.00    -0.336 N 
ATOM     12  C   UNL     1       0.170   0.897   2.043  0.00  0.00    +0.150 C 
ENDBRANCH   3   9
ENDBRANCH   1   3
BRANCH   1  13
ATOM     13  C   UNL     1      -0.211  -1.941  -4.013  0.00  0.00    +0.105 C 
ATOM     14  C   UNL     1       0.540  -2.806  -5.027  0.00  0.00    +0.031 C 
BRANCH  13  15
ATOM     15  C   UNL     1      -1.339  -1.219  -4.705  0.00  0.00    -0.009 A 
ATOM     16  C   UNL     1      -2.604  -1.772  -4.727  0.00  0.00    +0.007 A 
ATOM     17  C   UNL     1      -3.639  -1.110  -5.362  0.00  0.00    +0.000 A 
ATOM     18  C   UNL     1      -3.410   0.107  -5.979  0.00  0.00    +0.002 A 
ATOM     19  C   UNL     1      -2.148   0.665  -5.961  0.00  0.00    +0.023 A 
ATOM     20  C   UNL     1      -1.107   0.006  -5.318  0.00  0.00    +0.029 A 
BRANCH  20  21
ATOM     21  N   UNL     1       0.170   0.570  -5.294  0.00  0.00    -0.358 N 
ATOM     22  H   UNL     1       0.897   0.107  -4.849  0.00  0.00    +0.142 HD
ATOM     23  H   UNL     1       0.331   1.426  -5.722  0.00  0.00    +0.142 HD
ENDBRANCH  20  21
ENDBRANCH  13  15
ENDBRANCH   1  13
TORSDOF 5
