REMARK  Name = ZINC20130079
REMARK  13 active torsions:
REMARK  status: ('A' for Active; 'I' for Inactive)
REMARK    1  A    between atoms: C_1  and  C_2
REMARK    2  A    between atoms: C_3  and  C_25
REMARK    3  A    between atoms: C_4  and  C_16
REMARK    4  A    between atoms: C_6  and  C_14
REMARK    5  A    between atoms: C_7  and  S_9
REMARK    6  A    between atoms: S_9  and  C_10
REMARK    7  A    between atoms: C_10  and  C_11
REMARK    8  A    between atoms: C_19  and  O_24
REMARK    9  A    between atoms: C_20  and  O_22
REMARK   10  A    between atoms: O_22  and  C_23
REMARK   11  A    between atoms: C_25  and  O_27
REMARK   12  A    between atoms: O_27  and  C_28
REMARK   13  A    between atoms: C_28  and  C_29
REMARK                            x       y       z     vdW  Elec       q    Type
REMARK                         _______ _______ _______ _____ _____    ______ ____
ROOT
ATOM      1  C   UNL     1      -0.018   1.503   0.010  0.00  0.00    +0.061 C 
ATOM      2  C   UNL     1       0.002  -0.004   0.002  0.00  0.00    +0.016 C 
ATOM      3  C   UNL     1      -1.159  -0.681   0.004  0.00  0.00    +0.066 C 
ATOM      4  C   UNL     1      -1.197  -2.183  -0.014  0.00  0.00    +0.100 C 
ATOM      5  C   UNL     1       0.141  -2.756   0.360  0.00  0.00    +0.069 C 
ATOM      6  C   UNL     1       1.265  -1.991   0.346  0.00  0.00    +0.080 C 
ATOM      7  N   UNL     1       1.201  -0.661  -0.013  0.00  0.00    -0.312 N 
ATOM      8  H   UNL     1       2.008  -0.189  -0.273  0.00  0.00    +0.152 HD
ENDROOT
BRANCH   4   9
ATOM      9  C   UNL     1      -1.567  -2.653  -1.397  0.00  0.00    -0.031 A 
ATOM     10  C   UNL     1      -0.764  -2.326  -2.474  0.00  0.00    +0.008 A 
ATOM     11  C   UNL     1      -1.100  -2.755  -3.745  0.00  0.00    +0.049 A 
ATOM     12  C   UNL     1      -2.242  -3.514  -3.941  0.00  0.00    +0.158 A 
ATOM     13  C   UNL     1      -3.050  -3.843  -2.857  0.00  0.00    +0.162 A 
ATOM     14  C   UNL     1      -2.705  -3.414  -1.585  0.00  0.00    +0.054 A 
BRANCH  13  15
ATOM     15  O   UNL     1      -4.172  -4.588  -3.044  0.00  0.00    -0.491 OA
ATOM     16  C   UNL     1      -4.952  -4.888  -1.885  0.00  0.00    +0.277 C 
ENDBRANCH  13  15
BRANCH  12  17
ATOM     17  O   UNL     1      -2.574  -3.936  -5.191  0.00  0.00    -0.503 OA
ATOM     18  H   UNL     1      -2.200  -4.796  -5.427  0.00  0.00    +0.292 HD
ENDBRANCH  12  17
ENDBRANCH   4   9
BRANCH   5  19
ATOM     19  C   UNL     1       0.234  -4.133   0.739  0.00  0.00    +0.098 C 
ATOM     20  N   UNL     1       0.307  -5.226   1.040  0.00  0.00    -0.191 NA
ENDBRANCH   5  19
BRANCH   3  21
ATOM     21  C   UNL     1      -2.375   0.038   0.023  0.00  0.00    +0.338 C 
ATOM     22  O   UNL     1      -2.362   1.255   0.037  0.00  0.00    -0.245 OA
BRANCH  21  23
ATOM     23  O   UNL     1      -3.551  -0.625   0.025  0.00  0.00    -0.457 OA
BRANCH  23  24
ATOM     24  C   UNL     1      -4.741   0.166   0.044  0.00  0.00    +0.259 C 
BRANCH  24  25
ATOM     25  C   UNL     1      -5.946  -0.740   0.044  0.00  0.00    +0.006 C 
ATOM     26  C   UNL     1      -6.944  -0.502   0.858  0.00  0.00    +0.007 C 
ENDBRANCH  24  25
ENDBRANCH  23  24
ENDBRANCH  21  23
ENDBRANCH   3  21
BRANCH   6  27
ATOM     27  S   UNL     1       2.815  -2.706   0.783  0.00  0.00    -0.100 S 
BRANCH  27  28
ATOM     28  C   UNL     1       3.992  -1.335   0.621  0.00  0.00    +0.171 C 
BRANCH  28  29
ATOM     29  C   UNL     1       5.376  -1.818   0.971  0.00  0.00    +0.221 C 
ATOM     30  O   UNL     1       5.551  -2.973   1.297  0.00  0.00    -0.275 OA
ATOM     31  N   UNL     1       6.419  -0.966   0.921  0.00  0.00    -0.329 N 
ATOM     32  H   UNL     1       6.279  -0.042   0.661  0.00  0.00    +0.145 HD
ATOM     33  H   UNL     1       7.310  -1.276   1.146  0.00  0.00    +0.145 HD
ENDBRANCH  28  29
ENDBRANCH  27  28
ENDBRANCH   6  27
TORSDOF 11
