REMARK  Name = ZINC52907322
REMARK  9 active torsions:
REMARK  status: ('A' for Active; 'I' for Inactive)
REMARK    1  A    between atoms: C_1  and  C_2
REMARK    2  A    between atoms: C_5  and  C_8
REMARK    3  A    between atoms: C_8  and  C_10
REMARK    4  A    between atoms: C_8  and  N_11
REMARK    5  A    between atoms: N_11  and  C_12
REMARK    6  A    between atoms: N_11  and  C_13
REMARK    7  A    between atoms: C_13  and  C_14
REMARK    8  A    between atoms: N_16  and  C_17
REMARK    9  A    between atoms: C_18  and  C_22
REMARK                            x       y       z     vdW  Elec       q    Type
REMARK                         _______ _______ _______ _____ _____    ______ ____
ROOT
ATOM      1  C   UNL     1       3.217  -4.644   1.931  0.00  0.00    +0.201 C 
ATOM      2  O   UNL     1       2.771  -5.285   2.859  0.00  0.00    -0.278 OA
ATOM      3  N   UNL     1       4.515  -4.284   1.922  0.00  0.00    -0.281 N 
ATOM      4  H   UNL     1       4.872  -3.771   1.180  0.00  0.00    +0.155 HD
ENDROOT
BRANCH   3   5
ATOM      5  C   UNL     1       5.342  -4.646   2.975  0.00  0.00    +0.084 A 
ATOM      6  C   UNL     1       6.690  -4.361   3.138  0.00  0.00    +0.065 A 
ATOM      7  C   UNL     1       7.316  -4.863   4.339  0.00  0.00    +0.022 A 
ATOM      8  C   UNL     1       6.517  -5.555   5.172  0.00  0.00    +0.048 A 
ATOM      9  S   UNL     1       4.940  -5.522   4.348  0.00  0.00    -0.081 S 
BRANCH   6  10
ATOM     10  C   UNL     1       7.441  -3.590   2.141  0.00  0.00    +0.244 C 
ATOM     11  O   UNL     1       6.882  -3.183   1.140  0.00  0.00    -0.270 OA
ATOM     12  N   UNL     1       8.749  -3.334   2.334  0.00  0.00    -0.325 N 
ATOM     13  H   UNL     1       9.195  -3.658   3.133  0.00  0.00    +0.145 HD
ATOM     14  H   UNL     1       9.246  -2.824   1.675  0.00  0.00    +0.145 HD
ENDBRANCH   6  10
ENDBRANCH   3   5
BRANCH   1  15
ATOM     15  C   UNL     1       2.318  -4.251   0.787  0.00  0.00    +0.019 C 
BRANCH  15  16
ATOM     16  N   UNL     1       0.962  -4.759   1.032  0.00  0.00    +0.388 N 
ATOM     17  C   UNL     1       0.981  -6.228   1.024  0.00  0.00    -0.095 C 
ATOM     18  H   UNL     1       0.637  -4.432   1.929  0.00  0.00    -0.081 HD
BRANCH  16  19
ATOM     19  C   UNL     1       0.059  -4.275  -0.021  0.00  0.00    -0.041 C 
ATOM     20  C   UNL     1      -1.353  -4.805   0.234  0.00  0.00    -0.008 C 
BRANCH  19  25
ATOM     21  C   UNL     1      -0.018   1.503   0.010  0.00  0.00    +0.044 C 
ATOM     22  C   UNL     1       0.002  -0.004   0.002  0.00  0.00    -0.050 A 
ATOM     23  C   UNL     1       0.006  -0.689  -1.199  0.00  0.00    +0.003 A 
ATOM     24  C   UNL     1       0.025  -2.071  -1.206  0.00  0.00    +0.002 A 
ATOM     25  C   UNL     1       0.040  -2.768  -0.013  0.00  0.00    -0.061 A 
ATOM     26  C   UNL     1       0.037  -2.084   1.188  0.00  0.00    +0.002 A 
ATOM     27  C   UNL     1       0.023  -0.702   1.195  0.00  0.00    +0.003 A 
ENDBRANCH  19  25
ENDBRANCH  16  19
ENDBRANCH  15  16
ENDBRANCH   1  15
TORSDOF 6
