REMARK  Name = ZINC59262379
REMARK  6 active torsions:
REMARK  status: ('A' for Active; 'I' for Inactive)
REMARK    1  A    between atoms: C_1  and  C_2
REMARK    2  A    between atoms: C_5  and  S_13
REMARK    3  A    between atoms: N_6  and  C_7
REMARK    4  A    between atoms: S_13  and  C_14
REMARK    5  A    between atoms: C_14  and  C_15
REMARK    6  A    between atoms: C_20  and  N_24
REMARK                            x       y       z     vdW  Elec       q    Type
REMARK                         _______ _______ _______ _____ _____    ______ ____
ROOT
ATOM      1  C   UNL     1       0.072  -4.900   0.306  0.00  0.00    +0.151 C 
ENDROOT
BRANCH   1   2
ATOM      2  C   UNL     1       0.094  -6.243   0.991  0.00  0.00    +0.118 A 
ATOM      3  N   UNL     1       1.171  -6.889   1.330  0.00  0.00    -0.232 NA
ATOM      4  C   UNL     1       0.831  -8.062   1.924  0.00  0.00    +0.089 A 
ATOM      5  C   UNL     1       1.570  -9.116   2.468  0.00  0.00    +0.032 A 
ATOM      6  C   UNL     1       0.924 -10.191   3.009  0.00  0.00    +0.035 A 
ATOM      7  C   UNL     1      -0.462 -10.250   3.026  0.00  0.00    +0.128 A 
ATOM      8  C   UNL     1      -1.211  -9.222   2.495  0.00  0.00    +0.060 A 
ATOM      9  C   UNL     1      -0.573  -8.121   1.941  0.00  0.00    +0.068 A 
ATOM     10  N   UNL     1      -1.010  -6.953   1.349  0.00  0.00    -0.341 N 
ATOM     11  H   UNL     1      -1.933  -6.689   1.212  0.00  0.00    +0.167 HD
BRANCH   7  12
ATOM     12  N   UNL     1      -1.141 -11.425   3.618  0.00  0.00    +0.056 N 
ATOM     13  O   UNL     1      -0.488 -12.329   4.084  0.00  0.00    -0.126 OA
ATOM     14  O   UNL     1      -2.349 -11.480   3.635  0.00  0.00    -0.126 OA
ENDBRANCH   7  12
ENDBRANCH   1   2
BRANCH   1  15
ATOM     15  S   UNL     1       0.059  -3.585   1.556  0.00  0.00    -0.078 S 
BRANCH  15  20
ATOM     16  C   UNL     1      -0.018   1.503   0.010  0.00  0.00    +0.088 C 
ATOM     17  C   UNL     1       0.002  -0.004   0.002  0.00  0.00    +0.135 A 
ATOM     18  N   UNL     1       0.008  -0.771  -1.052  0.00  0.00    -0.133 NA
ATOM     19  N   UNL     1       0.027  -2.007  -0.700  0.00  0.00    -0.122 NA
ATOM     20  C   UNL     1       0.034  -2.099   0.610  0.00  0.00    +0.197 A 
ATOM     21  N   UNL     1       0.024  -0.822   1.101  0.00  0.00    -0.274 N 
BRANCH  21  22
ATOM     22  C   UNL     1       0.031  -0.432   2.448  0.00  0.00    +0.050 A 
ATOM     23  C   UNL     1       1.112   0.270   2.963  0.00  0.00    +0.026 A 
ATOM     24  C   UNL     1       1.116   0.653   4.290  0.00  0.00    +0.002 A 
ATOM     25  C   UNL     1       0.045   0.338   5.105  0.00  0.00    +0.000 A 
ATOM     26  C   UNL     1      -1.034  -0.361   4.595  0.00  0.00    +0.002 A 
ATOM     27  C   UNL     1      -1.046  -0.741   3.267  0.00  0.00    +0.026 A 
ENDBRANCH  21  22
ENDBRANCH  15  20
ENDBRANCH   1  15
TORSDOF 5
