REMARK  Name = ZINC37937548
REMARK  7 active torsions:
REMARK  status: ('A' for Active; 'I' for Inactive)
REMARK    1  A    between atoms: C_1  and  O_2
REMARK    2  A    between atoms: O_2  and  C_3
REMARK    3  A    between atoms: C_5  and  C_10
REMARK    4  A    between atoms: C_8  and  O_9
REMARK    5  A    between atoms: C_10  and  C_12
REMARK    6  A    between atoms: C_10  and  N_14
REMARK    7  A    between atoms: N_14  and  C_15
REMARK                            x       y       z     vdW  Elec       q    Type
REMARK                         _______ _______ _______ _____ _____    ______ ____
ROOT
ATOM      1  C   UNL     1       2.462   0.334   4.204  0.00  0.00    +0.205 C 
ENDROOT
BRANCH   1   4
ATOM      2  C   UNL     1       0.626  -0.619   1.042  0.00  0.00    +0.162 A 
ATOM      3  C   UNL     1       1.202   0.137   2.051  0.00  0.00    +0.056 A 
ATOM      4  C   UNL     1       1.836  -0.490   3.108  0.00  0.00    -0.010 A 
ATOM      5  C   UNL     1       1.897  -1.870   3.161  0.00  0.00    +0.010 A 
ATOM      6  C   UNL     1       1.325  -2.630   2.158  0.00  0.00    +0.049 A 
ATOM      7  C   UNL     1       0.683  -2.008   1.099  0.00  0.00    +0.158 A 
BRANCH   2   9
ATOM      8  C   UNL     1      -0.017   1.425   0.010  0.00  0.00    +0.277 C 
ATOM      9  O   UNL     1       0.002  -0.004   0.002  0.00  0.00    -0.491 OA
ENDBRANCH   2   9
BRANCH   7  10
ATOM     10  O   UNL     1       0.115  -2.754   0.114  0.00  0.00    -0.503 OA
ATOM     11  H   UNL     1       0.711  -2.957  -0.620  0.00  0.00    +0.292 HD
ENDBRANCH   7  10
ENDBRANCH   1   4
BRANCH   1  12
ATOM     12  C   UNL     1       1.557   0.375   5.364  0.00  0.00    +0.090 C 
ATOM     13  N   UNL     1       0.858   0.406   6.260  0.00  0.00    -0.194 NA
ENDBRANCH   1  12
BRANCH   1  14
ATOM     14  N   UNL     1       3.737  -0.269   4.600  0.00  0.00    -0.325 N 
ATOM     15  H   UNL     1       3.889  -1.217   4.460  0.00  0.00    +0.148 HD
BRANCH  14  16
ATOM     16  C   UNL     1       4.732   0.520   5.180  0.00  0.00    +0.029 A 
ATOM     17  C   UNL     1       4.513   1.877   5.386  0.00  0.00    +0.023 A 
ATOM     18  C   UNL     1       5.499   2.655   5.959  0.00  0.00    +0.003 A 
ATOM     19  C   UNL     1       6.705   2.087   6.327  0.00  0.00    +0.015 A 
ATOM     20  C   UNL     1       6.927   0.736   6.123  0.00  0.00    +0.020 A 
ATOM     21  C   UNL     1       5.941  -0.050   5.556  0.00  0.00    +0.038 A 
ATOM     22 BR   UNL     1       8.577  -0.036   6.628  0.00  0.00    -0.050 Br
ENDBRANCH  14  16
ENDBRANCH   1  14
TORSDOF 6
