REMARK  Name = ZINC32578852
REMARK  6 active torsions:
REMARK  status: ('A' for Active; 'I' for Inactive)
REMARK    1  A    between atoms: C_1  and  C_2
REMARK    2  A    between atoms: C_2  and  C_3
REMARK    3  A    between atoms: C_3  and  C_5
REMARK    4  A    between atoms: C_3  and  N_11
REMARK    5  A    between atoms: N_11  and  S_12
REMARK    6  A    between atoms: S_12  and  C_15
REMARK                            x       y       z     vdW  Elec       q    Type
REMARK                         _______ _______ _______ _____ _____    ______ ____
ROOT
ATOM      1  S   UNL     1       2.347   7.526   1.618  0.00  0.00    +0.061 S 
ATOM      2  O   UNL     1       3.601   7.452   2.282  0.00  0.00    -0.153 OA
ATOM      3  O   UNL     1       2.019   8.581   0.725  0.00  0.00    -0.153 OA
ENDROOT
BRANCH   1   4
ATOM      4  C   UNL     1       1.111   7.527   2.874  0.00  0.00    +0.136 A 
ATOM      5  C   UNL     1       1.466   7.487   4.182  0.00  0.00    +0.031 A 
ATOM      6  C   UNL     1       0.513   7.486   5.208  0.00  0.00    +0.004 A 
ATOM      7  C   UNL     1      -0.818   7.526   4.952  0.00  0.00    +0.033 A 
ATOM      8  C   UNL     1      -1.263   7.569   3.616  0.00  0.00    +0.136 A 
ATOM      9  C   UNL     1      -0.253   7.575   2.529  0.00  0.00    +0.160 A 
ATOM     10  N   UNL     1      -0.992   7.614   1.447  0.00  0.00    -0.047 NA
ATOM     11  O   UNL     1      -2.163   7.636   1.767  0.00  0.00    -0.242 OA
ATOM     12  N   UNL     1      -2.396   7.613   2.959  0.00  0.00    -0.049 NA
ENDBRANCH   1   4
BRANCH   1  13
ATOM     13  N   UNL     1       2.178   6.116   0.766  0.00  0.00    -0.182 NA
ATOM     14  H   UNL     1       2.885   5.292   0.944  0.00  0.00    +0.149 HD
BRANCH  13  15
ATOM     15  C   UNL     1       0.980   5.889  -0.046  0.00  0.00    +0.113 C 
BRANCH  15  16
ATOM     16  C   UNL     1       0.590   4.436   0.028  0.00  0.00    +0.010 A 
ATOM     17  C   UNL     1      -0.646   3.888   0.119  0.00  0.00    +0.014 A 
ATOM     18  C   UNL     1      -0.767   2.511   0.168  0.00  0.00    +0.028 A 
ATOM     19  C   UNL     1       0.356   1.751   0.136  0.00  0.00    +0.078 A 
ATOM     20  S   UNL     1       1.637   2.989   0.018  0.00  0.00    -0.080 S 
ATOM     21 CL   UNL     1       0.508   0.022   0.188  0.00  0.00    -0.076 Cl
ENDBRANCH  15  16
BRANCH  15  23
ATOM     22  C   UNL     1      -0.014   6.158  -2.323  0.00  0.00    +0.006 C 
ATOM     23  C   UNL     1       1.272   6.266  -1.500  0.00  0.00    +0.022 C 
ENDBRANCH  15  23
ENDBRANCH  13  15
ENDBRANCH   1  13
TORSDOF 5
