REMARK  Name = ZINC06268455
REMARK  6 active torsions:
REMARK  status: ('A' for Active; 'I' for Inactive)
REMARK    1  A    between atoms: C_1  and  C_2
REMARK    2  A    between atoms: C_7  and  N_8
REMARK    3  A    between atoms: N_8  and  C_9
REMARK    4  A    between atoms: C_21  and  N_23
REMARK    5  A    between atoms: N_23  and  S_24
REMARK    6  A    between atoms: S_24  and  C_27
REMARK                            x       y       z     vdW  Elec       q    Type
REMARK                         _______ _______ _______ _____ _____    ______ ____
ROOT
ATOM      1  C   UNL     1      -0.812   5.679  -3.872  0.00  0.00    +0.124 C 
ATOM      2  C   UNL     1      -1.580   6.842  -4.452  0.00  0.00    -0.017 A 
ATOM      3  C   UNL     1      -1.665   7.412  -5.686  0.00  0.00    +0.006 A 
ATOM      4  C   UNL     1      -2.496   8.514  -5.898  0.00  0.00    +0.001 A 
ATOM      5  C   UNL     1      -3.248   9.064  -4.901  0.00  0.00    +0.008 A 
ATOM      6  C   UNL     1      -3.184   8.502  -3.616  0.00  0.00    -0.017 A 
ATOM      7  C   UNL     1      -2.341   7.392  -3.426  0.00  0.00    -0.008 A 
ATOM      8  C   UNL     1      -2.201   6.755  -2.195  0.00  0.00    -0.019 A 
ATOM      9  C   UNL     1      -2.914   7.239  -1.143  0.00  0.00    +0.006 A 
ATOM     10  C   UNL     1      -3.758   8.340  -1.307  0.00  0.00    +0.001 A 
ATOM     11  C   UNL     1      -3.906   8.973  -2.507  0.00  0.00    +0.008 A 
ATOM     12  C   UNL     1      -1.221   5.623  -2.384  0.00  0.00    +0.131 C 
ENDROOT
BRANCH   1  13
ATOM     13  N   UNL     1       0.629   5.911  -3.994  0.00  0.00    -0.335 N 
ATOM     14  H   UNL     1       1.107   6.377  -3.290  0.00  0.00    +0.147 HD
BRANCH  13  21
ATOM     15  C   UNL     1       3.425   6.414  -4.155  0.00  0.00    +0.045 C 
ATOM     16  C   UNL     1       2.681   5.685  -5.244  0.00  0.00    -0.030 A 
ATOM     17  C   UNL     1       3.358   5.234  -6.361  0.00  0.00    +0.005 A 
ATOM     18  C   UNL     1       2.675   4.570  -7.364  0.00  0.00    +0.000 A 
ATOM     19  C   UNL     1       1.314   4.350  -7.250  0.00  0.00    +0.002 A 
ATOM     20  C   UNL     1       0.633   4.793  -6.134  0.00  0.00    +0.023 A 
ATOM     21  C   UNL     1       1.315   5.461  -5.125  0.00  0.00    +0.031 A 
ENDBRANCH  13  21
ENDBRANCH   1  13
BRANCH  12  22
ATOM     22  N   UNL     1      -0.049   5.817  -1.528  0.00  0.00    -0.180 NA
ATOM     23  H   UNL     1       0.433   6.659  -1.548  0.00  0.00    +0.149 HD
BRANCH  22  24
ATOM     24  S   UNL     1       0.455   4.599  -0.524  0.00  0.00    +0.059 S 
ATOM     25  O   UNL     1      -0.696   4.147   0.175  0.00  0.00    -0.153 OA
ATOM     26  O   UNL     1       1.614   5.078   0.145  0.00  0.00    -0.153 OA
BRANCH  24  27
ATOM     27  C   UNL     1       0.980   3.265  -1.548  0.00  0.00    +0.105 A 
ATOM     28  C   UNL     1       2.296   3.188  -1.964  0.00  0.00    +0.028 A 
ATOM     29  C   UNL     1       2.707   2.141  -2.767  0.00  0.00    +0.002 A 
ATOM     30  C   UNL     1       1.803   1.170  -3.154  0.00  0.00    +0.000 A 
ATOM     31  C   UNL     1       0.485   1.249  -2.743  0.00  0.00    +0.002 A 
ATOM     32  C   UNL     1       0.075   2.294  -1.935  0.00  0.00    +0.028 A 
ENDBRANCH  24  27
ENDBRANCH  22  24
ENDBRANCH  12  22
TORSDOF 5
