REMARK  Name = ZINC39691837
REMARK  6 active torsions:
REMARK  status: ('A' for Active; 'I' for Inactive)
REMARK    1  A    between atoms: C_1  and  N_2
REMARK    2  A    between atoms: C_3  and  C_26
REMARK    3  A    between atoms: C_7  and  S_9
REMARK    4  A    between atoms: S_9  and  C_10
REMARK    5  A    between atoms: C_10  and  C_11
REMARK    6  A    between atoms: C_19  and  C_23
REMARK                            x       y       z     vdW  Elec       q    Type
REMARK                         _______ _______ _______ _____ _____    ______ ____
ROOT
ATOM      1  S   UNL     1      -0.215  -0.937   2.513  0.00  0.00    -0.152 S 
ENDROOT
BRANCH   1   7
ATOM      2  C   UNL     1       0.015   1.495  -0.021  0.00  0.00    -0.090 C 
ATOM      3  N   UNL     1       0.009   0.026  -0.007  0.00  0.00    +0.409 N 
ATOM      4  C   UNL     1       0.672  -0.509  -1.226  0.00  0.00    +0.049 C 
ATOM      5  N   UNL     1       1.114  -1.861  -0.794  0.00  0.00    -0.267 NA
ATOM      6  N   UNL     1       1.540  -1.681   0.596  0.00  0.00    -0.262 NA
ATOM      7  C   UNL     1       0.840  -0.486   1.108  0.00  0.00    +0.077 C 
ATOM      8  H   UNL     1       0.358  -2.526  -0.858  0.00  0.00    +0.139 HD
ATOM      9  H   UNL     1       1.319  -2.495   1.150  0.00  0.00    +0.140 HD
ATOM     10  H   UNL     1      -0.934  -0.323   0.067  0.00  0.00    -0.076 HD
BRANCH   4  11
ATOM     11  C   UNL     1      -0.306  -0.603  -2.368  0.00  0.00    -0.046 A 
ATOM     12  C   UNL     1      -0.036   0.037  -3.563  0.00  0.00    +0.006 A 
ATOM     13  C   UNL     1      -0.932  -0.048  -4.612  0.00  0.00    +0.038 A 
ATOM     14  C   UNL     1      -2.102  -0.775  -4.464  0.00  0.00    +0.123 A 
ATOM     15  C   UNL     1      -2.372  -1.415  -3.267  0.00  0.00    +0.038 A 
ATOM     16  C   UNL     1      -1.471  -1.333  -2.221  0.00  0.00    +0.006 A 
ATOM     17  F   UNL     1      -2.979  -0.859  -5.488  0.00  0.00    -0.205 F 
ENDBRANCH   4  11
ENDBRANCH   1   7
BRANCH   1  18
ATOM     18  C   UNL     1      -1.312  -2.217   1.845  0.00  0.00    +0.143 C 
BRANCH  18  19
ATOM     19  C   UNL     1      -2.253  -2.686   2.925  0.00  0.00    +0.120 A 
ATOM     20  N   UNL     1      -3.156  -3.654   2.618  0.00  0.00    -0.310 N 
ATOM     21  H   UNL     1      -3.179  -4.022   1.720  0.00  0.00    +0.170 HD
ATOM     22  C   UNL     1      -4.022  -4.109   3.552  0.00  0.00    +0.259 A 
ATOM     23  O   UNL     1      -4.835  -4.976   3.290  0.00  0.00    -0.267 OA
ATOM     24  C   UNL     1      -3.943  -3.515   4.897  0.00  0.00    +0.065 A 
ATOM     25  C   UNL     1      -4.791  -3.917   5.928  0.00  0.00    +0.016 A 
ATOM     26  C   UNL     1      -4.683  -3.340   7.162  0.00  0.00    +0.016 A 
ATOM     27  C   UNL     1      -3.725  -2.345   7.402  0.00  0.00    +0.065 A 
ATOM     28  C   UNL     1      -2.870  -1.931   6.386  0.00  0.00    +0.043 A 
ATOM     29  C   UNL     1      -2.972  -2.515   5.122  0.00  0.00    +0.079 A 
ATOM     30  N   UNL     1      -2.156  -2.147   4.102  0.00  0.00    -0.233 NA
BRANCH  27  31
ATOM     31  C   UNL     1      -3.623  -1.733   8.743  0.00  0.00    +0.387 C 
ATOM     32  O   UNL     1      -4.373  -2.094   9.638  0.00  0.00    -0.241 OA
ATOM     33  O   UNL     1      -2.789  -0.865   8.957  0.00  0.00    -0.241 OA
ENDBRANCH  27  31
ENDBRANCH  18  19
ENDBRANCH   1  18
TORSDOF 5
