REMARK  Name = ZINC03531962
REMARK  4 active torsions:
REMARK  status: ('A' for Active; 'I' for Inactive)
REMARK    1  A    between atoms: C_1  and  C_2
REMARK    2  A    between atoms: N_11  and  C_15
REMARK    3  A    between atoms: C_15  and  C_16
REMARK    4  A    between atoms: C_16  and  C_18
REMARK                            x       y       z     vdW  Elec       q    Type
REMARK                         _______ _______ _______ _____ _____    ______ ____
ROOT
ATOM      1  C   UNL     1      -0.019   1.526   0.010  0.00  0.00    +0.010 C 
ATOM      2  C   UNL     1       0.002  -0.004   0.002  0.00  0.00    +0.018 C 
ATOM      3  C   UNL     1      -1.434  -0.534   0.012  0.00  0.00    +0.006 C 
ATOM      4  C   UNL     1      -1.412  -2.064   0.024  0.00  0.00    +0.000 C 
ATOM      5  C   UNL     1      -0.687  -2.556   1.279  0.00  0.00    +0.003 C 
ATOM      6  C   UNL     1       0.752  -2.033   1.273  0.00  0.00    +0.035 C 
ATOM      7  C   UNL     1       0.740  -0.509   1.237  0.00  0.00    +0.115 C 
ATOM      8  C   UNL     1       2.151   0.030   1.266  0.00  0.00    +0.247 C 
ATOM      9  O   UNL     1       3.026  -0.158   0.448  0.00  0.00    -0.273 OA
ATOM     10  N   UNL     1       2.233   0.767   2.394  0.00  0.00    -0.217 N 
ATOM     11  C   UNL     1       1.077   0.763   3.069  0.00  0.00    +0.310 C 
ATOM     12  O   UNL     1       0.904   1.356   4.116  0.00  0.00    -0.252 OA
ATOM     13  N   UNL     1       0.127   0.030   2.458  0.00  0.00    -0.285 N 
ATOM     14  H   UNL     1      -0.782  -0.114   2.764  0.00  0.00    +0.151 HD
ENDROOT
BRANCH  10  15
ATOM     15  C   UNL     1       3.436   1.482   2.825  0.00  0.00    +0.198 C 
BRANCH  15  16
ATOM     16  C   UNL     1       3.425   2.876   2.253  0.00  0.00    +0.187 C 
ATOM     17  O   UNL     1       2.501   3.237   1.553  0.00  0.00    -0.290 OA
BRANCH  16  18
ATOM     18  C   UNL     1       4.488   3.761   2.531  0.00  0.00    +0.058 A 
ATOM     19  C   UNL     1       4.667   5.077   2.112  0.00  0.00    +0.020 A 
ATOM     20  C   UNL     1       5.813   5.689   2.549  0.00  0.00    +0.028 A 
ATOM     21  C   UNL     1       6.675   4.993   3.339  0.00  0.00    +0.079 A 
ATOM     22  S   UNL     1       5.948   3.489   3.518  0.00  0.00    -0.074 S 
ATOM     23 CL   UNL     1       8.178   5.538   4.015  0.00  0.00    -0.076 Cl
ENDBRANCH  16  18
ENDBRANCH  15  16
ENDBRANCH  10  15
TORSDOF 3
