REMARK  Name = ZINC64717949
REMARK  3 active torsions:
REMARK  status: ('A' for Active; 'I' for Inactive)
REMARK    1  A    between atoms: C_3  and  C_9
REMARK    2  A    between atoms: C_9  and  N_10
REMARK    3  A    between atoms: N_10  and  C_11
REMARK                            x       y       z     vdW  Elec       q    Type
REMARK                         _______ _______ _______ _____ _____    ______ ____
ROOT
ATOM      1  C   UNL     1      -0.017   1.378   0.010  0.00  0.00    +0.002 A 
ATOM      2  C   UNL     1       1.171   2.086   0.002  0.00  0.00    +0.006 A 
ATOM      3  C   UNL     1       2.378   1.413  -0.013  0.00  0.00    -0.014 A 
ATOM      4  C   UNL     1       2.398   0.030  -0.021  0.00  0.00    +0.064 A 
ATOM      5  C   UNL     1       1.209  -0.679  -0.013  0.00  0.00    +0.060 A 
ATOM      6  C   UNL     1       0.002  -0.004   0.002  0.00  0.00    +0.021 A 
ATOM      7 CL   UNL     1       1.234  -2.415  -0.023  0.00  0.00    -0.082 Cl
ATOM      8 CL   UNL     1       3.914  -0.816  -0.041  0.00  0.00    -0.082 Cl
ENDROOT
BRANCH   3   9
ATOM      9  C   UNL     1       3.671   2.186  -0.023  0.00  0.00    +0.121 C 
BRANCH   9  10
ATOM     10  N   UNL     1       4.289   2.123   1.309  0.00  0.00    -0.270 NA
ATOM     11  H   UNL     1       3.655   2.460   2.018  0.00  0.00    +0.126 HD
BRANCH  10  12
ATOM     12  C   UNL     1       5.555   2.867   1.337  0.00  0.00    +0.339 C 
ATOM     13  N   UNL     1       6.644   2.057   0.766  0.00  0.00    -0.121 NA
ATOM     14  N   UNL     1       7.473   1.904   1.674  0.00  0.00    -0.025 NA
ATOM     15  N   UNL     1       7.076   2.533   2.852  0.00  0.00    -0.025 NA
ATOM     16  N   UNL     1       5.984   3.104   2.726  0.00  0.00    -0.121 NA
ENDBRANCH  10  12
ENDBRANCH   9  10
ENDBRANCH   3   9
TORSDOF 3
