REMARK  Name = ZINC39559553
REMARK  9 active torsions:
REMARK  status: ('A' for Active; 'I' for Inactive)
REMARK    1  A    between atoms: C_3  and  N_30
REMARK    2  A    between atoms: C_6  and  N_7
REMARK    3  A    between atoms: N_7  and  C_8
REMARK    4  A    between atoms: C_8  and  C_9
REMARK    5  A    between atoms: C_9  and  C_10
REMARK    6  A    between atoms: C_10  and  C_11
REMARK    7  A    between atoms: N_13  and  C_14
REMARK    8  A    between atoms: C_14  and  C_15
REMARK    9  A    between atoms: N_17  and  C_18
REMARK                            x       y       z     vdW  Elec       q    Type
REMARK                         _______ _______ _______ _____ _____    ______ ____
ROOT
ATOM      1  C   UNL     1      -4.001  -4.770   0.025  0.00  0.00    +0.213 C 
ATOM      2  O   UNL     1      -4.934  -3.996   0.048  0.00  0.00    -0.276 OA
ATOM      3  N   UNL     1      -4.227  -6.098   0.014  0.00  0.00    -0.307 N 
ATOM      4  H   UNL     1      -3.481  -6.717  -0.005  0.00  0.00    +0.149 HD
ENDROOT
BRANCH   1   5
ATOM      5  C   UNL     1      -2.588  -4.246   0.009  0.00  0.00    +0.097 C 
BRANCH   5   6
ATOM      6  C   UNL     1      -2.611  -2.716   0.027  0.00  0.00    +0.028 C 
BRANCH   6   7
ATOM      7  C   UNL     1      -1.176  -2.184   0.011  0.00  0.00    +0.102 C 
BRANCH   7   8
ATOM      8  N   UNL     1      -1.198  -0.720   0.028  0.00  0.00    -0.344 N 
ATOM      9  H   UNL     1      -2.045  -0.248   0.046  0.00  0.00    +0.146 HD
BRANCH   8  15
ATOM     10  C   UNL     1      -0.018   1.386   0.033  0.00  0.00    +0.025 A 
ATOM     11  C   UNL     1       1.169   2.091   0.023  0.00  0.00    +0.034 A 
ATOM     12  C   UNL     1       2.376   1.416  -0.003  0.00  0.00    +0.126 A 
ATOM     13  C   UNL     1       2.399   0.034  -0.019  0.00  0.00    +0.034 A 
ATOM     14  C   UNL     1       1.215  -0.678  -0.009  0.00  0.00    +0.025 A 
ATOM     15  C   UNL     1       0.001  -0.003   0.017  0.00  0.00    +0.027 A 
BRANCH  12  16
ATOM     16  N   UNL     1       3.647   2.175  -0.013  0.00  0.00    +0.056 N 
ATOM     17  O   UNL     1       3.629   3.384   0.000  0.00  0.00    -0.126 OA
ATOM     18  O   UNL     1       4.702   1.587  -0.036  0.00  0.00    -0.126 OA
ENDBRANCH  12  16
ENDBRANCH   8  15
ENDBRANCH   7   8
ENDBRANCH   6   7
ENDBRANCH   5   6
ENDBRANCH   1   5
BRANCH   3  19
ATOM     19  C   UNL     1      -5.601  -6.607   0.029  0.00  0.00    +0.200 C 
BRANCH  19  20
ATOM     20  C   UNL     1      -5.578  -8.114   0.012  0.00  0.00    +0.234 C 
ATOM     21  O   UNL     1      -4.519  -8.704  -0.011  0.00  0.00    -0.274 OA
ATOM     22  N   UNL     1      -6.735  -8.805   0.022  0.00  0.00    -0.284 N 
ATOM     23  H   UNL     1      -7.580  -8.336   0.107  0.00  0.00    +0.155 HD
BRANCH  22  24
ATOM     24  C   UNL     1      -6.718 -10.201  -0.092  0.00  0.00    +0.036 A 
ATOM     25  C   UNL     1      -7.729 -10.854  -0.788  0.00  0.00    +0.025 A 
ATOM     26  C   UNL     1      -7.718 -12.229  -0.903  0.00  0.00    +0.029 A 
ATOM     27  C   UNL     1      -6.695 -12.964  -0.323  0.00  0.00    +0.067 A 
ATOM     28  C   UNL     1      -5.677 -12.312   0.377  0.00  0.00    +0.069 A 
ATOM     29  C   UNL     1      -5.689 -10.930   0.486  0.00  0.00    +0.051 A 
ATOM     30  N   UNL     1      -4.808 -13.298   0.836  0.00  0.00    -0.306 N 
ATOM     31  H   UNL     1      -4.004 -13.148   1.357  0.00  0.00    +0.170 HD
ATOM     32  C   UNL     1      -5.274 -14.496   0.435  0.00  0.00    +0.325 A 
ATOM     33  O   UNL     1      -4.748 -15.568   0.671  0.00  0.00    -0.247 OA
ATOM     34  N   UNL     1      -6.411 -14.328  -0.267  0.00  0.00    -0.306 N 
ATOM     35  H   UNL     1      -6.942 -15.035  -0.664  0.00  0.00    +0.170 HD
ENDBRANCH  22  24
ENDBRANCH  19  20
ENDBRANCH   3  19
TORSDOF 9
