REMARK  Name = ZINC42759351
REMARK  9 active torsions:
REMARK  status: ('A' for Active; 'I' for Inactive)
REMARK    1  A    between atoms: C_1  and  C_2
REMARK    2  A    between atoms: C_7  and  N_12
REMARK    3  A    between atoms: C_9  and  C_11
REMARK    4  A    between atoms: N_12  and  C_13
REMARK    5  A    between atoms: C_13  and  N_15
REMARK    6  A    between atoms: N_15  and  N_16
REMARK    7  A    between atoms: C_17  and  C_19
REMARK    8  A    between atoms: C_19  and  N_20
REMARK    9  A    between atoms: C_21  and  C_23
REMARK                            x       y       z     vdW  Elec       q    Type
REMARK                         _______ _______ _______ _____ _____    ______ ____
ROOT
ATOM      1  N   UNL     1       2.811  -3.388   4.628  0.00  0.00    -0.234 N 
ATOM      2  C   UNL     1       3.463  -3.835   5.720  0.00  0.00    +0.246 C 
ATOM      3  O   UNL     1       3.225  -4.940   6.158  0.00  0.00    -0.273 OA
ATOM      4  H   UNL     1       3.002  -2.504   4.277  0.00  0.00    +0.173 HD
ENDROOT
BRANCH   1   5
ATOM      5  N   UNL     1       1.859  -4.201   3.999  0.00  0.00    -0.246 N 
ATOM      6  H   UNL     1       1.668  -5.085   4.350  0.00  0.00    +0.172 HD
BRANCH   5   7
ATOM      7  C   UNL     1       1.207  -3.754   2.907  0.00  0.00    +0.147 C 
ATOM      8  S   UNL     1       0.043  -4.748   2.140  0.00  0.00    -0.017 S 
BRANCH   7   9
ATOM      9  N   UNL     1       1.471  -2.526   2.420  0.00  0.00    -0.322 N 
ATOM     10  H   UNL     1       2.131  -1.963   2.855  0.00  0.00    +0.148 HD
BRANCH   9  16
ATOM     11  C   UNL     1      -0.019   1.526   0.010  0.00  0.00    +0.008 C 
ATOM     12  C   UNL     1       0.002  -0.004   0.002  0.00  0.00    -0.009 C 
ATOM     13  C   UNL     1       0.718  -0.497  -1.257  0.00  0.00    +0.003 C 
ATOM     14  C   UNL     1       0.739  -2.027  -1.265  0.00  0.00    +0.002 C 
ATOM     15  C   UNL     1       1.479  -2.534  -0.026  0.00  0.00    +0.022 C 
ATOM     16  C   UNL     1       0.763  -2.041   1.233  0.00  0.00    +0.075 C 
ATOM     17  C   UNL     1       0.742  -0.511   1.242  0.00  0.00    +0.009 C 
ATOM     18  C   UNL     1       0.026  -0.018   2.500  0.00  0.00    +0.009 C 
ENDBRANCH   9  16
ENDBRANCH   7   9
ENDBRANCH   5   7
ENDBRANCH   1   5
BRANCH   2  19
ATOM     19  C   UNL     1       4.488  -2.960   6.395  0.00  0.00    +0.202 C 
BRANCH  19  20
ATOM     20  N   UNL     1       5.049  -3.668   7.549  0.00  0.00    -0.303 N 
ATOM     21  C   UNL     1       5.991  -3.076   8.310  0.00  0.00    +0.247 C 
ATOM     22  O   UNL     1       6.375  -1.954   8.039  0.00  0.00    -0.270 OA
ATOM     23  H   UNL     1       4.743  -4.563   7.765  0.00  0.00    +0.150 HD
BRANCH  21  24
ATOM     24  C   UNL     1       6.556  -3.789   9.472  0.00  0.00    +0.072 A 
ATOM     25  C   UNL     1       6.121  -5.080   9.782  0.00  0.00    +0.019 A 
ATOM     26  C   UNL     1       6.652  -5.741  10.868  0.00  0.00    +0.039 A 
ATOM     27  C   UNL     1       7.618  -5.128  11.654  0.00  0.00    +0.126 A 
ATOM     28  C   UNL     1       8.054  -3.849  11.353  0.00  0.00    +0.077 A 
ATOM     29  C   UNL     1       7.534  -3.177  10.264  0.00  0.00    +0.138 A 
ATOM     30  F   UNL     1       7.964  -1.931   9.967  0.00  0.00    -0.205 F 
ATOM     31  F   UNL     1       8.133  -5.782  12.717  0.00  0.00    -0.205 F 
ENDBRANCH  21  24
ENDBRANCH  19  20
ENDBRANCH   2  19
TORSDOF 7
