REMARK  Name = ZINC57004054
REMARK  7 active torsions:
REMARK  status: ('A' for Active; 'I' for Inactive)
REMARK    1  A    between atoms: C_1  and  N_2
REMARK    2  A    between atoms: N_2  and  C_3
REMARK    3  A    between atoms: C_3  and  C_4
REMARK    4  A    between atoms: C_8  and  O_10
REMARK    5  A    between atoms: N_13  and  C_14
REMARK    6  A    between atoms: C_14  and  C_15
REMARK    7  A    between atoms: C_18  and  N_21
REMARK                            x       y       z     vdW  Elec       q    Type
REMARK                         _______ _______ _______ _____ _____    ______ ____
ROOT
ATOM      1  C   UNL     1      -0.018   1.461   0.010  0.00  0.00    +0.134 C 
ATOM      2  N   UNL     1       0.002  -0.004   0.002  0.00  0.00    -0.284 N 
ATOM      3  C   UNL     1       0.000  -0.672  -1.169  0.00  0.00    +0.303 C 
ATOM      4  O   UNL     1       0.017  -1.887  -1.175  0.00  0.00    -0.253 OA
ATOM      5  N   UNL     1      -0.020   0.009  -2.332  0.00  0.00    -0.295 N 
ATOM      6  H   UNL     1      -0.033   0.978  -2.327  0.00  0.00    +0.151 HD
ENDROOT
BRANCH   2   7
ATOM      7  C   UNL     1       0.024  -0.743   1.267  0.00  0.00    +0.144 C 
BRANCH   7   8
ATOM      8  C   UNL     1      -1.389  -1.016   1.714  0.00  0.00    -0.027 A 
ATOM      9  C   UNL     1      -2.047  -0.104   2.519  0.00  0.00    +0.005 A 
ATOM     10  C   UNL     1      -3.343  -0.352   2.930  0.00  0.00    +0.004 A 
ATOM     11  C   UNL     1      -3.985  -1.511   2.539  0.00  0.00    +0.045 A 
ATOM     12  C   UNL     1      -3.326  -2.427   1.732  0.00  0.00    +0.117 A 
ATOM     13  C   UNL     1      -2.028  -2.174   1.315  0.00  0.00    +0.050 A 
BRANCH  12  14
ATOM     14  O   UNL     1      -3.955  -3.569   1.345  0.00  0.00    -0.507 OA
ATOM     15  H   UNL     1      -4.444  -3.486   0.515  0.00  0.00    +0.292 HD
ENDBRANCH  12  14
ENDBRANCH   7   8
ENDBRANCH   2   7
BRANCH   5  16
ATOM     16  C   UNL     1      -0.022  -0.717  -3.605  0.00  0.00    +0.141 C 
BRANCH  16  17
ATOM     17  C   UNL     1      -0.047   0.268  -4.745  0.00  0.00    -0.030 A 
ATOM     18  C   UNL     1      -1.255   0.708  -5.253  0.00  0.00    +0.007 A 
ATOM     19  C   UNL     1      -1.277   1.612  -6.298  0.00  0.00    +0.033 A 
ATOM     20  C   UNL     1      -0.091   2.076  -6.836  0.00  0.00    +0.126 A 
ATOM     21  C   UNL     1       1.117   1.637  -6.328  0.00  0.00    +0.033 A 
ATOM     22  C   UNL     1       1.139   0.736  -5.279  0.00  0.00    +0.007 A 
BRANCH  20  23
ATOM     23  N   UNL     1      -0.115   3.043  -7.956  0.00  0.00    +0.056 N 
ATOM     24  O   UNL     1      -1.171   3.427  -8.401  0.00  0.00    -0.126 OA
ATOM     25  O   UNL     1       0.922   3.449  -8.427  0.00  0.00    -0.126 OA
ENDBRANCH  20  23
ENDBRANCH  16  17
ENDBRANCH   5  16
TORSDOF 6
