REMARK  Name = ZINC37929357
REMARK  5 active torsions:
REMARK  status: ('A' for Active; 'I' for Inactive)
REMARK    1  A    between atoms: C_3  and  C_20
REMARK    2  A    between atoms: C_6  and  N_7
REMARK    3  A    between atoms: N_7  and  S_8
REMARK    4  A    between atoms: S_8  and  C_11
REMARK    5  A    between atoms: C_16  and  N_17
REMARK                            x       y       z     vdW  Elec       q    Type
REMARK                         _______ _______ _______ _____ _____    ______ ____
ROOT
ATOM      1  S   UNL     1      -1.175  -2.370   0.001  0.00  0.00    +0.093 S 
ATOM      2  O   UNL     1      -0.631  -2.763  -1.252  0.00  0.00    -0.148 OA
ATOM      3  O   UNL     1      -0.607  -2.776   1.238  0.00  0.00    -0.148 OA
ENDROOT
BRANCH   1   4
ATOM      4  C   UNL     1      -2.852  -2.912   0.013  0.00  0.00    +0.132 A 
ATOM      5  C   UNL     1      -3.363  -3.604  -1.067  0.00  0.00    +0.046 A 
ATOM      6  C   UNL     1      -4.679  -4.029  -1.057  0.00  0.00    +0.020 A 
ATOM      7  C   UNL     1      -5.488  -3.762   0.034  0.00  0.00    +0.017 A 
ATOM      8  C   UNL     1      -4.982  -3.071   1.117  0.00  0.00    +0.026 A 
ATOM      9  C   UNL     1      -3.659  -2.648   1.112  0.00  0.00    +0.052 A 
ATOM     10 BR   UNL     1      -5.376  -4.976  -2.539  0.00  0.00    -0.050 Br
BRANCH   9  11
ATOM     11  N   UNL     1      -3.143  -1.953   2.209  0.00  0.00    -0.356 N 
ATOM     12  H   UNL     1      -2.220  -1.654   2.204  0.00  0.00    +0.142 HD
ATOM     13  H   UNL     1      -3.707  -1.769   2.976  0.00  0.00    +0.142 HD
ENDBRANCH   9  11
ENDBRANCH   1   4
BRANCH   1  14
ATOM     14  N   UNL     1      -1.195  -0.715   0.010  0.00  0.00    -0.098 NA
BRANCH  14  20
ATOM     15  C   UNL     1      -0.017   1.388   0.010  0.00  0.00    +0.028 A 
ATOM     16  C   UNL     1       1.164   2.094   0.002  0.00  0.00    +0.022 A 
ATOM     17  C   UNL     1       2.385   1.413  -0.013  0.00  0.00    +0.070 A 
ATOM     18  C   UNL     1       2.401   0.013  -0.021  0.00  0.00    +0.060 A 
ATOM     19  C   UNL     1       1.214  -0.687  -0.013  0.00  0.00    +0.048 A 
ATOM     20  C   UNL     1       0.002  -0.004   0.002  0.00  0.00    +0.076 A 
ATOM     21 CL   UNL     1       3.913  -0.839  -0.040  0.00  0.00    -0.082 Cl
BRANCH  17  22
ATOM     22  C   UNL     1       3.616   2.145  -0.021  0.00  0.00    +0.101 C 
ATOM     23  N   UNL     1       4.592   2.725  -0.028  0.00  0.00    -0.191 NA
ENDBRANCH  17  22
ENDBRANCH  14  20
ENDBRANCH   1  14
TORSDOF 5
