REMARK  Name = ZINC44872405
REMARK  8 active torsions:
REMARK  status: ('A' for Active; 'I' for Inactive)
REMARK    1  A    between atoms: C_1  and  C_2
REMARK    2  A    between atoms: C_2  and  S_3
REMARK    3  A    between atoms: S_3  and  N_6
REMARK    4  A    between atoms: C_8  and  C_17
REMARK    5  A    between atoms: N_19  and  C_20
REMARK    6  A    between atoms: C_20  and  C_21
REMARK    7  A    between atoms: C_24  and  C_27
REMARK    8  A    between atoms: C_27  and  N_28
REMARK                            x       y       z     vdW  Elec       q    Type
REMARK                         _______ _______ _______ _____ _____    ______ ____
ROOT
ATOM      1  C   UNL     1       3.261  -5.050  -0.893  0.00  0.00    +0.256 C 
ATOM      2  O   UNL     1       3.002  -6.165  -0.492  0.00  0.00    -0.272 OA
ATOM      3  N   UNL     1       4.503  -4.549  -0.737  0.00  0.00    -0.308 N 
ATOM      4  H   UNL     1       4.710  -3.658  -1.057  0.00  0.00    +0.149 HD
ENDROOT
BRANCH   1   7
ATOM      5  N   UNL     1       0.808  -2.241  -1.384  0.00  0.00    -0.200 N 
ATOM      6  C   UNL     1       1.883  -2.989  -0.710  0.00  0.00    +0.185 C 
ATOM      7  C   UNL     1       2.195  -4.226  -1.566  0.00  0.00    +0.277 C 
ATOM      8  O   UNL     1       1.002  -5.001  -1.706  0.00  0.00    -0.476 OA
ATOM      9  C   UNL     1      -0.132  -4.356  -2.087  0.00  0.00    +0.144 A 
ATOM     10  C   UNL     1      -0.256  -2.977  -1.929  0.00  0.00    +0.093 A 
ATOM     11  C   UNL     1      -1.421  -2.332  -2.311  0.00  0.00    +0.028 A 
ATOM     12  C   UNL     1      -2.467  -3.061  -2.849  0.00  0.00    +0.002 A 
ATOM     13  C   UNL     1      -2.349  -4.429  -3.006  0.00  0.00    +0.004 A 
ATOM     14  C   UNL     1      -1.181  -5.078  -2.634  0.00  0.00    +0.047 A 
BRANCH   5  15
ATOM     15  S   UNL     1       0.851  -0.589  -1.490  0.00  0.00    +0.045 S 
ATOM     16  O   UNL     1       0.082  -0.280  -2.644  0.00  0.00    -0.155 OA
ATOM     17  O   UNL     1       2.232  -0.257  -1.430  0.00  0.00    -0.155 OA
BRANCH  15  19
ATOM     18  C   UNL     1      -0.019   1.526   0.010  0.00  0.00    +0.030 C 
ATOM     19  C   UNL     1       0.002  -0.004   0.002  0.00  0.00    +0.185 C 
ENDBRANCH  15  19
ENDBRANCH   5  15
ENDBRANCH   1   7
BRANCH   3  20
ATOM     20  C   UNL     1       5.539  -5.351  -0.082  0.00  0.00    +0.139 C 
BRANCH  20  21
ATOM     21  C   UNL     1       6.825  -4.567  -0.034  0.00  0.00    -0.030 A 
ATOM     22  C   UNL     1       7.730  -4.658  -1.075  0.00  0.00    +0.005 A 
ATOM     23  C   UNL     1       8.910  -3.939  -1.031  0.00  0.00    +0.002 A 
ATOM     24  C   UNL     1       9.184  -3.128   0.055  0.00  0.00    -0.064 A 
ATOM     25  C   UNL     1       8.279  -3.036   1.095  0.00  0.00    +0.002 A 
ATOM     26  C   UNL     1       7.098  -3.752   1.049  0.00  0.00    +0.005 A 
BRANCH  24  27
ATOM     27  C   UNL     1      10.471  -2.345   0.103  0.00  0.00    -0.043 C 
BRANCH  27  28
ATOM     28  N   UNL     1      10.266  -1.028  -0.516  0.00  0.00    +0.382 N 
ATOM     29  C   UNL     1       9.368  -0.199   0.327  0.00  0.00    -0.078 C 
ATOM     30  C   UNL     1       9.700   1.248  -0.118  0.00  0.00    -0.020 C 
ATOM     31  C   UNL     1      11.227   1.195  -0.352  0.00  0.00    -0.020 C 
ATOM     32  C   UNL     1      11.547  -0.293  -0.585  0.00  0.00    -0.078 C 
ATOM     33  H   UNL     1       9.877  -1.136  -1.441  0.00  0.00    -0.081 HD
ENDBRANCH  27  28
ENDBRANCH  24  27
ENDBRANCH  20  21
ENDBRANCH   3  20
TORSDOF 7
