REMARK  Name = ZINC14808460
REMARK  6 active torsions:
REMARK  status: ('A' for Active; 'I' for Inactive)
REMARK    1  A    between atoms: C_13  and  C_14
REMARK    2  A    between atoms: C_14  and  O_15
REMARK    3  A    between atoms: O_15  and  C_16
REMARK    4  A    between atoms: C_21  and  C_23
REMARK    5  A    between atoms: C_21  and  N_47
REMARK    6  A    between atoms: C_23  and  O_24
REMARK                            x       y       z     vdW  Elec       q    Type
REMARK                         _______ _______ _______ _____ _____    ______ ____
ROOT
ATOM      1  O   UNL     1       1.076   1.500   2.642  0.00  0.00    -0.449 OA
ENDROOT
BRANCH   1   2
ATOM      2  C   UNL     1      -0.223   1.771   2.415  0.00  0.00    +0.403 C 
ATOM      3  O   UNL     1      -0.924   2.187   3.316  0.00  0.00    -0.226 OA
ATOM      4  N   UNL     1      -0.746   1.583   1.187  0.00  0.00    -0.269 N 
ATOM      5  C   UNL     1      -0.013   1.086   0.008  0.00  0.00    +0.110 C 
ATOM      6  C   UNL     1      -0.806   1.621  -1.210  0.00  0.00    +0.010 C 
ATOM      7  C   UNL     1      -2.269   1.504  -0.705  0.00  0.00    -0.030 C 
ATOM      8  C   UNL     1      -2.143   1.837   0.797  0.00  0.00    +0.100 C 
BRANCH   7  11
ATOM      9  H   UNL     1      -3.727   0.058  -0.566  0.00  0.00    -0.089 HD
ATOM     10  H   UNL     1      -2.701  -0.145  -1.859  0.00  0.00    -0.089 HD
ATOM     11  N   UNL     1      -2.760   0.126  -0.879  0.00  0.00    +0.384 N 
ATOM     12  H   UNL     1      -2.182  -0.512  -0.320  0.00  0.00    -0.089 HD
ENDBRANCH   7  11
BRANCH   7  13
ATOM     13  C   UNL     1      -3.169   2.518  -1.414  0.00  0.00    +0.144 C 
BRANCH  13  14
ATOM     14  O   UNL     1      -4.507   2.387  -0.930  0.00  0.00    -0.396 OA
ATOM     15  H   UNL     1      -5.134   3.000  -1.337  0.00  0.00    +0.209 HD
ENDBRANCH  13  14
ENDBRANCH   7  13
ENDBRANCH   1   2
BRANCH   1  16
ATOM     16  C   UNL     1       1.571   1.727   3.988  0.00  0.00    +0.246 C 
BRANCH  16  29
ATOM     17  C   UNL     1       3.802  -2.822   4.142  0.00  0.00    +0.001 A 
ATOM     18  C   UNL     1       3.198  -2.341   2.994  0.00  0.00    +0.000 A 
ATOM     19  C   UNL     1       2.916  -0.992   2.872  0.00  0.00    +0.005 A 
ATOM     20  C   UNL     1       3.236  -0.124   3.895  0.00  0.00    -0.029 A 
ATOM     21  C   UNL     1       3.843  -0.599   5.054  0.00  0.00    -0.014 A 
ATOM     22  C   UNL     1       4.126  -1.961   5.170  0.00  0.00    +0.009 A 
ATOM     23  C   UNL     1       4.077   0.530   5.988  0.00  0.00    -0.014 A 
ATOM     24  C   UNL     1       4.650   0.568   7.260  0.00  0.00    +0.009 A 
ATOM     25  C   UNL     1       4.754   1.767   7.934  0.00  0.00    +0.001 A 
ATOM     26  C   UNL     1       4.293   2.935   7.353  0.00  0.00    +0.000 A 
ATOM     27  C   UNL     1       3.724   2.905   6.092  0.00  0.00    +0.005 A 
ATOM     28  C   UNL     1       3.616   1.711   5.412  0.00  0.00    -0.029 A 
ATOM     29  C   UNL     1       3.056   1.366   4.053  0.00  0.00    +0.088 C 
ENDBRANCH  16  29
ENDBRANCH   1  16
TORSDOF 6
