REMARK  Name = ZINC03260611
REMARK  5 active torsions:
REMARK  status: ('A' for Active; 'I' for Inactive)
REMARK    1  A    between atoms: C_1  and  C_2
REMARK    2  A    between atoms: C_2  and  C_4
REMARK    3  A    between atoms: C_2  and  N_16
REMARK    4  A    between atoms: N_6  and  C_7
REMARK    5  A    between atoms: C_22  and  N_27
REMARK                            x       y       z     vdW  Elec       q    Type
REMARK                         _______ _______ _______ _____ _____    ______ ____
ROOT
ATOM      1  C   UNL     1      -0.835  -4.693  -1.265  0.00  0.00    +0.041 C 
ATOM      2  C   UNL     1      -0.069  -4.222  -0.027  0.00  0.00    +0.174 C 
ENDROOT
BRANCH   2   3
ATOM      3  N   UNL     1      -0.001  -2.759  -0.022  0.00  0.00    -0.287 N 
ATOM      4  C   UNL     1      -1.148  -2.032   0.000  0.00  0.00    +0.203 A 
ATOM      5  N   UNL     1      -1.170  -0.734   0.006  0.00  0.00    -0.237 NA
ATOM      6  C   UNL     1      -0.028  -0.002  -0.011  0.00  0.00    +0.078 A 
ATOM      7  C   UNL     1      -0.051   1.394  -0.004  0.00  0.00    +0.031 A 
ATOM      8  C   UNL     1       1.133   2.096  -0.021  0.00  0.00    +0.035 A 
ATOM      9  C   UNL     1       2.353   1.432  -0.046  0.00  0.00    +0.127 A 
ATOM     10  C   UNL     1       2.402   0.056  -0.052  0.00  0.00    +0.048 A 
ATOM     11  C   UNL     1       1.215  -0.674  -0.035  0.00  0.00    +0.067 A 
ATOM     12  C   UNL     1       1.205  -2.144  -0.040  0.00  0.00    +0.262 A 
ATOM     13  O   UNL     1       2.240  -2.783  -0.060  0.00  0.00    -0.267 OA
BRANCH   9  14
ATOM     14  N   UNL     1       3.612   2.211  -0.064  0.00  0.00    +0.056 N 
ATOM     15  O   UNL     1       4.684   1.635  -0.084  0.00  0.00    -0.126 OA
ATOM     16  O   UNL     1       3.574   3.429  -0.058  0.00  0.00    -0.126 OA
ENDBRANCH   9  14
ENDBRANCH   2   3
BRANCH   2  17
ATOM     17  C   UNL     1      -0.781  -4.696   1.214  0.00  0.00    +0.240 C 
ATOM     18  O   UNL     1      -1.191  -3.890   2.023  0.00  0.00    -0.273 OA
ATOM     19  N   UNL     1      -0.963  -6.015   1.425  0.00  0.00    -0.283 N 
ATOM     20  H   UNL     1      -0.693  -6.656   0.749  0.00  0.00    +0.155 HD
BRANCH  19  21
ATOM     21  C   UNL     1      -1.540  -6.459   2.621  0.00  0.00    +0.053 A 
ATOM     22  C   UNL     1      -2.529  -5.705   3.238  0.00  0.00    +0.046 A 
ATOM     23  C   UNL     1      -3.100  -6.149   4.416  0.00  0.00    +0.061 A 
ATOM     24  C   UNL     1      -2.680  -7.340   4.985  0.00  0.00    +0.061 A 
ATOM     25  C   UNL     1      -1.691  -8.090   4.375  0.00  0.00    +0.043 A 
ATOM     26  C   UNL     1      -1.120  -7.653   3.194  0.00  0.00    +0.064 A 
ATOM     27 CL   UNL     1       0.120  -8.596   2.429  0.00  0.00    -0.082 Cl
ATOM     28 CL   UNL     1      -3.395  -7.891   6.468  0.00  0.00    -0.082 Cl
ATOM     29 CL   UNL     1      -4.341  -5.210   5.185  0.00  0.00    -0.082 Cl
ENDBRANCH  19  21
ENDBRANCH   2  17
TORSDOF 4
