REMARK  Name = ZINC07718618
REMARK  9 active torsions:
REMARK  status: ('A' for Active; 'I' for Inactive)
REMARK    1  A    between atoms: C_1  and  C_2
REMARK    2  A    between atoms: C_2  and  C_3
REMARK    3  A    between atoms: C_2  and  C_4
REMARK    4  A    between atoms: C_4  and  C_5
REMARK    5  A    between atoms: C_4  and  C_6
REMARK    6  A    between atoms: C_4  and  N_8
REMARK    7  A    between atoms: C_9  and  C_11
REMARK    8  A    between atoms: C_11  and  O_12
REMARK    9  A    between atoms: O_12  and  C_13
REMARK                            x       y       z     vdW  Elec       q    Type
REMARK                         _______ _______ _______ _____ _____    ______ ____
ROOT
ATOM      1  N   UNL     1      -0.727   2.011  -1.176  0.00  0.00    -0.295 N 
ATOM      2  C   UNL     1      -0.274   1.698  -2.407  0.00  0.00    +0.252 C 
ATOM      3  O   UNL     1       0.720   1.015  -2.531  0.00  0.00    -0.272 OA
ATOM      4  H   UNL     1      -1.522   2.558  -1.077  0.00  0.00    +0.150 HD
ENDROOT
BRANCH   1   5
ATOM      5  C   UNL     1      -0.019   1.526   0.010  0.00  0.00    +0.121 C 
ATOM      6  C   UNL     1       0.002  -0.004   0.002  0.00  0.00    +0.048 C 
BRANCH   5   8
ATOM      7  C   UNL     1      -2.127   1.390   1.344  0.00  0.00    +0.010 C 
ATOM      8  C   UNL     1      -0.735   2.019   1.269  0.00  0.00    +0.020 C 
ATOM      9  C   UNL     1       0.073   1.619   2.506  0.00  0.00    +0.010 C 
ENDBRANCH   5   8
BRANCH   5  10
ATOM     10  C   UNL     1       1.362   2.035   0.000  0.00  0.00    +0.088 C 
ATOM     11  N   UNL     1       2.428   2.429  -0.008  0.00  0.00    -0.194 NA
ENDBRANCH   5  10
ENDBRANCH   1   5
BRANCH   2  12
ATOM     12  C   UNL     1      -1.003   2.198  -3.627  0.00  0.00    +0.326 C 
BRANCH  12  13
ATOM     13  O   UNL     1      -0.334   1.737  -4.803  0.00  0.00    -0.466 OA
BRANCH  13  14
ATOM     14  C   UNL     1      -0.865   2.100  -5.995  0.00  0.00    +0.227 A 
ATOM     15  C   UNL     1      -0.259   1.682  -7.209  0.00  0.00    +0.069 A 
ATOM     16  C   UNL     1       0.926   0.869  -7.425  0.00  0.00    +0.023 A 
ATOM     17  C   UNL     1       1.316   0.600  -8.679  0.00  0.00    +0.048 A 
ATOM     18  S   UNL     1       0.100   1.433  -9.682  0.00  0.00    -0.077 S 
ATOM     19  C   UNL     1      -0.900   2.121  -8.389  0.00  0.00    +0.115 A 
ATOM     20  N   UNL     1      -1.985   2.867  -8.344  0.00  0.00    -0.228 NA
ATOM     21  C   UNL     1      -2.502   3.223  -7.184  0.00  0.00    +0.226 A 
ATOM     22  N   UNL     1      -1.956   2.843  -6.042  0.00  0.00    -0.201 NA
ENDBRANCH  13  14
ENDBRANCH  12  13
ENDBRANCH   2  12
TORSDOF 6
