REMARK  Name = ZINC04138054
REMARK  7 active torsions:
REMARK  status: ('A' for Active; 'I' for Inactive)
REMARK    1  A    between atoms: C_1  and  C_2
REMARK    2  A    between atoms: C_6  and  N_8
REMARK    3  A    between atoms: N_8  and  C_9
REMARK    4  A    between atoms: C_14  and  O_16
REMARK    5  A    between atoms: O_16  and  C_17
REMARK    6  A    between atoms: C_17  and  C_19
REMARK    7  A    between atoms: C_24  and  C_25
REMARK                            x       y       z     vdW  Elec       q    Type
REMARK                         _______ _______ _______ _____ _____    ______ ____
ROOT
ATOM      1  C   UNL     1      -0.074  -3.930   2.640  0.00  0.00    +0.115 C 
ATOM      2  C   UNL     1       0.082  -4.643   1.503  0.00  0.00    +0.149 C 
ATOM      3  C   UNL     1       0.301  -5.996   1.819  0.00  0.00    +0.355 C 
ATOM      4  O   UNL     1       0.476  -6.877   0.997  0.00  0.00    -0.244 OA
ATOM      5  O   UNL     1       0.291  -6.187   3.152  0.00  0.00    -0.415 OA
ATOM      6  C   UNL     1       0.063  -4.918   3.777  0.00  0.00    +0.418 C 
ATOM      7 CL   UNL     1       0.023  -3.988  -0.104  0.00  0.00    -0.074 Cl
ENDROOT
BRANCH   1   8
ATOM      8  N   UNL     1      -0.305  -2.585   2.743  0.00  0.00    -0.311 N 
ATOM      9  H   UNL     1       0.312  -1.955   2.339  0.00  0.00    +0.152 HD
BRANCH   8  15
ATOM     10  C   UNL     1      -2.767   1.142   4.793  0.00  0.00    +0.044 C 
ATOM     11  C   UNL     1      -2.649  -0.317   4.437  0.00  0.00    -0.049 A 
ATOM     12  C   UNL     1      -3.655  -1.198   4.791  0.00  0.00    +0.003 A 
ATOM     13  C   UNL     1      -3.551  -2.538   4.467  0.00  0.00    +0.002 A 
ATOM     14  C   UNL     1      -2.441  -3.002   3.788  0.00  0.00    +0.023 A 
ATOM     15  C   UNL     1      -1.429  -2.120   3.430  0.00  0.00    +0.032 A 
ATOM     16  C   UNL     1      -1.540  -0.773   3.753  0.00  0.00    +0.026 A 
ENDBRANCH   8  15
ENDBRANCH   1   8
BRANCH   6  17
ATOM     17  O   UNL     1       1.171  -4.567   4.608  0.00  0.00    -0.415 OA
BRANCH  17  18
ATOM     18  C   UNL     1       1.356  -5.298   5.724  0.00  0.00    +0.343 C 
ATOM     19  O   UNL     1       0.597  -6.210   5.984  0.00  0.00    -0.245 OA
BRANCH  18  20
ATOM     20  C   UNL     1       2.482  -4.992   6.630  0.00  0.00    +0.062 A 
ATOM     21  C   UNL     1       3.418  -4.017   6.280  0.00  0.00    +0.015 A 
ATOM     22  C   UNL     1       4.467  -3.736   7.131  0.00  0.00    +0.001 A 
ATOM     23  C   UNL     1       4.591  -4.418   8.329  0.00  0.00    +0.000 A 
ATOM     24  C   UNL     1       3.667  -5.385   8.681  0.00  0.00    +0.004 A 
ATOM     25  C   UNL     1       2.610  -5.672   7.843  0.00  0.00    -0.036 A 
ATOM     26  C   UNL     1       1.601  -6.721   8.231  0.00  0.00    +0.044 C 
ENDBRANCH  18  20
ENDBRANCH  17  18
ENDBRANCH   6  17
TORSDOF 5
