REMARK  Name = ZINC12497148
REMARK  7 active torsions:
REMARK  status: ('A' for Active; 'I' for Inactive)
REMARK    1  A    between atoms: C_1  and  O_2
REMARK    2  A    between atoms: O_2  and  C_3
REMARK    3  A    between atoms: C_3  and  C_5
REMARK    4  A    between atoms: C_5  and  C_28
REMARK    5  A    between atoms: C_10  and  C_12
REMARK    6  A    between atoms: N_19  and  C_22
REMARK    7  A    between atoms: C_28  and  O_29
REMARK                            x       y       z     vdW  Elec       q    Type
REMARK                         _______ _______ _______ _____ _____    ______ ____
ROOT
ATOM      1  C   UNL     1      -5.966   0.419   0.385  0.00  0.00    +0.067 C 
ATOM      2  C   UNL     1      -4.641   0.565  -0.342  0.00  0.00    +0.088 C 
ATOM      3  C   UNL     1      -3.872  -0.642   0.311  0.00  0.00    +0.078 C 
ATOM      4  C   UNL     1      -4.857  -1.730   0.238  0.00  0.00    -0.020 C 
ATOM      5  C   UNL     1      -2.500  -0.332   0.007  0.00  0.00    +0.229 C 
ATOM      6  O   UNL     1      -1.599  -1.113  -0.211  0.00  0.00    -0.275 OA
ATOM      7  N   UNL     1      -2.429   1.039   0.020  0.00  0.00    -0.210 N 
ATOM      8  C   UNL     1      -3.661   1.631   0.029  0.00  0.00    +0.229 C 
ATOM      9  O   UNL     1      -3.909   2.790   0.285  0.00  0.00    -0.275 OA
ATOM     10  N   UNL     1      -6.124  -1.039   0.634  0.00  0.00    +0.397 N 
ATOM     11  H   UNL     1      -6.905  -1.403   0.076  0.00  0.00    -0.083 HD
ATOM     12  H   UNL     1      -6.310  -1.202   1.631  0.00  0.00    -0.083 HD
ENDROOT
BRANCH   7  13
ATOM     13  C   UNL     1      -1.224   1.754   0.017  0.00  0.00    +0.044 A 
ATOM     14  C   UNL     1      -0.013   1.076   0.008  0.00  0.00    +0.024 A 
ATOM     15  C   UNL     1       1.174   1.783   0.000  0.00  0.00    +0.002 A 
ATOM     16  C   UNL     1       1.156   3.166   0.007  0.00  0.00    +0.000 A 
ATOM     17  C   UNL     1      -0.049   3.844   0.022  0.00  0.00    +0.002 A 
ATOM     18  C   UNL     1      -1.239   3.142   0.030  0.00  0.00    +0.024 A 
ENDBRANCH   7  13
BRANCH   4  19
ATOM     19  C   UNL     1      -4.513  -2.829   1.211  0.00  0.00    -0.023 A 
ATOM     20  C   UNL     1      -3.984  -4.052   0.964  0.00  0.00    +0.009 A 
ATOM     21  C   UNL     1      -3.749  -4.907   2.025  0.00  0.00    +0.008 A 
ATOM     22  C   UNL     1      -4.054  -4.496   3.280  0.00  0.00    +0.045 A 
ATOM     23  S   UNL     1      -4.688  -2.853   2.987  0.00  0.00    -0.103 S 
ENDBRANCH   4  19
BRANCH   1  24
ATOM     24  C   UNL     1      -7.091   0.930  -0.477  0.00  0.00    +0.299 C 
ATOM     25  O   UNL     1      -6.870   1.754  -1.333  0.00  0.00    -0.252 OA
BRANCH  24  27
ATOM     26  C   UNL     1      -9.373   1.007  -1.162  0.00  0.00    +0.280 C 
ATOM     27  O   UNL     1      -8.339   0.470  -0.295  0.00  0.00    -0.469 OA
ENDBRANCH  24  27
ENDBRANCH   1  24
BRANCH   1  28
ATOM     28  C   UNL     1      -5.928   1.183   1.710  0.00  0.00    +0.155 C 
BRANCH  28  29
ATOM     29  O   UNL     1      -7.136   0.941   2.434  0.00  0.00    -0.396 OA
ATOM     30  H   UNL     1      -7.181   1.395   3.287  0.00  0.00    +0.209 HD
ENDBRANCH  28  29
ENDBRANCH   1  28
TORSDOF 6
