REMARK  Name = ZINC19625181
REMARK  6 active torsions:
REMARK  status: ('A' for Active; 'I' for Inactive)
REMARK    1  A    between atoms: C_1  and  C_2
REMARK    2  A    between atoms: C_8  and  C_13
REMARK    3  A    between atoms: C_15  and  O_21
REMARK    4  A    between atoms: C_17  and  O_19
REMARK    5  A    between atoms: O_19  and  C_20
REMARK    6  A    between atoms: O_21  and  C_22
REMARK                            x       y       z     vdW  Elec       q    Type
REMARK                         _______ _______ _______ _____ _____    ______ ____
ROOT
ATOM      1  C   UNL     1       2.489   1.040  -0.017  0.00  0.00    +0.044 C 
ATOM      2  C   UNL     1       1.175   1.778   0.000  0.00  0.00    -0.050 A 
ATOM      3  C   UNL     1       1.158   3.161   0.008  0.00  0.00    +0.003 A 
ATOM      4  C   UNL     1      -0.048   3.832   0.022  0.00  0.00    +0.004 A 
ATOM      5  C   UNL     1      -1.242   3.127   0.028  0.00  0.00    -0.041 A 
ATOM      6  C   UNL     1      -1.226   1.749   0.017  0.00  0.00    -0.023 A 
ATOM      7  C   UNL     1      -0.013   1.076   0.008  0.00  0.00    +0.009 A 
ATOM      8  C   UNL     1      -2.495   0.939   0.028  0.00  0.00    +0.115 C 
ATOM      9  N   UNL     1      -3.635   1.766  -0.378  0.00  0.00    -0.305 NA
ATOM     10  C   UNL     1      -3.691   2.992   0.434  0.00  0.00    +0.086 C 
ATOM     11  C   UNL     1      -2.535   3.903   0.032  0.00  0.00    +0.050 C 
ATOM     12  H   UNL     1      -3.529   2.042  -1.438  0.00  0.00    +0.123 HD
ENDROOT
BRANCH   8  13
ATOM     13  C   UNL     1      -2.355  -0.219  -0.926  0.00  0.00    -0.019 A 
ATOM     14  C   UNL     1      -2.537  -0.022  -2.281  0.00  0.00    +0.051 A 
ATOM     15  C   UNL     1      -2.403  -1.086  -3.162  0.00  0.00    +0.124 A 
ATOM     16  C   UNL     1      -2.099  -2.350  -2.680  0.00  0.00    +0.091 A 
ATOM     17  C   UNL     1      -1.923  -2.546  -1.319  0.00  0.00    +0.124 A 
ATOM     18  C   UNL     1      -2.051  -1.478  -0.443  0.00  0.00    +0.051 A 
BRANCH  17  19
ATOM     19  O   UNL     1      -1.625  -3.784  -0.844  0.00  0.00    -0.495 OA
ATOM     20  C   UNL     1      -1.508  -4.836  -1.803  0.00  0.00    +0.277 C 
ENDBRANCH  17  19
BRANCH  15  21
ATOM     21  O   UNL     1      -2.576  -0.890  -4.496  0.00  0.00    -0.495 OA
ATOM     22  C   UNL     1      -2.429  -2.032  -5.343  0.00  0.00    +0.277 C 
ENDBRANCH  15  21
ENDBRANCH   8  13
TORSDOF 3
