REMARK  Name = ZINC09511080
REMARK  17 active torsions:
REMARK  status: ('A' for Active; 'I' for Inactive)
REMARK    1  A    between atoms: C_1  and  C_2
REMARK    2  A    between atoms: C_2  and  C_3
REMARK    3  A    between atoms: C_3  and  C_4
REMARK    4  A    between atoms: C_4  and  N_5
REMARK    5  A    between atoms: N_5  and  C_6
REMARK    6  A    between atoms: N_5  and  S_8
REMARK    7  A    between atoms: C_6  and  C_7
REMARK    8  A    between atoms: S_8  and  C_11
REMARK    9  A    between atoms: C_14  and  C_17
REMARK   10  A    between atoms: C_17  and  N_19
REMARK   11  A    between atoms: N_21  and  C_31
REMARK   12  A    between atoms: C_24  and  C_30
REMARK   13  A    between atoms: C_25  and  C_29
REMARK   14  A    between atoms: C_31  and  C_32
REMARK   15  A    between atoms: C_32  and  O_34
REMARK   16  A    between atoms: O_34  and  C_35
REMARK   17  A    between atoms: C_35  and  C_36
REMARK                            x       y       z     vdW  Elec       q    Type
REMARK                         _______ _______ _______ _____ _____    ______ ____
ROOT
ATOM      1  C   UNL     1       2.401  -2.704   0.877  0.00  0.00    +0.269 C 
ATOM      2  O   UNL     1       1.226  -2.974   0.699  0.00  0.00    -0.268 OA
ENDROOT
BRANCH   1   3
ATOM      3  N   UNL     1       2.852  -1.474   0.611  0.00  0.00    -0.152 NA
ATOM      4  C   UNL     1       2.019  -0.546   0.152  0.00  0.00    +0.167 A 
ATOM      5  N   UNL     1       2.292   0.747  -0.171  0.00  0.00    -0.310 N 
ATOM      6  C   UNL     1       1.285   1.572  -0.637  0.00  0.00    +0.058 A 
ATOM      7  C   UNL     1       1.371   2.920  -1.018  0.00  0.00    +0.030 A 
ATOM      8  C   UNL     1       0.260   3.597  -1.462  0.00  0.00    -0.046 A 
ATOM      9  C   UNL     1      -0.974   2.974  -1.547  0.00  0.00    -0.046 A 
ATOM     10  C   UNL     1      -1.088   1.646  -1.175  0.00  0.00    +0.020 A 
ATOM     11  C   UNL     1       0.024   0.967  -0.734  0.00  0.00    +0.039 A 
ATOM     12  S   UNL     1       0.323  -0.691  -0.177  0.00  0.00    -0.052 S 
ATOM     13  C   UNL     1      -2.180   3.734  -2.036  0.00  0.00    +0.044 C 
ATOM     14  C   UNL     1       0.386   5.045  -1.862  0.00  0.00    +0.044 C 
BRANCH   5  15
ATOM     15  C   UNL     1       3.655   1.265  -0.026  0.00  0.00    +0.244 C 
BRANCH  15  16
ATOM     16  C   UNL     1       4.257   0.744   1.253  0.00  0.00    +0.327 C 
ATOM     17  O   UNL     1       3.566   0.153   2.049  0.00  0.00    -0.249 OA
BRANCH  16  18
ATOM     18  O   UNL     1       5.561   0.936   1.508  0.00  0.00    -0.464 OA
BRANCH  18  19
ATOM     19  C   UNL     1       6.072   0.406   2.760  0.00  0.00    +0.229 C 
ATOM     20  C   UNL     1       7.566   0.720   2.873  0.00  0.00    +0.048 C 
ENDBRANCH  18  19
ENDBRANCH  16  18
ENDBRANCH  15  16
ENDBRANCH   5  15
ENDBRANCH   1   3
BRANCH   1  24
ATOM     21  C   UNL     1       5.065  -5.673   2.344  0.00  0.00    +0.106 A 
ATOM     22  C   UNL     1       3.732  -5.983   2.143  0.00  0.00    +0.029 A 
ATOM     23  C   UNL     1       2.862  -5.023   1.667  0.00  0.00    +0.015 A 
ATOM     24  C   UNL     1       3.329  -3.739   1.388  0.00  0.00    +0.039 A 
ATOM     25  C   UNL     1       4.676  -3.435   1.588  0.00  0.00    +0.015 A 
ATOM     26  C   UNL     1       5.535  -4.401   2.069  0.00  0.00    +0.029 A 
BRANCH  21  27
ATOM     27  S   UNL     1       6.169  -6.904   2.952  0.00  0.00    +0.061 S 
ATOM     28  O   UNL     1       7.246  -6.213   3.571  0.00  0.00    -0.153 OA
ATOM     29  O   UNL     1       5.375  -7.855   3.647  0.00  0.00    -0.153 OA
BRANCH  27  30
ATOM     30  N   UNL     1       6.802  -7.687   1.637  0.00  0.00    -0.177 NA
BRANCH  30  31
ATOM     31  C   UNL     1       6.129  -8.869   1.094  0.00  0.00    +0.106 C 
ATOM     32  C   UNL     1       5.211  -8.450  -0.056  0.00  0.00    +0.022 C 
ENDBRANCH  30  31
BRANCH  30  33
ATOM     33  C   UNL     1       8.036  -7.196   1.017  0.00  0.00    +0.109 C 
BRANCH  33  34
ATOM     34  C   UNL     1       9.232  -7.959   1.589  0.00  0.00    +0.017 C 
BRANCH  34  36
ATOM     35  C   UNL     1      11.717  -8.210   1.513  0.00  0.00    +0.004 C 
ATOM     36  C   UNL     1      10.521  -7.447   0.941  0.00  0.00    -0.002 C 
ENDBRANCH  34  36
ENDBRANCH  33  34
ENDBRANCH  30  33
ENDBRANCH  27  30
ENDBRANCH  21  27
ENDBRANCH   1  24
TORSDOF 12
