REMARK  Name = ZINC13225861
REMARK  3 active torsions:
REMARK  status: ('A' for Active; 'I' for Inactive)
REMARK    1  A    between atoms: C_6  and  C_7
REMARK    2  A    between atoms: C_8  and  C_9
REMARK    3  A    between atoms: C_21  and  C_23
REMARK                            x       y       z     vdW  Elec       q    Type
REMARK                         _______ _______ _______ _____ _____    ______ ____
ROOT
ATOM      1  C   UNL     1       3.024   3.262   1.766  0.00  0.00    +0.240 C 
ATOM      2  O   UNL     1       4.113   3.692   2.098  0.00  0.00    -0.271 OA
ATOM      3  N   UNL     1       2.532   3.543   0.544  0.00  0.00    -0.281 N 
ATOM      4  C   UNL     1       3.191   4.350  -0.492  0.00  0.00    +0.080 C 
ATOM      5  C   UNL     1       4.699   4.271  -0.433  0.00  0.00    +0.023 C 
ATOM      6  C   UNL     1       5.194   2.866  -0.778  0.00  0.00    +0.002 C 
ATOM      7  C   UNL     1       4.712   2.516  -2.190  0.00  0.00    +0.000 C 
ATOM      8  C   UNL     1       3.186   2.484  -2.191  0.00  0.00    +0.005 C 
ATOM      9  C   UNL     1       2.616   3.858  -1.833  0.00  0.00    +0.012 C 
ATOM     10  C   UNL     1       1.124   3.632  -1.437  0.00  0.00    +0.039 C 
ATOM     11  C   UNL     1       1.235   3.094   0.007  0.00  0.00    +0.190 C 
ENDROOT
BRANCH  11  12
ATOM     12  C   UNL     1       1.177   1.588  -0.001  0.00  0.00    +0.376 C 
ATOM     13  O   UNL     1       2.163   0.944   0.267  0.00  0.00    -0.244 OA
ATOM     14  O   UNL     1       0.028   0.963  -0.304  0.00  0.00    -0.244 OA
ENDBRANCH  11  12
BRANCH   1  16
ATOM     15  C   UNL     1       2.741   2.157   3.919  0.00  0.00    +0.013 C 
ATOM     16  C   UNL     1       2.249   2.439   2.696  0.00  0.00    +0.068 C 
BRANCH  15  22
ATOM     17  C   UNL     1       2.470   1.035   6.123  0.00  0.00    +0.011 A 
ATOM     18  C   UNL     1       1.735   0.260   6.994  0.00  0.00    +0.040 A 
ATOM     19  C   UNL     1       0.495  -0.229   6.614  0.00  0.00    +0.142 A 
ATOM     20  C   UNL     1      -0.016   0.059   5.355  0.00  0.00    +0.077 A 
ATOM     21  C   UNL     1       0.707   0.838   4.477  0.00  0.00    +0.030 A 
ATOM     22  C   UNL     1       1.962   1.329   4.853  0.00  0.00    -0.023 A 
ATOM     23 CL   UNL     1      -1.570  -0.558   4.889  0.00  0.00    -0.081 Cl
ATOM     24  F   UNL     1      -0.220  -0.989   7.472  0.00  0.00    -0.204 F 
ENDBRANCH  15  22
ENDBRANCH   1  16
TORSDOF 3
