REMARK  Name = ZINC13588191
REMARK  8 active torsions:
REMARK  status: ('A' for Active; 'I' for Inactive)
REMARK    1  A    between atoms: C_3  and  C_11
REMARK    2  A    between atoms: C_6  and  C_7
REMARK    3  A    between atoms: C_7  and  N_51
REMARK    4  A    between atoms: C_8  and  C_9
REMARK    5  A    between atoms: C_8  and  N_51
REMARK    6  A    between atoms: C_9  and  O_10
REMARK    7  A    between atoms: C_16  and  N_20
REMARK    8  A    between atoms: N_20  and  C_21
REMARK                            x       y       z     vdW  Elec       q    Type
REMARK                         _______ _______ _______ _____ _____    ______ ____
ROOT
ATOM      1  C   UNL     1       2.744  -6.719  -0.134  0.00  0.00    +0.022 A 
ATOM      2  C   UNL     1       3.922  -6.047  -0.076  0.00  0.00    +0.044 A 
ATOM      3  C   UNL     1       3.928  -4.640  -0.028  0.00  0.00    +0.080 A 
ATOM      4  C   UNL     1       2.655  -4.030  -0.045  0.00  0.00    +0.059 A 
ATOM      5  S   UNL     1       1.536  -5.404  -0.125  0.00  0.00    -0.085 S 
ATOM      6  C   UNL     1       2.504  -2.654  -0.003  0.00  0.00    +0.049 A 
ATOM      7  C   UNL     1       3.658  -1.872   0.053  0.00  0.00    +0.044 A 
ATOM      8  C   UNL     1       4.886  -2.511   0.073  0.00  0.00    +0.113 A 
ATOM      9  N   UNL     1       4.999  -3.814   0.032  0.00  0.00    -0.254 NA
ENDROOT
BRANCH   1  12
ATOM     10  C   UNL     1       1.013 -10.048  -0.297  0.00  0.00    +0.002 A 
ATOM     11  C   UNL     1       1.218  -8.685  -0.245  0.00  0.00    +0.009 A 
ATOM     12  C   UNL     1       2.517  -8.179  -0.189  0.00  0.00    -0.011 A 
ATOM     13  C   UNL     1       3.602  -9.057  -0.192  0.00  0.00    +0.009 A 
ATOM     14  C   UNL     1       3.383 -10.418  -0.239  0.00  0.00    +0.002 A 
ATOM     15  C   UNL     1       2.092 -10.913  -0.294  0.00  0.00    -0.064 A 
BRANCH  15  16
ATOM     16  C   UNL     1       1.861 -12.401  -0.352  0.00  0.00    -0.047 C 
BRANCH  16  17
ATOM     17  N   UNL     1       1.829 -12.831  -1.762  0.00  0.00    +0.383 N 
ATOM     18  H   UNL     1       2.724 -12.600  -2.208  0.00  0.00    -0.085 HD
ATOM     19  H   UNL     1       1.068 -12.341  -2.248  0.00  0.00    -0.085 HD
BRANCH  17  20
ATOM     20  C   UNL     1       1.603 -14.286  -1.849  0.00  0.00    -0.054 C 
BRANCH  20  21
ATOM     21  C   UNL     1       1.575 -14.702  -3.321  0.00  0.00    +0.137 C 
BRANCH  21  22
ATOM     22  O   UNL     1       2.860 -14.479  -3.905  0.00  0.00    -0.397 OA
ATOM     23  H   UNL     1       2.915 -14.721  -4.839  0.00  0.00    +0.209 HD
ENDBRANCH  21  22
ENDBRANCH  20  21
ENDBRANCH  17  20
ENDBRANCH  16  17
ENDBRANCH  15  16
ENDBRANCH   1  12
BRANCH   6  24
ATOM     24  N   UNL     1       1.240  -2.070  -0.021  0.00  0.00    -0.314 N 
ATOM     25  H   UNL     1       0.939  -1.588  -0.807  0.00  0.00    +0.152 HD
BRANCH  24  26
ATOM     26  C   UNL     1       0.403  -2.178   1.096  0.00  0.00    +0.032 A 
ATOM     27  C   UNL     1       0.826  -2.893   2.215  0.00  0.00    +0.025 A 
ATOM     28  C   UNL     1       0.015  -3.009   3.321  0.00  0.00    +0.028 A 
ATOM     29  C   UNL     1      -1.240  -2.409   3.330  0.00  0.00    +0.047 A 
ATOM     30  C   UNL     1      -1.671  -1.686   2.203  0.00  0.00    +0.001 A 
ATOM     31  C   UNL     1      -0.841  -1.574   1.086  0.00  0.00    +0.033 A 
ATOM     32  C   UNL     1      -3.008  -1.184   2.530  0.00  0.00    +0.027 A 
ATOM     33  C   UNL     1      -3.298  -1.617   3.768  0.00  0.00    +0.083 A 
ATOM     34  N   UNL     1      -2.253  -2.348   4.263  0.00  0.00    -0.361 N 
ATOM     35  H   UNL     1      -2.229  -2.760   5.141  0.00  0.00    +0.165 HD
ENDBRANCH  24  26
ENDBRANCH   6  24
TORSDOF 8
