REMARK  Name = ZINC37263684
REMARK  8 active torsions:
REMARK  status: ('A' for Active; 'I' for Inactive)
REMARK    1  A    between atoms: C_1  and  C_2
REMARK    2  A    between atoms: C_4  and  O_32
REMARK    3  A    between atoms: C_12  and  O_20
REMARK    4  A    between atoms: C_14  and  C_15
REMARK    5  A    between atoms: C_14  and  O_19
REMARK    6  A    between atoms: C_15  and  C_17
REMARK    7  A    between atoms: C_17  and  O_18
REMARK    8  A    between atoms: C_29  and  C_30
REMARK                            x       y       z     vdW  Elec       q    Type
REMARK                         _______ _______ _______ _____ _____    ______ ____
ROOT
ATOM      1  C   UNL     1       0.579   1.652   0.029  0.00  0.00    +0.015 C 
ATOM      2  C   UNL     1       0.314   0.146   0.083  0.00  0.00    +0.012 C 
ATOM      3  C   UNL     1      -1.119  -0.105   0.507  0.00  0.00    +0.044 C 
ATOM      4  C   UNL     1      -1.337   0.631   1.840  0.00  0.00    +0.154 C 
ATOM      5  C   UNL     1      -0.345   0.151   2.900  0.00  0.00    +0.153 C 
ATOM      6  C   UNL     1       1.100   0.307   2.413  0.00  0.00    +0.034 C 
ATOM      7  C   UNL     1       1.240  -0.510   1.143  0.00  0.00    +0.007 C 
ATOM      8  C   UNL     1       2.602  -0.447   0.444  0.00  0.00    +0.039 C 
ATOM      9  C   UNL     1       2.260  -0.836  -1.020  0.00  0.00    +0.154 C 
ATOM     10  C   UNL     1       0.761  -0.501  -1.223  0.00  0.00    +0.157 C 
ATOM     11  C   UNL     1       2.039  -0.212   3.506  0.00  0.00    +0.011 C 
ATOM     12  C   UNL     1       1.939  -1.738   3.528  0.00  0.00    +0.032 C 
ATOM     13  C   UNL     1       0.500  -2.160   3.591  0.00  0.00    -0.053 C 
ATOM     14  C   UNL     1       0.223  -3.449   3.898  0.00  0.00    +0.051 C 
ATOM     15  C   UNL     1      -1.224  -3.796   3.889  0.00  0.00    +0.179 C 
ATOM     16  O   UNL     1      -1.732  -4.509   4.734  0.00  0.00    -0.288 OA
ATOM     17  C   UNL     1      -2.003  -3.204   2.767  0.00  0.00    +0.047 C 
ATOM     18  C   UNL     1      -1.700  -1.920   2.475  0.00  0.00    -0.009 C 
ATOM     19  C   UNL     1      -0.658  -1.260   3.312  0.00  0.00    +0.044 C 
ATOM     20  C   UNL     1      -1.340  -1.119   4.675  0.00  0.00    +0.023 C 
ATOM     21  F   UNL     1      -0.492   0.969   4.026  0.00  0.00    -0.238 F 
ENDROOT
BRANCH  10  22
ATOM     22  C   UNL     1       0.592   0.464  -2.369  0.00  0.00    +0.193 C 
ATOM     23  O   UNL     1       1.465   1.259  -2.622  0.00  0.00    -0.292 OA
BRANCH  22  24
ATOM     24  C   UNL     1      -0.666   0.436  -3.198  0.00  0.00    +0.233 C 
BRANCH  24  25
ATOM     25  O   UNL     1      -0.589   1.438  -4.214  0.00  0.00    -0.387 OA
ATOM     26  H   UNL     1      -1.366   1.477  -4.787  0.00  0.00    +0.210 HD
ENDBRANCH  24  25
ENDBRANCH  22  24
ENDBRANCH  10  22
BRANCH  10  27
ATOM     27  O   UNL     1       0.015  -1.695  -1.465  0.00  0.00    -0.378 OA
ATOM     28  H   UNL     1       0.256  -2.150  -2.284  0.00  0.00    +0.211 HD
ENDBRANCH  10  27
BRANCH   9  29
ATOM     29  O   UNL     1       3.061  -0.079  -1.929  0.00  0.00    -0.388 OA
ATOM     30  H   UNL     1       4.012  -0.228  -1.834  0.00  0.00    +0.210 HD
ENDBRANCH   9  29
BRANCH   4  31
ATOM     31  O   UNL     1      -1.161   2.035   1.636  0.00  0.00    -0.389 OA
ATOM     32  H   UNL     1      -1.772   2.418   0.991  0.00  0.00    +0.210 HD
ENDBRANCH   4  31
TORSDOF 6
