REMARK  Name = ZINC38018880
REMARK  4 active torsions:
REMARK  status: ('A' for Active; 'I' for Inactive)
REMARK    1  A    between atoms: C_1  and  N_2
REMARK    2  A    between atoms: N_7  and  C_10
REMARK    3  A    between atoms: N_15  and  C_16
REMARK    4  A    between atoms: C_16  and  C_17
REMARK                            x       y       z     vdW  Elec       q    Type
REMARK                         _______ _______ _______ _____ _____    ______ ____
ROOT
ATOM      1  C   UNL     1      -0.018   1.461   0.010  0.00  0.00    +0.155 C 
ATOM      2  N   UNL     1       0.002  -0.004   0.002  0.00  0.00    -0.280 N 
ATOM      3  C   UNL     1      -1.189  -0.713   0.004  0.00  0.00    +0.170 A 
ATOM      4  C   UNL     1      -1.141  -2.102  -0.004  0.00  0.00    +0.150 A 
ATOM      5  C   UNL     1       0.108  -2.747  -0.015  0.00  0.00    +0.282 A 
ATOM      6  O   UNL     1       0.173  -3.964  -0.022  0.00  0.00    -0.265 OA
ATOM      7  N   UNL     1       1.234  -2.004  -0.016  0.00  0.00    -0.262 N 
ATOM      8  C   UNL     1       1.177  -0.661  -0.013  0.00  0.00    +0.333 A 
ATOM      9  O   UNL     1       2.213  -0.023  -0.019  0.00  0.00    -0.246 OA
ATOM     10  C   UNL     1       2.539  -2.671  -0.027  0.00  0.00    +0.157 C 
ATOM     11  N   UNL     1      -2.460  -2.538   0.000  0.00  0.00    -0.321 N 
ATOM     12  H   UNL     1      -2.765  -3.459  -0.003  0.00  0.00    +0.169 HD
ATOM     13  C   UNL     1      -3.240  -1.425   0.011  0.00  0.00    +0.196 A 
ATOM     14  N   UNL     1      -2.474  -0.354   0.013  0.00  0.00    -0.196 NA
ATOM     15  N   UNL     1      -4.616  -1.419   0.017  0.00  0.00    -0.310 N 
ATOM     16  H   UNL     1      -5.097  -0.577   0.025  0.00  0.00    +0.149 HD
ENDROOT
BRANCH  15  17
ATOM     17  C   UNL     1      -5.354  -2.684   0.013  0.00  0.00    +0.147 C 
BRANCH  17  18
ATOM     18  C   UNL     1      -6.835  -2.402   0.022  0.00  0.00    +0.008 A 
ATOM     19  C   UNL     1      -7.679  -2.241  -1.025  0.00  0.00    +0.014 A 
ATOM     20  C   UNL     1      -9.015  -1.987  -0.777  0.00  0.00    +0.023 A 
ATOM     21  C   UNL     1      -9.441  -1.905   0.508  0.00  0.00    +0.055 A 
ATOM     22  S   UNL     1      -7.932  -2.200   1.416  0.00  0.00    -0.085 S 
ATOM     23 BR   UNL     1     -11.181  -1.572   1.167  0.00  0.00    -0.043 Br
ENDBRANCH  17  18
ENDBRANCH  15  17
TORSDOF 2
