REMARK  Name = ZINC36142282
REMARK  10 active torsions:
REMARK  status: ('A' for Active; 'I' for Inactive)
REMARK    1  A    between atoms: C_1  and  C_2
REMARK    2  A    between atoms: C_2  and  O_3
REMARK    3  A    between atoms: O_3  and  C_4
REMARK    4  A    between atoms: C_9  and  O_10
REMARK    5  A    between atoms: O_10  and  C_11
REMARK    6  A    between atoms: C_11  and  C_12
REMARK    7  A    between atoms: C_14  and  C_21
REMARK    8  A    between atoms: C_14  and  C_22
REMARK    9  A    between atoms: C_16  and  C_17
REMARK   10  A    between atoms: C_16  and  N_20
REMARK                            x       y       z     vdW  Elec       q    Type
REMARK                         _______ _______ _______ _____ _____    ______ ____
ROOT
ATOM      1  C   UNL     1      -2.530  -1.111  -0.264  0.00  0.00    +0.166 A 
ATOM      2  C   UNL     1      -1.239  -1.618  -0.262  0.00  0.00    +0.050 A 
ATOM      3  C   UNL     1      -1.033  -2.982  -0.200  0.00  0.00    +0.010 A 
ATOM      4  C   UNL     1      -2.110  -3.853  -0.139  0.00  0.00    -0.002 A 
ATOM      5  C   UNL     1      -3.401  -3.355  -0.138  0.00  0.00    +0.169 A 
ATOM      6  C   UNL     1      -3.611  -1.979  -0.197  0.00  0.00    +0.204 A 
ATOM      7  O   UNL     1      -4.484  -4.174  -0.068  0.00  0.00    -0.482 OA
ATOM      8  C   UNL     1      -4.296  -5.557  -0.371  0.00  0.00    +0.105 C 
ATOM      9  C   UNL     1      -3.087  -6.066   0.424  0.00  0.00    +0.050 C 
ATOM     10  C   UNL     1      -1.840  -5.335  -0.078  0.00  0.00    +0.066 C 
ATOM     11  C   UNL     1      -4.037  -5.726  -1.869  0.00  0.00    +0.055 C 
ATOM     12  C   UNL     1      -5.545  -6.346   0.029  0.00  0.00    +0.055 C 
ENDROOT
BRANCH  10  13
ATOM     13  N   UNL     1      -0.721  -5.590   0.839  0.00  0.00    +0.392 N 
ATOM     14  H   UNL     1      -0.958  -5.253   1.760  0.00  0.00    -0.088 HD
ATOM     15  H   UNL     1      -0.540  -6.582   0.880  0.00  0.00    -0.088 HD
ATOM     16  H   UNL     1       0.102  -5.111   0.507  0.00  0.00    -0.088 HD
ENDBRANCH  10  13
BRANCH  10  17
ATOM     17  C   UNL     1      -1.484  -5.837  -1.454  0.00  0.00    +0.349 C 
ATOM     18  O   UNL     1      -1.406  -5.055  -2.387  0.00  0.00    -0.248 OA
ATOM     19  O   UNL     1      -1.273  -7.024  -1.634  0.00  0.00    -0.248 OA
ENDBRANCH  10  17
BRANCH   1  20
ATOM     20  O   UNL     1      -2.735   0.232  -0.327  0.00  0.00    -0.488 OA
BRANCH  20  22
ATOM     21  C   UNL     1      -2.002   2.531  -0.457  0.00  0.00    +0.048 C 
ATOM     22  C   UNL     1      -1.575   1.063  -0.394  0.00  0.00    +0.226 C 
ENDBRANCH  20  22
ENDBRANCH   1  20
BRANCH   6  23
ATOM     23  O   UNL     1      -4.879  -1.484  -0.195  0.00  0.00    -0.485 OA
BRANCH  23  24
ATOM     24  C   UNL     1      -5.511  -1.313  -1.465  0.00  0.00    +0.226 C 
ATOM     25  C   UNL     1      -6.920  -0.752  -1.262  0.00  0.00    +0.048 C 
ENDBRANCH  23  24
ENDBRANCH   6  23
TORSDOF 6
