REMARK  Name = ZINC02280985
REMARK  11 active torsions:
REMARK  status: ('A' for Active; 'I' for Inactive)
REMARK    1  A    between atoms: C_1  and  C_2
REMARK    2  A    between atoms: C_2  and  O_3
REMARK    3  A    between atoms: O_3  and  C_4
REMARK    4  A    between atoms: C_4  and  C_6
REMARK    5  A    between atoms: C_6  and  C_7
REMARK    6  A    between atoms: C_6  and  N_11
REMARK    7  A    between atoms: C_6  and  N_24
REMARK    8  A    between atoms: N_11  and  C_12
REMARK    9  A    between atoms: C_13  and  C_21
REMARK   10  A    between atoms: N_27  and  C_28
REMARK   11  A    between atoms: N_27  and  C_29
REMARK                            x       y       z     vdW  Elec       q    Type
REMARK                         _______ _______ _______ _____ _____    ______ ____
ROOT
ATOM      1  C   UNL     1       1.290   2.063  -0.113  0.00  0.00    +0.297 C 
ENDROOT
BRANCH   1   2
ATOM      2  N   UNL     1       1.099   3.515  -0.059  0.00  0.00    -0.262 N 
ATOM      3  C   UNL     1       0.058   4.081  -0.700  0.00  0.00    +0.304 C 
ATOM      4  O   UNL     1      -0.776   3.382  -1.242  0.00  0.00    -0.253 OA
ATOM      5  N   UNL     1      -0.059   5.423  -0.741  0.00  0.00    -0.292 N 
ATOM      6  C   UNL     1      -1.191   6.039  -1.438  0.00  0.00    +0.133 C 
ATOM      7  C   UNL     1       0.946   6.266  -0.089  0.00  0.00    +0.133 C 
ATOM      8  H   UNL     1       1.722   4.068   0.438  0.00  0.00    +0.153 HD
ENDBRANCH   1   2
BRANCH   1   9
ATOM      9  C   UNL     1       1.840   1.672  -1.486  0.00  0.00    +0.438 C 
ATOM     10  F   UNL     1       0.883   1.949  -2.468  0.00  0.00    -0.166 F 
ATOM     11  F   UNL     1       3.003   2.403  -1.748  0.00  0.00    -0.166 F 
ATOM     12  F   UNL     1       2.137   0.304  -1.497  0.00  0.00    -0.166 F 
ENDBRANCH   1   9
BRANCH   1  13
ATOM     13  C   UNL     1       2.266   1.645   0.957  0.00  0.00    +0.359 C 
ATOM     14  O   UNL     1       2.031   0.681   1.646  0.00  0.00    -0.246 OA
BRANCH  13  15
ATOM     15  O   UNL     1       3.397   2.344   1.144  0.00  0.00    -0.462 OA
BRANCH  15  17
ATOM     16  C   UNL     1       5.516   2.798   2.255  0.00  0.00    +0.048 C 
ATOM     17  C   UNL     1       4.291   1.884   2.192  0.00  0.00    +0.229 C 
ENDBRANCH  15  17
ENDBRANCH  13  15
ENDBRANCH   1  13
BRANCH   1  18
ATOM     18  N   UNL     1       0.007   1.393   0.108  0.00  0.00    -0.301 N 
ATOM     19  H   UNL     1      -0.380   0.843  -0.591  0.00  0.00    +0.149 HD
BRANCH  18  20
ATOM     20  C   UNL     1      -0.650   1.539   1.315  0.00  0.00    +0.080 A 
ATOM     21  C   UNL     1      -1.899   1.053   1.683  0.00  0.00    +0.068 A 
ATOM     22  C   UNL     1      -2.362   1.347   3.030  0.00  0.00    -0.023 A 
ATOM     23  C   UNL     1      -1.517   2.082   3.782  0.00  0.00    -0.005 A 
ATOM     24  S   UNL     1      -0.120   2.379   2.735  0.00  0.00    -0.078 S 
ATOM     25  C   UNL     1      -1.727   2.540   5.192  0.00  0.00    +0.043 C 
ATOM     26  C   UNL     1      -3.213   2.369   5.540  0.00  0.00    +0.005 C 
ATOM     27  C   UNL     1      -3.662   0.969   5.111  0.00  0.00    +0.005 C 
ATOM     28  C   UNL     1      -3.703   0.881   3.584  0.00  0.00    +0.037 C 
BRANCH  21  29
ATOM     29  C   UNL     1      -2.715   0.272   0.752  0.00  0.00    +0.244 C 
ATOM     30  O   UNL     1      -2.606  -0.940   0.716  0.00  0.00    -0.270 OA
ATOM     31  N   UNL     1      -3.587   0.894  -0.066  0.00  0.00    -0.325 N 
ATOM     32  H   UNL     1      -3.673   1.860  -0.038  0.00  0.00    +0.145 HD
ATOM     33  H   UNL     1      -4.127   0.377  -0.683  0.00  0.00    +0.145 HD
ENDBRANCH  21  29
ENDBRANCH  18  20
ENDBRANCH   1  18
TORSDOF 8
