REMARK  Name = ZINC40113339
REMARK  7 active torsions:
REMARK  status: ('A' for Active; 'I' for Inactive)
REMARK    1  A    between atoms: C_1  and  N_2
REMARK    2  A    between atoms: C_3  and  C_5
REMARK    3  A    between atoms: C_9  and  N_10
REMARK    4  A    between atoms: C_11  and  C_13
REMARK    5  A    between atoms: C_13  and  C_26
REMARK    6  A    between atoms: C_14  and  C_15
REMARK    7  A    between atoms: N_24  and  C_25
REMARK                            x       y       z     vdW  Elec       q    Type
REMARK                         _______ _______ _______ _____ _____    ______ ____
ROOT
ATOM      1  N   UNL     1       2.633  -2.315   0.474  0.00  0.00    -0.275 N 
ATOM      2  C   UNL     1       3.562  -3.162   0.960  0.00  0.00    +0.259 C 
ATOM      3  O   UNL     1       3.317  -4.351   1.044  0.00  0.00    -0.269 OA
ATOM      4  H   UNL     1       2.828  -1.368   0.406  0.00  0.00    +0.156 HD
ENDROOT
BRANCH   1   9
ATOM      5  C   UNL     1       0.332  -2.082  -0.449  0.00  0.00    +0.069 A 
ATOM      6  C   UNL     1      -0.861  -2.832  -0.803  0.00  0.00    -0.023 A 
ATOM      7  C   UNL     1      -0.771  -4.159  -0.567  0.00  0.00    -0.004 A 
ATOM      8  S   UNL     1       0.851  -4.386   0.102  0.00  0.00    -0.077 S 
ATOM      9  C   UNL     1       1.399  -2.799   0.070  0.00  0.00    +0.085 A 
ATOM     10  C   UNL     1      -1.824  -5.192  -0.821  0.00  0.00    +0.043 C 
ATOM     11  C   UNL     1      -3.163  -4.471  -1.040  0.00  0.00    +0.005 C 
ATOM     12  C   UNL     1      -2.954  -3.329  -2.038  0.00  0.00    +0.005 C 
ATOM     13  C   UNL     1      -2.123  -2.218  -1.391  0.00  0.00    +0.037 C 
BRANCH   5  16
ATOM     14  C   UNL     1       0.098   1.650   0.162  0.00  0.00    +0.128 C 
ATOM     15  N   UNL     1       0.024   0.199   0.352  0.00  0.00    -0.314 N 
ATOM     16  C   UNL     1       0.406  -0.631  -0.639  0.00  0.00    +0.246 C 
ATOM     17  O   UNL     1       0.813  -0.175  -1.692  0.00  0.00    -0.270 OA
ATOM     18  H   UNL     1      -0.301  -0.164   1.190  0.00  0.00    +0.149 HD
ENDBRANCH   5  16
ENDBRANCH   1   9
BRANCH   2  19
ATOM     19  C   UNL     1       4.872  -2.649   1.388  0.00  0.00    +0.114 C 
ATOM     20  C   UNL     1       5.822  -3.516   1.885  0.00  0.00    +0.032 C 
BRANCH  20  21
ATOM     21  C   UNL     1       7.059  -2.990   2.466  0.00  0.00    -0.023 A 
ATOM     22  C   UNL     1       7.046  -1.775   3.167  0.00  0.00    +0.010 A 
ATOM     23  C   UNL     1       8.204  -1.292   3.703  0.00  0.00    +0.024 A 
ATOM     24  C   UNL     1       9.397  -2.002   3.558  0.00  0.00    +0.033 A 
ATOM     25  C   UNL     1       9.416  -3.209   2.869  0.00  0.00    -0.026 A 
ATOM     26  C   UNL     1       8.258  -3.703   2.330  0.00  0.00    +0.013 A 
ATOM     27  C   UNL     1      10.686  -4.002   2.706  0.00  0.00    +0.038 C 
ATOM     28  C   UNL     1      11.906  -3.105   2.911  0.00  0.00    +0.024 C 
ATOM     29  C   UNL     1      11.744  -2.343   4.233  0.00  0.00    +0.105 C 
ATOM     30  N   UNL     1      10.562  -1.479   4.112  0.00  0.00    -0.333 N 
ATOM     31  C   UNL     1      10.610  -0.087   4.567  0.00  0.00    +0.129 C 
ENDBRANCH  20  21
BRANCH  19  32
ATOM     32  C   UNL     1       5.160  -1.250   1.288  0.00  0.00    +0.104 C 
ATOM     33  N   UNL     1       5.389  -0.140   1.209  0.00  0.00    -0.191 NA
ENDBRANCH  19  32
ENDBRANCH   2  19
TORSDOF 5
