REMARK  Name = ZINC08346001
REMARK  11 active torsions:
REMARK  status: ('A' for Active; 'I' for Inactive)
REMARK    1  A    between atoms: C_1  and  C_2
REMARK    2  A    between atoms: C_2  and  C_3
REMARK    3  A    between atoms: C_3  and  S_4
REMARK    4  A    between atoms: S_4  and  C_5
REMARK    5  A    between atoms: C_14  and  C_31
REMARK    6  A    between atoms: C_15  and  C_25
REMARK    7  A    between atoms: C_16  and  C_18
REMARK    8  A    between atoms: C_25  and  O_27
REMARK    9  A    between atoms: O_27  and  C_28
REMARK   10  A    between atoms: C_28  and  C_29
REMARK   11  A    between atoms: C_28  and  C_30
REMARK                            x       y       z     vdW  Elec       q    Type
REMARK                         _______ _______ _______ _____ _____    ______ ____
ROOT
ATOM      1  C   UNL     1      -2.448   6.610  -3.405  0.00  0.00    +0.171 A 
ATOM      2  N   UNL     1      -1.171   6.181  -3.608  0.00  0.00    -0.302 N 
ATOM      3  H   UNL     1      -0.817   6.092  -4.538  0.00  0.00    +0.171 HD
ATOM      4  C   UNL     1      -0.385   5.875  -2.555  0.00  0.00    +0.258 A 
ATOM      5  O   UNL     1       0.760   5.487  -2.726  0.00  0.00    -0.267 OA
ATOM      6  C   UNL     1      -0.905   6.010  -1.263  0.00  0.00    +0.069 A 
ATOM      7  C   UNL     1      -2.207   6.455  -1.111  0.00  0.00    +0.135 A 
ATOM      8  N   UNL     1      -2.943   6.740  -2.191  0.00  0.00    -0.208 NA
ATOM      9  N   UNL     1      -2.745   6.603   0.155  0.00  0.00    -0.302 N 
ATOM     10  C   UNL     1      -1.925   6.665   1.246  0.00  0.00    +0.017 C 
ATOM     11  C   UNL     1      -0.651   6.245   1.187  0.00  0.00    +0.065 C 
ATOM     12  C   UNL     1      -0.058   5.676  -0.069  0.00  0.00    +0.096 C 
ATOM     13  C   UNL     1      -2.461   7.216   2.542  0.00  0.00    +0.061 C 
ATOM     14  H   UNL     1      -3.707   6.662   0.268  0.00  0.00    +0.153 HD
ENDROOT
BRANCH  12  15
ATOM     15  C   UNL     1       0.042   4.178   0.065  0.00  0.00    -0.035 A 
ATOM     16  C   UNL     1       1.274   3.557  -0.019  0.00  0.00    +0.007 A 
ATOM     17  C   UNL     1       1.366   2.184   0.102  0.00  0.00    +0.038 A 
ATOM     18  C   UNL     1       0.223   1.429   0.308  0.00  0.00    +0.123 A 
ATOM     19  C   UNL     1      -1.011   2.052   0.387  0.00  0.00    +0.038 A 
ATOM     20  C   UNL     1      -1.100   3.426   0.270  0.00  0.00    +0.007 A 
ATOM     21  F   UNL     1       0.312   0.086   0.426  0.00  0.00    -0.205 F 
ENDBRANCH  12  15
BRANCH  11  22
ATOM     22  C   UNL     1       0.156   6.341   2.343  0.00  0.00    +0.338 C 
ATOM     23  O   UNL     1       0.935   7.268   2.465  0.00  0.00    -0.245 OA
BRANCH  22  24
ATOM     24  O   UNL     1       0.063   5.406   3.312  0.00  0.00    -0.459 OA
BRANCH  24  25
ATOM     25  C   UNL     1       0.909   5.567   4.452  0.00  0.00    +0.171 C 
ATOM     26  C   UNL     1       0.184   6.401   5.511  0.00  0.00    +0.052 C 
ATOM     27  C   UNL     1       1.250   4.192   5.031  0.00  0.00    +0.052 C 
ENDBRANCH  24  25
ENDBRANCH  22  24
ENDBRANCH  11  22
BRANCH   1  28
ATOM     28  S   UNL     1      -3.459   6.999  -4.795  0.00  0.00    -0.088 S 
BRANCH  28  29
ATOM     29  C   UNL     1      -4.981   7.491  -3.948  0.00  0.00    +0.077 C 
BRANCH  29  31
ATOM     30  C   UNL     1      -7.323   8.300  -4.269  0.00  0.00    +0.004 C 
ATOM     31  C   UNL     1      -6.037   7.884  -4.984  0.00  0.00    +0.008 C 
ENDBRANCH  29  31
ENDBRANCH  28  29
ENDBRANCH   1  28
TORSDOF 7
