REMARK  Name = ZINC15424581
REMARK  6 active torsions:
REMARK  status: ('A' for Active; 'I' for Inactive)
REMARK    1  A    between atoms: C_1  and  O_2
REMARK    2  A    between atoms: O_2  and  C_3
REMARK    3  A    between atoms: C_8  and  O_9
REMARK    4  A    between atoms: O_9  and  C_10
REMARK    5  A    between atoms: N_13  and  C_16
REMARK    6  A    between atoms: N_24  and  N_25
REMARK                            x       y       z     vdW  Elec       q    Type
REMARK                         _______ _______ _______ _____ _____    ______ ____
ROOT
ATOM      1  C   UNL     1       0.484   7.488  -1.071  0.00  0.00    +0.162 A 
ATOM      2  C   UNL     1       0.014   6.656  -2.065  0.00  0.00    +0.064 A 
ATOM      3  C   UNL     1      -0.518   5.410  -1.727  0.00  0.00    +0.069 A 
ATOM      4  C   UNL     1      -0.575   5.006  -0.373  0.00  0.00    +0.083 A 
ATOM      5  C   UNL     1      -0.095   5.862   0.619  0.00  0.00    +0.078 A 
ATOM      6  C   UNL     1       0.429   7.091   0.269  0.00  0.00    +0.164 A 
ATOM      7  N   UNL     1      -1.096   3.792  -0.069  0.00  0.00    -0.214 NA
ATOM      8  C   UNL     1      -1.546   2.988  -0.998  0.00  0.00    +0.217 A 
ATOM      9  N   UNL     1      -1.523   3.300  -2.328  0.00  0.00    -0.248 N 
ATOM     10  C   UNL     1      -1.030   4.488  -2.747  0.00  0.00    +0.268 A 
ATOM     11  O   UNL     1      -1.009   4.780  -3.929  0.00  0.00    -0.267 OA
ATOM     12  N   UNL     1      -2.060   1.772  -0.619  0.00  0.00    -0.253 N 
ATOM     13  H   UNL     1      -2.410   1.164  -1.288  0.00  0.00    +0.169 HD
ENDROOT
BRANCH   9  14
ATOM     14  C   UNL     1      -2.019   2.383  -3.266  0.00  0.00    +0.054 A 
ATOM     15  C   UNL     1      -3.358   2.418  -3.631  0.00  0.00    +0.029 A 
ATOM     16  C   UNL     1      -3.844   1.518  -4.559  0.00  0.00    +0.042 A 
ATOM     17  C   UNL     1      -2.999   0.574  -5.118  0.00  0.00    +0.142 A 
ATOM     18  C   UNL     1      -1.663   0.533  -4.750  0.00  0.00    +0.078 A 
ATOM     19  C   UNL     1      -1.173   1.436  -3.826  0.00  0.00    +0.049 A 
ATOM     20 CL   UNL     1      -0.606  -0.651  -5.452  0.00  0.00    -0.081 Cl
ATOM     21  F   UNL     1      -3.477  -0.309  -6.021  0.00  0.00    -0.204 F 
ENDBRANCH   9  14
BRANCH  12  22
ATOM     22  N   UNL     1      -2.078   1.420   0.701  0.00  0.00    -0.254 NA
ATOM     23  H   UNL     1      -2.483   0.504   0.825  0.00  0.00    +0.140 HD
ATOM     24  H   UNL     1      -1.153   1.463   1.100  0.00  0.00    +0.140 HD
ENDBRANCH  12  22
BRANCH   1  26
ATOM     25  C   UNL     1       1.031   9.047  -2.782  0.00  0.00    +0.277 C 
ATOM     26  O   UNL     1       1.004   8.702  -1.395  0.00  0.00    -0.491 OA
ENDBRANCH   1  26
BRANCH   6  27
ATOM     27  O   UNL     1       0.896   7.923   1.236  0.00  0.00    -0.491 OA
ATOM     28  C   UNL     1       0.812   7.460   2.586  0.00  0.00    +0.277 C 
ENDBRANCH   6  27
TORSDOF 4
