REMARK  Name = ZINC67540217
REMARK  1 active torsions:
REMARK  status: ('A' for Active; 'I' for Inactive)
REMARK    1  A    between atoms: C_7  and  N_11
REMARK                            x       y       z     vdW  Elec       q    Type
REMARK                         _______ _______ _______ _____ _____    ______ ____
ROOT
ATOM      1  N   UNL     1      -2.321  -0.695   0.021  0.00  0.00    -0.315 N 
ATOM      2  C   UNL     1      -2.761   0.702   0.137  0.00  0.00    +0.107 C 
ATOM      3  C   UNL     1      -3.745   0.815   1.304  0.00  0.00    +0.026 C 
ATOM      4  C   UNL     1      -4.897  -0.180   1.092  0.00  0.00    -0.025 C 
ATOM      5  C   UNL     1      -5.874  -0.051   2.253  0.00  0.00    +0.016 C 
ATOM      6  C   UNL     1      -6.946  -1.138   2.193  0.00  0.00    +0.096 C 
ATOM      7  C   UNL     1      -8.062  -0.666   1.284  0.00  0.00    +0.213 C 
ATOM      8  O   UNL     1      -9.135  -0.351   1.755  0.00  0.00    -0.276 OA
ATOM      9  N   UNL     1      -7.865  -0.597  -0.032  0.00  0.00    -0.315 N 
ATOM     10  C   UNL     1      -6.567  -0.984  -0.609  0.00  0.00    +0.104 C 
ATOM     11  C   UNL     1      -5.536   0.087  -0.263  0.00  0.00    +0.026 C 
ATOM     12  C   UNL     1      -4.316  -1.603   1.092  0.00  0.00    +0.026 C 
ATOM     13  C   UNL     1      -3.340  -1.747  -0.085  0.00  0.00    +0.107 C 
ATOM     14  H   UNL     1      -8.580  -0.291  -0.612  0.00  0.00    +0.149 HD
ENDROOT
BRANCH   1  21
ATOM     15  C   UNL     1      -0.594  -0.864  -2.611  0.00  0.00    +0.032 A 
ATOM     16  C   UNL     1       0.535  -1.068  -3.309  0.00  0.00    +0.085 A 
ATOM     17  N   UNL     1       1.559  -1.387  -2.454  0.00  0.00    -0.346 N 
ATOM     18  H   UNL     1       2.470  -1.578  -2.725  0.00  0.00    +0.167 HD
ATOM     19  C   UNL     1       1.106  -1.397  -1.164  0.00  0.00    +0.143 A 
ATOM     20  C   UNL     1      -0.263  -1.070  -1.202  0.00  0.00    +0.059 A 
ATOM     21  C   UNL     1      -0.974  -1.012   0.006  0.00  0.00    +0.134 A 
ATOM     22  N   UNL     1      -0.322  -1.268   1.136  0.00  0.00    -0.220 NA
ATOM     23  C   UNL     1       0.964  -1.571   1.126  0.00  0.00    +0.225 A 
ATOM     24  N   UNL     1       1.670  -1.638   0.018  0.00  0.00    -0.218 NA
ENDBRANCH   1  21
TORSDOF 1
