REMARK  Name = ZINC01051741
REMARK  6 active torsions:
REMARK  status: ('A' for Active; 'I' for Inactive)
REMARK    1  A    between atoms: C_1  and  C_2
REMARK    2  A    between atoms: C_5  and  N_9
REMARK    3  A    between atoms: N_9  and  C_10
REMARK    4  A    between atoms: C_10  and  C_11
REMARK    5  A    between atoms: N_13  and  N_14
REMARK    6  A    between atoms: C_15  and  C_16
REMARK                            x       y       z     vdW  Elec       q    Type
REMARK                         _______ _______ _______ _____ _____    ______ ____
ROOT
ATOM      1  C   UNL     1       5.600  -1.236  -1.319  0.00  0.00    +0.249 C 
ATOM      2  O   UNL     1       5.857  -1.978  -0.394  0.00  0.00    -0.272 OA
ATOM      3  N   UNL     1       6.432  -1.166  -2.378  0.00  0.00    -0.206 N 
ATOM      4  H   UNL     1       6.227  -0.573  -3.117  0.00  0.00    +0.177 HD
ENDROOT
BRANCH   3   5
ATOM      5  N   UNL     1       7.593  -1.950  -2.409  0.00  0.00    -0.188 NA
ATOM      6  C   UNL     1       8.394  -1.883  -3.428  0.00  0.00    +0.138 C 
BRANCH   6   7
ATOM      7  C   UNL     1       9.615  -2.708  -3.462  0.00  0.00    -0.005 A 
ATOM      8  C   UNL     1       9.916  -3.559  -2.395  0.00  0.00    +0.012 A 
ATOM      9  C   UNL     1      11.058  -4.331  -2.434  0.00  0.00    +0.039 A 
ATOM     10  C   UNL     1      11.911  -4.257  -3.524  0.00  0.00    +0.123 A 
ATOM     11  C   UNL     1      11.621  -3.411  -4.582  0.00  0.00    +0.039 A 
ATOM     12  C   UNL     1      10.479  -2.637  -4.557  0.00  0.00    +0.012 A 
ATOM     13  F   UNL     1      13.031  -5.013  -3.554  0.00  0.00    -0.205 F 
ENDBRANCH   6   7
ENDBRANCH   3   5
BRANCH   1  14
ATOM     14  C   UNL     1       4.352  -0.393  -1.285  0.00  0.00    +0.199 C 
BRANCH  14  15
ATOM     15  N   UNL     1       3.622  -0.650  -0.037  0.00  0.00    -0.334 N 
ATOM     16  H   UNL     1       4.180  -0.402   0.766  0.00  0.00    +0.147 HD
BRANCH  15  21
ATOM     17  C   UNL     1      -1.343   2.094   0.009  0.00  0.00    +0.044 C 
ATOM     18  C   UNL     1      -0.025   1.363   0.002  0.00  0.00    -0.048 A 
ATOM     19  C   UNL     1       1.123   2.008   0.424  0.00  0.00    +0.020 A 
ATOM     20  C   UNL     1       2.334   1.343   0.413  0.00  0.00    +0.040 A 
ATOM     21  C   UNL     1       2.398   0.026  -0.024  0.00  0.00    +0.056 A 
ATOM     22  C   UNL     1       1.242  -0.619  -0.448  0.00  0.00    +0.040 A 
ATOM     23  C   UNL     1       0.034   0.052  -0.433  0.00  0.00    +0.020 A 
ATOM     24 BR   UNL     1       1.323  -2.412  -1.044  0.00  0.00    -0.048 Br
ATOM     25 BR   UNL     1       3.904   2.225   0.992  0.00  0.00    -0.048 Br
ENDBRANCH  15  21
ENDBRANCH  14  15
ENDBRANCH   1  14
TORSDOF 5
