REMARK  Name = ZINC48933851
REMARK  8 active torsions:
REMARK  status: ('A' for Active; 'I' for Inactive)
REMARK    1  A    between atoms: C_1  and  C_2
REMARK    2  A    between atoms: C_5  and  N_9
REMARK    3  A    between atoms: C_6  and  C_8
REMARK    4  A    between atoms: C_10  and  C_12
REMARK    5  A    between atoms: N_14  and  C_15
REMARK    6  A    between atoms: C_15  and  C_16
REMARK    7  A    between atoms: C_16  and  C_17
REMARK    8  A    between atoms: C_17  and  N_18
REMARK                            x       y       z     vdW  Elec       q    Type
REMARK                         _______ _______ _______ _____ _____    ______ ____
ROOT
ATOM      1  C   UNL     1      -0.133  -6.327  -1.187  0.00  0.00    +0.299 C 
ATOM      2  O   UNL     1      -0.119  -6.936  -0.137  0.00  0.00    -0.265 OA
ATOM      3  N   UNL     1      -0.232  -6.996  -2.353  0.00  0.00    -0.308 N 
ATOM      4  H   UNL     1      -0.243  -6.510  -3.192  0.00  0.00    +0.149 HD
ENDROOT
BRANCH   1   6
ATOM      5  N   UNL     1       0.059  -4.168  -0.021  0.00  0.00    -0.278 N 
ATOM      6  C   UNL     1      -0.040  -4.837  -1.187  0.00  0.00    +0.303 C 
ATOM      7  O   UNL     1      -0.054  -4.228  -2.237  0.00  0.00    -0.265 OA
ATOM      8  H   UNL     1       0.135  -4.657   0.814  0.00  0.00    +0.155 HD
BRANCH   5  13
ATOM      9  C   UNL     1       0.024   1.503   0.005  0.00  0.00    +0.044 C 
ATOM     10  C   UNL     1       0.033  -0.004  -0.002  0.00  0.00    -0.050 A 
ATOM     11  C   UNL     1       0.631  -0.685  -1.046  0.00  0.00    +0.005 A 
ATOM     12  C   UNL     1       0.642  -2.066  -1.056  0.00  0.00    +0.024 A 
ATOM     13  C   UNL     1       0.051  -2.771  -0.014  0.00  0.00    +0.037 A 
ATOM     14  C   UNL     1      -0.549  -2.083   1.033  0.00  0.00    -0.029 A 
ATOM     15  C   UNL     1      -0.551  -0.702   1.039  0.00  0.00    +0.008 A 
ATOM     16  C   UNL     1      -1.191  -2.843   2.165  0.00  0.00    +0.045 C 
ENDBRANCH   5  13
ENDBRANCH   1   6
BRANCH   3  17
ATOM     17  C   UNL     1      -0.323  -8.458  -2.353  0.00  0.00    +0.106 C 
BRANCH  17  18
ATOM     18  C   UNL     1      -0.425  -8.963  -3.794  0.00  0.00    +0.038 C 
BRANCH  18  19
ATOM     19  C   UNL     1      -0.520 -10.490  -3.794  0.00  0.00    +0.119 C 
BRANCH  19  20
ATOM     20  N   UNL     1      -0.618 -10.973  -5.174  0.00  0.00    -0.224 N 
ATOM     21  C   UNL     1      -1.782 -11.149  -5.836  0.00  0.00    +0.246 C 
ATOM     22  O   UNL     1      -2.903 -10.946  -5.420  0.00  0.00    -0.273 OA
ATOM     23  C   UNL     1      -1.391 -11.651  -7.202  0.00  0.00    +0.113 C 
ATOM     24  C   UNL     1      -1.879 -10.697  -8.301  0.00  0.00    +0.035 C 
ATOM     25  C   UNL     1      -2.245 -11.638  -9.478  0.00  0.00    +0.003 C 
ATOM     26  C   UNL     1      -2.856 -12.868  -8.760  0.00  0.00    +0.003 C 
ATOM     27  C   UNL     1      -1.999 -13.027  -7.484  0.00  0.00    +0.035 C 
ATOM     28  N   UNL     1       0.072 -11.711  -7.165  0.00  0.00    -0.285 N 
ATOM     29  C   UNL     1       0.435 -11.289  -5.938  0.00  0.00    +0.309 C 
ATOM     30  O   UNL     1       1.589 -11.209  -5.564  0.00  0.00    -0.252 OA
ATOM     31  H   UNL     1       0.661 -11.994  -7.882  0.00  0.00    +0.151 HD
ENDBRANCH  19  20
ENDBRANCH  18  19
ENDBRANCH  17  18
ENDBRANCH   3  17
TORSDOF 6
