REMARK  Name = ZINC66398528
REMARK  7 active torsions:
REMARK  status: ('A' for Active; 'I' for Inactive)
REMARK    1  A    between atoms: C_1  and  C_2
REMARK    2  A    between atoms: C_7  and  C_8
REMARK    3  A    between atoms: C_8  and  C_10
REMARK    4  A    between atoms: C_8  and  N_12
REMARK    5  A    between atoms: C_13  and  C_15
REMARK    6  A    between atoms: N_17  and  C_24
REMARK    7  A    between atoms: C_20  and  C_23
REMARK                            x       y       z     vdW  Elec       q    Type
REMARK                         _______ _______ _______ _____ _____    ______ ____
ROOT
ATOM      1  C   UNL     1      -1.257  -1.194   5.843  0.00  0.00    +0.200 C 
ATOM      2  N   UNL     1      -1.212  -2.498   5.867  0.00  0.00    -0.152 NA
ATOM      3  N   UNL     1      -2.164  -3.236   6.578  0.00  0.00    -0.157 N 
ATOM      4  C   UNL     1      -2.958  -2.640   7.491  0.00  0.00    +0.259 C 
ATOM      5  O   UNL     1      -3.792  -3.286   8.090  0.00  0.00    -0.271 OA
ATOM      6  C   UNL     1      -2.798  -1.163   7.762  0.00  0.00    +0.157 C 
ATOM      7  N   UNL     1      -2.264  -0.530   6.550  0.00  0.00    -0.313 N 
ATOM      8  C   UNL     1      -1.824  -0.953   8.922  0.00  0.00    +0.038 C 
ATOM      9  H   UNL     1      -2.604   0.327   6.247  0.00  0.00    +0.148 HD
ENDROOT
BRANCH   3  10
ATOM     10  C   UNL     1      -2.295  -4.608   6.338  0.00  0.00    +0.060 A 
ATOM     11  C   UNL     1      -2.393  -5.080   5.035  0.00  0.00    +0.025 A 
ATOM     12  C   UNL     1      -2.522  -6.435   4.801  0.00  0.00    +0.002 A 
ATOM     13  C   UNL     1      -2.553  -7.322   5.863  0.00  0.00    +0.000 A 
ATOM     14  C   UNL     1      -2.456  -6.854   7.161  0.00  0.00    +0.002 A 
ATOM     15  C   UNL     1      -2.321  -5.501   7.401  0.00  0.00    +0.025 A 
ENDBRANCH   3  10
BRANCH   1  17
ATOM     16  N   UNL     1       0.714  -1.076   4.402  0.00  0.00    -0.290 N 
ATOM     17  C   UNL     1      -0.253  -0.429   5.081  0.00  0.00    +0.280 C 
ATOM     18  O   UNL     1      -0.298   0.786   5.066  0.00  0.00    -0.267 OA
ATOM     19  H   UNL     1       0.750  -2.046   4.414  0.00  0.00    +0.151 HD
BRANCH  16  20
ATOM     20  C   UNL     1       1.712  -0.316   3.646  0.00  0.00    +0.207 C 
BRANCH  20  27
ATOM     21  C   UNL     1       2.720   0.974   1.265  0.00  0.00    +0.044 C 
ATOM     22  C   UNL     1       2.690  -0.530   1.351  0.00  0.00    -0.045 A 
ATOM     23  C   UNL     1       3.150  -1.293   0.294  0.00  0.00    +0.004 A 
ATOM     24  C   UNL     1       3.122  -2.672   0.373  0.00  0.00    +0.000 A 
ATOM     25  C   UNL     1       2.635  -3.290   1.510  0.00  0.00    +0.000 A 
ATOM     26  C   UNL     1       2.176  -2.527   2.568  0.00  0.00    +0.007 A 
ATOM     27  C   UNL     1       2.208  -1.147   2.490  0.00  0.00    -0.010 A 
ENDBRANCH  20  27
BRANCH  20  28
ATOM     28  C   UNL     1       2.842   0.023   4.526  0.00  0.00    +0.090 C 
ATOM     29  N   UNL     1       3.714   0.285   5.206  0.00  0.00    -0.194 NA
ENDBRANCH  20  28
ENDBRANCH  16  20
ENDBRANCH   1  17
TORSDOF 5
