REMARK  Name = ZINC39536056
REMARK  8 active torsions:
REMARK  status: ('A' for Active; 'I' for Inactive)
REMARK    1  A    between atoms: C_1  and  C_2
REMARK    2  A    between atoms: C_4  and  C_30
REMARK    3  A    between atoms: C_7  and  C_12
REMARK    4  A    between atoms: C_12  and  O_14
REMARK    5  A    between atoms: O_14  and  C_15
REMARK    6  A    between atoms: C_15  and  C_16
REMARK    7  A    between atoms: N_18  and  C_19
REMARK    8  A    between atoms: C_20  and  C_27
REMARK                            x       y       z     vdW  Elec       q    Type
REMARK                         _______ _______ _______ _____ _____    ______ ____
ROOT
ATOM      1  C   UNL     1       0.121  -6.632   5.841  0.00  0.00    +0.255 C 
ATOM      2  O   UNL     1       0.109  -5.511   6.304  0.00  0.00    -0.272 OA
ATOM      3  N   UNL     1       0.139  -7.701   6.662  0.00  0.00    -0.277 N 
ATOM      4  H   UNL     1       0.149  -8.597   6.291  0.00  0.00    +0.155 HD
ENDROOT
BRANCH   3   5
ATOM      5  C   UNL     1       0.144  -7.519   8.036  0.00  0.00    +0.084 A 
ATOM      6  C   UNL     1       0.167  -8.488   9.022  0.00  0.00    +0.068 A 
ATOM      7  C   UNL     1       0.168  -8.032  10.411  0.00  0.00    -0.023 A 
ATOM      8  C   UNL     1       0.143  -6.694  10.548  0.00  0.00    -0.004 A 
ATOM      9  S   UNL     1       0.130  -6.073   8.886  0.00  0.00    -0.077 S 
ATOM     10  C   UNL     1       0.141  -6.279  11.995  0.00  0.00    +0.043 C 
ATOM     11  C   UNL     1      -0.266  -7.554  12.766  0.00  0.00    +0.010 C 
ATOM     12  C   UNL     1       0.191  -8.666  11.800  0.00  0.00    +0.037 C 
BRANCH   6  13
ATOM     13  C   UNL     1       0.190  -9.916   8.688  0.00  0.00    +0.244 C 
ATOM     14  O   UNL     1       1.253 -10.490   8.543  0.00  0.00    -0.270 OA
ATOM     15  N   UNL     1      -0.967 -10.592   8.542  0.00  0.00    -0.325 N 
ATOM     16  H   UNL     1      -1.814 -10.134   8.657  0.00  0.00    +0.145 HD
ATOM     17  H   UNL     1      -0.952 -11.537   8.321  0.00  0.00    +0.145 HD
ENDBRANCH   6  13
ENDBRANCH   3   5
BRANCH   1  18
ATOM     18  C   UNL     1       0.116  -6.830   4.347  0.00  0.00    +0.328 C 
BRANCH  18  19
ATOM     19  O   UNL     1       0.096  -5.556   3.698  0.00  0.00    -0.451 OA
BRANCH  19  20
ATOM     20  C   UNL     1       0.089  -5.556   2.350  0.00  0.00    +0.356 C 
ATOM     21  O   UNL     1       0.100  -6.609   1.742  0.00  0.00    -0.243 OA
BRANCH  20  28
ATOM     22  C   UNL     1      -0.018   1.503   0.010  0.00  0.00    +0.044 C 
ATOM     23  C   UNL     1       0.002  -0.004   0.002  0.00  0.00    -0.048 A 
ATOM     24  C   UNL     1       0.006  -0.685  -1.209  0.00  0.00    +0.007 A 
ATOM     25  C   UNL     1       0.024  -2.049  -1.239  0.00  0.00    -0.041 A 
ATOM     26  C   UNL     1       0.040  -2.772  -0.039  0.00  0.00    +0.003 A 
ATOM     27  C   UNL     1       0.060  -4.155   0.262  0.00  0.00    +0.043 A 
ATOM     28  C   UNL     1       0.069  -4.284   1.615  0.00  0.00    +0.125 A 
ATOM     29  N   UNL     1       0.055  -3.028   2.190  0.00  0.00    -0.349 N 
ATOM     30  H   UNL     1       0.057  -2.842   3.142  0.00  0.00    +0.166 HD
ATOM     31  C   UNL     1       0.037  -2.084   1.190  0.00  0.00    +0.048 A 
ATOM     32  C   UNL     1       0.023  -0.692   1.194  0.00  0.00    +0.029 A 
ATOM     33  C   UNL     1       0.027  -2.776  -2.559  0.00  0.00    +0.044 C 
ENDBRANCH  20  28
ENDBRANCH  19  20
ENDBRANCH  18  19
ENDBRANCH   1  18
TORSDOF 6
