REMARK  Name = ZINC11771340
REMARK  8 active torsions:
REMARK  status: ('A' for Active; 'I' for Inactive)
REMARK    1  A    between atoms: C_4  and  C_7
REMARK    2  A    between atoms: C_7  and  C_8
REMARK    3  A    between atoms: C_8  and  C_9
REMARK    4  A    between atoms: C_9  and  N_10
REMARK    5  A    between atoms: C_14  and  C_17
REMARK    6  A    between atoms: C_14  and  O_28
REMARK    7  A    between atoms: C_17  and  N_61
REMARK    8  A    between atoms: N_20  and  C_23
REMARK                            x       y       z     vdW  Elec       q    Type
REMARK                         _______ _______ _______ _____ _____    ______ ____
ROOT
ATOM      1  N   UNL     1      -0.270   3.751  -0.190  0.00  0.00    -0.299 N 
ATOM      2  C   UNL     1       0.292   3.104  -1.369  0.00  0.00    +0.108 C 
ATOM      3  C   UNL     1       0.029   1.599  -1.331  0.00  0.00    +0.022 C 
ATOM      4  C   UNL     1       0.478   1.056   0.031  0.00  0.00    +0.044 C 
ATOM      5  C   UNL     1      -0.451   1.623   1.108  0.00  0.00    +0.127 C 
ATOM      6  C   UNL     1      -0.589   3.108   0.934  0.00  0.00    +0.245 C 
ATOM      7  O   UNL     1      -1.012   3.758   1.866  0.00  0.00    -0.273 OA
ENDROOT
BRANCH   5   8
ATOM      8  O   UNL     1      -1.738   1.011   0.994  0.00  0.00    -0.381 OA
ATOM      9  H   UNL     1      -2.168   1.155   0.140  0.00  0.00    +0.211 HD
ENDBRANCH   5   8
BRANCH   1  10
ATOM     10  C   UNL     1      -0.499   5.197  -0.243  0.00  0.00    +0.108 C 
BRANCH  10  11
ATOM     11  C   UNL     1      -1.909   5.471  -0.770  0.00  0.00    +0.024 C 
BRANCH  11  12
ATOM     12  C   UNL     1      -2.147   6.981  -0.825  0.00  0.00    +0.036 C 
BRANCH  12  16
ATOM     13  C   UNL     1      -6.084   7.748  -2.296  0.00  0.00    +0.000 A 
ATOM     14  C   UNL     1      -5.870   7.597  -0.938  0.00  0.00    +0.000 A 
ATOM     15  C   UNL     1      -4.597   7.349  -0.462  0.00  0.00    +0.003 A 
ATOM     16  C   UNL     1      -3.536   7.252  -1.344  0.00  0.00    -0.047 A 
ATOM     17  C   UNL     1      -3.749   7.407  -2.701  0.00  0.00    +0.003 A 
ATOM     18  C   UNL     1      -5.024   7.651  -3.177  0.00  0.00    +0.000 A 
ENDBRANCH  12  16
ENDBRANCH  11  12
ENDBRANCH  10  11
ENDBRANCH   1  10
BRANCH   5  19
ATOM     19  C   UNL     1       0.131   1.323   2.490  0.00  0.00    -0.034 C 
BRANCH  19  25
ATOM     20  C   UNL     1      -0.869  -0.862   2.787  0.00  0.00    -0.059 C 
ATOM     21  C   UNL     1      -0.568  -2.362   2.830  0.00  0.00    +0.088 C 
ATOM     22  N   UNL     1       0.363  -2.640   3.933  0.00  0.00    -0.320 N 
ATOM     23  C   UNL     1       1.618  -1.896   3.760  0.00  0.00    +0.088 C 
ATOM     24  C   UNL     1       1.317  -0.396   3.716  0.00  0.00    -0.059 C 
ATOM     25  N   UNL     1       0.399  -0.127   2.590  0.00  0.00    +0.384 N 
ATOM     26  H   UNL     1       0.837  -0.446   1.718  0.00  0.00    -0.082 HD
BRANCH  22  27
ATOM     27  C   UNL     1       0.605  -4.004   4.049  0.00  0.00    +0.099 A 
ATOM     28  C   UNL     1      -0.462  -4.881   4.221  0.00  0.00    +0.042 A 
ATOM     29  C   UNL     1      -0.207  -6.236   4.335  0.00  0.00    +0.005 A 
ATOM     30  C   UNL     1       1.111  -6.670   4.273  0.00  0.00    +0.018 A 
ATOM     31  C   UNL     1       2.120  -5.744   4.101  0.00  0.00    +0.084 A 
ATOM     32  N   UNL     1       1.906  -4.407   3.979  0.00  0.00    -0.350 N 
ATOM     33  H   UNL     1       2.676  -3.741   3.843  0.00  0.00    +0.166 HD
ENDBRANCH  22  27
ENDBRANCH  19  25
ENDBRANCH   5  19
TORSDOF 8
