REMARK  Name = ZINC24020596
REMARK  5 active torsions:
REMARK  status: ('A' for Active; 'I' for Inactive)
REMARK    1  A    between atoms: C_1  and  N_2
REMARK    2  A    between atoms: C_8  and  N_13
REMARK    3  A    between atoms: C_14  and  C_16
REMARK    4  A    between atoms: C_16  and  O_17
REMARK    5  A    between atoms: O_17  and  C_18
REMARK                            x       y       z     vdW  Elec       q    Type
REMARK                         _______ _______ _______ _____ _____    ______ ____
ROOT
ATOM      1  N   UNL     1       2.088   4.346   0.005  0.00  0.00    -0.283 N 
ATOM      2  C   UNL     1       1.035   3.523   0.184  0.00  0.00    +0.255 C 
ATOM      3  O   UNL     1      -0.073   3.985   0.358  0.00  0.00    -0.272 OA
ATOM      4  H   UNL     1       3.104   3.931  -0.065  0.00  0.00    +0.155 HD
ENDROOT
BRANCH   1  12
ATOM      5  C   UNL     1       3.189  11.628   0.609  0.00  0.00    +0.142 C 
ATOM      6  N   UNL     1       2.736  10.256   0.369  0.00  0.00    -0.237 N 
ATOM      7  C   UNL     1       1.577   9.931  -0.231  0.00  0.00    +0.254 C 
ATOM      8  O   UNL     1       0.752  10.718  -0.652  0.00  0.00    -0.270 OA
ATOM      9  C   UNL     1       1.473   8.460  -0.292  0.00  0.00    +0.050 A 
ATOM     10  C   UNL     1       0.523   7.577  -0.786  0.00  0.00    +0.015 A 
ATOM     11  C   UNL     1       0.735   6.214  -0.689  0.00  0.00    +0.024 A 
ATOM     12  C   UNL     1       1.888   5.723  -0.090  0.00  0.00    +0.034 A 
ATOM     13  C   UNL     1       2.850   6.600   0.410  0.00  0.00    +0.037 A 
ATOM     14  C   UNL     1       2.648   7.965   0.312  0.00  0.00    +0.051 A 
ATOM     15  C   UNL     1       3.425   9.155   0.719  0.00  0.00    +0.254 C 
ATOM     16  O   UNL     1       4.504   9.141   1.276  0.00  0.00    -0.270 OA
ENDBRANCH   1  12
BRANCH   2  17
ATOM     17  C   UNL     1       1.235   2.030   0.169  0.00  0.00    +0.324 C 
BRANCH  17  18
ATOM     18  O   UNL     1      -0.019   1.379   0.379  0.00  0.00    -0.483 OA
BRANCH  18  19
ATOM     19  C   UNL     1      -0.015   0.022   0.394  0.00  0.00    +0.125 A 
ATOM     20  C   UNL     1       1.181  -0.668   0.203  0.00  0.00    +0.046 A 
ATOM     21  C   UNL     1       1.203  -2.032   0.221  0.00  0.00    +0.015 A 
ATOM     22  C   UNL     1       0.015  -2.744   0.420  0.00  0.00    +0.018 A 
ATOM     23  C   UNL     1       0.007  -4.208   0.438  0.00  0.00    +0.018 A 
ATOM     24  C   UNL     1      -1.178  -4.842   0.637  0.00  0.00    +0.092 A 
ATOM     25  C   UNL     1      -2.355  -4.087   0.818  0.00  0.00    +0.337 A 
ATOM     26  O   UNL     1      -3.411  -4.667   0.995  0.00  0.00    -0.245 OA
ATOM     27  O   UNL     1      -2.341  -2.745   0.801  0.00  0.00    -0.422 OA
ATOM     28  C   UNL     1      -1.197  -2.054   0.608  0.00  0.00    +0.143 A 
ATOM     29  C   UNL     1      -1.200  -0.667   0.593  0.00  0.00    +0.092 A 
ENDBRANCH  18  19
ENDBRANCH  17  18
ENDBRANCH   2  17
TORSDOF 4
