REMARK  Name = ZINC63376181
REMARK  6 active torsions:
REMARK  status: ('A' for Active; 'I' for Inactive)
REMARK    1  A    between atoms: C_1  and  O_2
REMARK    2  A    between atoms: O_2  and  C_3
REMARK    3  A    between atoms: C_3  and  C_4
REMARK    4  A    between atoms: C_4  and  N_5
REMARK    5  A    between atoms: C_10  and  C_28
REMARK    6  A    between atoms: C_28  and  C_29
REMARK                            x       y       z     vdW  Elec       q    Type
REMARK                         _______ _______ _______ _____ _____    ______ ____
ROOT
ATOM      1  N   UNL     1       1.401  -2.532  -0.162  0.00  0.00    -0.239 N 
ATOM      2  C   UNL     1       0.855  -2.664  -1.376  0.00  0.00    +0.227 C 
ATOM      3  O   UNL     1      -0.309  -2.459  -1.647  0.00  0.00    -0.275 OA
ATOM      4  C   UNL     1       1.914  -3.109  -2.358  0.00  0.00    +0.107 C 
ATOM      5  C   UNL     1       1.603  -4.546  -2.828  0.00  0.00    +0.072 C 
ATOM      6  N   UNL     1       2.243  -5.426  -1.814  0.00  0.00    -0.295 NA
ATOM      7  C   UNL     1       3.509  -4.743  -1.490  0.00  0.00    +0.136 C 
ATOM      8  C   UNL     1       3.191  -3.227  -1.480  0.00  0.00    +0.122 C 
ATOM      9  C   UNL     1       2.708  -2.812  -0.108  0.00  0.00    +0.228 C 
ATOM     10  O   UNL     1       3.398  -2.748   0.887  0.00  0.00    -0.275 OA
ATOM     11  C   UNL     1       4.583  -5.068  -2.490  0.00  0.00    +0.005 A 
ATOM     12  C   UNL     1       4.691  -4.902  -3.852  0.00  0.00    +0.027 A 
ATOM     13  C   UNL     1       5.837  -5.314  -4.511  0.00  0.00    +0.041 A 
ATOM     14  C   UNL     1       6.872  -5.892  -3.797  0.00  0.00    +0.022 A 
ATOM     15  C   UNL     1       6.766  -6.060  -2.432  0.00  0.00    +0.025 A 
ATOM     16  C   UNL     1       5.617  -5.648  -1.762  0.00  0.00    +0.039 A 
ATOM     17  N   UNL     1       5.279  -5.710  -0.407  0.00  0.00    -0.283 N 
ATOM     18  C   UNL     1       4.056  -5.199  -0.165  0.00  0.00    +0.243 C 
ATOM     19  O   UNL     1       3.504  -5.121   0.912  0.00  0.00    -0.273 OA
ATOM     20 CL   UNL     1       5.975  -5.106  -6.229  0.00  0.00    -0.084 Cl
ATOM     21  H   UNL     1       1.661  -5.516  -0.995  0.00  0.00    +0.124 HD
ATOM     22  H   UNL     1       5.858  -6.077   0.279  0.00  0.00    +0.155 HD
ENDROOT
BRANCH   1  23
ATOM     23  C   UNL     1       0.633  -2.108   1.011  0.00  0.00    +0.144 C 
BRANCH  23  24
ATOM     24  C   UNL     1       0.673  -0.582   1.123  0.00  0.00    +0.179 C 
BRANCH  24  26
ATOM     25  C   UNL     1      -0.017   1.425   0.010  0.00  0.00    +0.194 C 
ATOM     26  O   UNL     1       0.002  -0.004   0.002  0.00  0.00    -0.381 OA
ENDBRANCH  24  26
ENDBRANCH  23  24
ENDBRANCH   1  23
BRANCH   5  27
ATOM     27  C   UNL     1       0.092  -4.780  -2.861  0.00  0.00    +0.052 C 
BRANCH  27  28
ATOM     28  C   UNL     1      -0.193  -6.143  -3.438  0.00  0.00    -0.040 C 
ATOM     29  C   UNL     1      -0.400  -7.289  -2.751  0.00  0.00    -0.001 A 
ATOM     30  C   UNL     1      -0.421  -7.599  -1.316  0.00  0.00    +0.010 A 
ATOM     31  C   UNL     1      -0.660  -8.870  -0.922  0.00  0.00    +0.001 A 
ATOM     32  C   UNL     1      -0.888  -9.898  -1.848  0.00  0.00    +0.002 A 
ATOM     33  C   UNL     1      -0.885  -9.691  -3.182  0.00  0.00    +0.026 A 
ATOM     34  C   UNL     1      -0.645  -8.392  -3.708  0.00  0.00    +0.043 A 
ATOM     35  N   UNL     1      -0.590  -7.944  -4.939  0.00  0.00    -0.380 N 
ATOM     36  C   UNL     1      -0.311  -6.505  -4.902  0.00  0.00    +0.144 C 
ATOM     37  H   UNL     1      -0.718  -8.476  -5.740  0.00  0.00    +0.160 HD
ENDBRANCH  27  28
ENDBRANCH   5  27
TORSDOF 5
