REMARK  Name = ZINC39673952
REMARK  8 active torsions:
REMARK  status: ('A' for Active; 'I' for Inactive)
REMARK    1  A    between atoms: C_1  and  C_2
REMARK    2  A    between atoms: C_4  and  C_12
REMARK    3  A    between atoms: C_12  and  C_13
REMARK    4  A    between atoms: C_13  and  N_14
REMARK    5  A    between atoms: C_15  and  C_17
REMARK    6  A    between atoms: C_28  and  C_30
REMARK    7  A    between atoms: C_30  and  C_31
REMARK    8  A    between atoms: C_31  and  C_32
REMARK                            x       y       z     vdW  Elec       q    Type
REMARK                         _______ _______ _______ _____ _____    ______ ____
ROOT
ATOM      1  C   UNL     1      -5.411   3.612   3.667  0.00  0.00    +0.100 C 
ATOM      2  C   UNL     1      -6.835   3.450   3.090  0.00  0.00    +0.121 C 
ATOM      3  N   UNL     1      -7.710   4.173   4.043  0.00  0.00    -0.300 N 
ATOM      4  C   UNL     1      -6.932   5.379   4.415  0.00  0.00    +0.115 C 
ATOM      5  C   UNL     1      -5.478   4.879   4.536  0.00  0.00    -0.004 C 
ATOM      6  C   UNL     1      -5.155   4.541   5.988  0.00  0.00    -0.010 C 
ATOM      7  C   UNL     1      -5.173   5.825   6.822  0.00  0.00    -0.082 C 
ATOM      8  N   UNL     1      -4.186   6.771   6.287  0.00  0.00    +0.379 N 
ATOM      9  C   UNL     1      -4.556   7.162   4.922  0.00  0.00    -0.082 C 
ATOM     10  C   UNL     1      -4.512   5.934   4.008  0.00  0.00    -0.010 C 
ATOM     11  C   UNL     1      -8.936   3.816   4.474  0.00  0.00    +0.216 C 
ATOM     12  O   UNL     1      -9.531   4.520   5.262  0.00  0.00    -0.276 OA
ATOM     13  H   UNL     1      -4.156   7.592   6.874  0.00  0.00    -0.086 HD
ATOM     14  H   UNL     1      -3.276   6.336   6.276  0.00  0.00    -0.086 HD
ENDROOT
BRANCH   1  16
ATOM     15  N   UNL     1      -3.136   3.388   2.723  0.00  0.00    -0.315 N 
ATOM     16  C   UNL     1      -4.411   3.791   2.554  0.00  0.00    +0.218 C 
ATOM     17  O   UNL     1      -4.754   4.298   1.507  0.00  0.00    -0.275 OA
ATOM     18  H   UNL     1      -2.862   2.983   3.560  0.00  0.00    +0.149 HD
BRANCH  15  19
ATOM     19  C   UNL     1      -2.164   3.563   1.641  0.00  0.00    +0.109 C 
BRANCH  19  20
ATOM     20  C   UNL     1      -0.802   3.027   2.087  0.00  0.00    +0.056 C 
BRANCH  20  24
ATOM     21  C   UNL     1       1.008   5.508   1.638  0.00  0.00    +0.063 C 
ATOM     22  C   UNL     1       0.985   4.275   0.772  0.00  0.00    +0.017 A 
ATOM     23  H   UNL     1       2.403   4.717  -0.687  0.00  0.00    +0.166 HD
ATOM     24  C   UNL     1       0.198   3.206   0.974  0.00  0.00    -0.018 A 
ATOM     25  C   UNL     1       0.497   2.247  -0.092  0.00  0.00    +0.003 A 
ATOM     26  C   UNL     1       0.017   0.977  -0.417  0.00  0.00    +0.010 A 
ATOM     27  C   UNL     1       0.514   0.324  -1.510  0.00  0.00    +0.001 A 
ATOM     28  C   UNL     1       1.493   0.912  -2.299  0.00  0.00    +0.002 A 
ATOM     29  C   UNL     1       1.980   2.164  -1.996  0.00  0.00    +0.026 A 
ATOM     30  C   UNL     1       1.489   2.848  -0.888  0.00  0.00    +0.047 A 
ATOM     31  N   UNL     1       1.759   4.081  -0.339  0.00  0.00    -0.358 N 
ENDBRANCH  20  24
ENDBRANCH  19  20
ENDBRANCH  15  19
ENDBRANCH   1  16
BRANCH  11  32
ATOM     32  C   UNL     1      -9.567   2.541   3.976  0.00  0.00    +0.100 C 
BRANCH  32  33
ATOM     33  C   UNL     1     -10.947   2.372   4.615  0.00  0.00    +0.044 C 
BRANCH  33  34
ATOM     34  C   UNL     1     -11.578   1.097   4.118  0.00  0.00    -0.047 A 
ATOM     35  C   UNL     1     -12.358   1.112   2.977  0.00  0.00    +0.003 A 
ATOM     36  C   UNL     1     -12.937  -0.057   2.520  0.00  0.00    +0.000 A 
ATOM     37  C   UNL     1     -12.736  -1.241   3.205  0.00  0.00    +0.000 A 
ATOM     38  C   UNL     1     -11.956  -1.256   4.346  0.00  0.00    +0.000 A 
ATOM     39  C   UNL     1     -11.373  -0.087   4.800  0.00  0.00    +0.003 A 
ENDBRANCH  33  34
ENDBRANCH  32  33
ENDBRANCH  11  32
TORSDOF 7
