REMARK  Name = ZINC39898547
REMARK  12 active torsions:
REMARK  status: ('A' for Active; 'I' for Inactive)
REMARK    1  A    between atoms: C_1  and  C_2
REMARK    2  A    between atoms: C_2  and  C_3
REMARK    3  A    between atoms: C_3  and  C_4
REMARK    4  A    between atoms: C_4  and  C_5
REMARK    5  A    between atoms: C_5  and  N_6
REMARK    6  A    between atoms: C_7  and  C_25
REMARK    7  A    between atoms: C_10  and  C_17
REMARK    8  A    between atoms: C_22  and  O_23
REMARK    9  A    between atoms: C_28  and  O_34
REMARK   10  A    between atoms: C_29  and  O_31
REMARK   11  A    between atoms: O_31  and  C_32
REMARK   12  A    between atoms: C_32  and  C_33
REMARK                            x       y       z     vdW  Elec       q    Type
REMARK                         _______ _______ _______ _____ _____    ______ ____
ROOT
ATOM      1  N   UNL     1       1.802  -4.292   2.454  0.00  0.00    -0.285 N 
ATOM      2  C   UNL     1       0.587  -4.798   3.107  0.00  0.00    +0.141 C 
ATOM      3  C   UNL     1       0.558  -6.278   2.844  0.00  0.00    +0.035 A 
ATOM      4  C   UNL     1      -0.108  -7.495   3.023  0.00  0.00    +0.102 A 
ATOM      5  N   UNL     1       0.598  -8.425   2.411  0.00  0.00    -0.173 NA
ATOM      6  N   UNL     1       1.643  -7.916   1.862  0.00  0.00    -0.272 N 
ATOM      7  H   UNL     1       2.305  -8.414   1.358  0.00  0.00    +0.189 HD
ATOM      8  C   UNL     1       1.682  -6.571   2.095  0.00  0.00    +0.126 A 
ATOM      9  C   UNL     1       2.426  -5.327   1.865  0.00  0.00    +0.265 C 
ATOM     10  O   UNL     1       3.462  -5.245   1.233  0.00  0.00    -0.268 OA
ENDROOT
BRANCH   4  11
ATOM     11  C   UNL     1      -1.376  -7.701   3.767  0.00  0.00    +0.045 A 
ATOM     12  C   UNL     1      -2.093  -6.607   4.244  0.00  0.00    +0.033 A 
ATOM     13  C   UNL     1      -3.272  -6.804   4.935  0.00  0.00    +0.042 A 
ATOM     14  C   UNL     1      -3.744  -8.087   5.156  0.00  0.00    +0.023 A 
ATOM     15  C   UNL     1      -3.039  -9.179   4.687  0.00  0.00    +0.047 A 
ATOM     16  C   UNL     1      -1.858  -8.994   3.987  0.00  0.00    +0.126 A 
ATOM     17 CL   UNL     1      -4.166  -5.439   5.529  0.00  0.00    -0.084 Cl
BRANCH  16  18
ATOM     18  O   UNL     1      -1.167 -10.068   3.521  0.00  0.00    -0.506 OA
ATOM     19  H   UNL     1      -0.516 -10.418   4.144  0.00  0.00    +0.292 HD
ENDBRANCH  16  18
ENDBRANCH   4  11
BRANCH   2  20
ATOM     20  C   UNL     1       0.648  -4.534   4.590  0.00  0.00    -0.019 A 
ATOM     21  C   UNL     1      -0.444  -3.991   5.240  0.00  0.00    +0.009 A 
ATOM     22  C   UNL     1      -0.394  -3.748   6.599  0.00  0.00    +0.049 A 
ATOM     23  C   UNL     1       0.754  -4.049   7.315  0.00  0.00    +0.158 A 
ATOM     24  C   UNL     1       1.854  -4.597   6.661  0.00  0.00    +0.162 A 
ATOM     25  C   UNL     1       1.795  -4.842   5.299  0.00  0.00    +0.055 A 
BRANCH  23  26
ATOM     26  O   UNL     1       0.806  -3.810   8.652  0.00  0.00    -0.503 OA
ATOM     27  H   UNL     1       0.510  -4.553   9.197  0.00  0.00    +0.292 HD
ENDBRANCH  23  26
BRANCH  24  28
ATOM     28  O   UNL     1       2.983  -4.894   7.359  0.00  0.00    -0.489 OA
BRANCH  28  29
ATOM     29  C   UNL     1       4.110  -5.349   6.606  0.00  0.00    +0.226 C 
ATOM     30  C   UNL     1       5.311  -5.519   7.539  0.00  0.00    +0.048 C 
ENDBRANCH  28  29
ENDBRANCH  24  28
ENDBRANCH   2  20
BRANCH   1  31
ATOM     31  C   UNL     1       2.252  -2.898   2.441  0.00  0.00    +0.109 C 
BRANCH  31  32
ATOM     32  C   UNL     1       1.656  -2.180   1.229  0.00  0.00    +0.019 C 
BRANCH  32  33
ATOM     33  C   UNL     1       2.127  -0.725   1.215  0.00  0.00    +0.001 C 
BRANCH  33  35
ATOM     34  C   UNL     1       2.001   1.449  -0.011  0.00  0.00    +0.004 C 
ATOM     35  C   UNL     1       1.530  -0.007   0.003  0.00  0.00    -0.003 C 
ENDBRANCH  33  35
ENDBRANCH  32  33
ENDBRANCH  31  32
ENDBRANCH   1  31
TORSDOF 10
