REMARK  Name = ZINC43165651
REMARK  8 active torsions:
REMARK  status: ('A' for Active; 'I' for Inactive)
REMARK    1  A    between atoms: C_1  and  C_2
REMARK    2  A    between atoms: C_6  and  O_9
REMARK    3  A    between atoms: C_7  and  C_8
REMARK    4  A    between atoms: O_9  and  C_10
REMARK    5  A    between atoms: C_10  and  C_12
REMARK    6  A    between atoms: C_10  and  C_13
REMARK    7  A    between atoms: N_15  and  N_16
REMARK    8  A    between atoms: N_19  and  C_20
REMARK                            x       y       z     vdW  Elec       q    Type
REMARK                         _______ _______ _______ _____ _____    ______ ____
ROOT
ATOM      1  N   UNL     1       1.280  -6.725   4.739  0.00  0.00    -0.218 N 
ATOM      2  C   UNL     1       1.399  -8.064   4.835  0.00  0.00    +0.316 C 
ATOM      3  O   UNL     1       1.903  -8.561   5.824  0.00  0.00    -0.251 OA
ATOM      4  N   UNL     1       0.961  -8.853   3.834  0.00  0.00    -0.291 N 
ATOM      5  H   UNL     1       1.597  -6.157   5.459  0.00  0.00    +0.174 HD
ATOM      6  H   UNL     1       0.559  -8.457   3.045  0.00  0.00    +0.151 HD
ENDROOT
BRANCH   4   7
ATOM      7  C   UNL     1       1.090 -10.309   3.938  0.00  0.00    +0.111 C 
ATOM      8  C   UNL     1       0.026 -10.979   3.065  0.00  0.00    +0.068 C 
ATOM      9  C   UNL     1       0.363 -12.471   2.955  0.00  0.00    +0.231 C 
ATOM     10  O   UNL     1       1.603 -12.602   2.258  0.00  0.00    -0.492 OA
ATOM     11  C   UNL     1       2.647 -11.837   2.671  0.00  0.00    +0.125 A 
ATOM     12  C   UNL     1       2.462 -10.725   3.473  0.00  0.00    +0.015 A 
ATOM     13  C   UNL     1       3.556  -9.971   3.865  0.00  0.00    +0.009 A 
ATOM     14  C   UNL     1       4.828 -10.326   3.461  0.00  0.00    +0.001 A 
ATOM     15  C   UNL     1       5.014 -11.438   2.661  0.00  0.00    +0.004 A 
ATOM     16  C   UNL     1       3.930 -12.192   2.268  0.00  0.00    +0.046 A 
ENDBRANCH   4   7
BRANCH   1  19
ATOM     17  C   UNL     1       0.582  -4.814   3.503  0.00  0.00    +0.270 C 
ATOM     18  O   UNL     1       0.977  -4.104   4.403  0.00  0.00    -0.270 OA
ATOM     19  N   UNL     1       0.701  -6.153   3.599  0.00  0.00    -0.230 N 
ATOM     20  H   UNL     1       0.385  -6.721   2.879  0.00  0.00    +0.173 HD
BRANCH  17  21
ATOM     21  C   UNL     1      -0.043  -4.199   2.277  0.00  0.00    +0.257 C 
ATOM     22  C   UNL     1      -1.514  -4.611   2.192  0.00  0.00    +0.062 C 
BRANCH  21  23
ATOM     23  O   UNL     1       0.050  -2.776   2.358  0.00  0.00    -0.480 OA
BRANCH  23  29
ATOM     24  C   UNL     1       0.438   1.473  -0.013  0.00  0.00    +0.044 C 
ATOM     25  C   UNL     1       0.221  -0.018  -0.009  0.00  0.00    -0.044 A 
ATOM     26  C   UNL     1       0.006  -0.688  -1.200  0.00  0.00    +0.004 A 
ATOM     27  C   UNL     1      -0.194  -2.056  -1.200  0.00  0.00    +0.004 A 
ATOM     28  C   UNL     1      -0.179  -2.757  -0.009  0.00  0.00    +0.046 A 
ATOM     29  C   UNL     1       0.036  -2.088   1.186  0.00  0.00    +0.125 A 
ATOM     30  C   UNL     1       0.242  -0.716   1.183  0.00  0.00    -0.006 A 
ATOM     31  C   UNL     1       0.482   0.014   2.479  0.00  0.00    +0.048 C 
ENDBRANCH  23  29
ENDBRANCH  21  23
ENDBRANCH  17  21
ENDBRANCH   1  19
TORSDOF 5
