REMARK  Name = ZINC20189223
REMARK  4 active torsions:
REMARK  status: ('A' for Active; 'I' for Inactive)
REMARK    1  A    between atoms: N_10  and  S_11
REMARK    2  A    between atoms: S_11  and  C_14
REMARK    3  A    between atoms: C_18  and  C_20
REMARK    4  A    between atoms: C_20  and  N_21
REMARK                            x       y       z     vdW  Elec       q    Type
REMARK                         _______ _______ _______ _____ _____    ______ ____
ROOT
ATOM      1  S   UNL     1      -1.512  -0.905   0.011  0.00  0.00    +0.075 S 
ATOM      2  O   UNL     1      -1.220  -2.186   0.553  0.00  0.00    -0.150 OA
ATOM      3  O   UNL     1      -2.492  -0.045   0.575  0.00  0.00    -0.150 OA
ENDROOT
BRANCH   1  13
ATOM      4  C   UNL     1      -0.392  -4.385  -3.676  0.00  0.00    +0.000 A 
ATOM      5  C   UNL     1       0.164  -4.012  -2.466  0.00  0.00    +0.002 A 
ATOM      6  C   UNL     1      -0.354  -2.938  -1.772  0.00  0.00    +0.025 A 
ATOM      7  C   UNL     1      -1.434  -2.231  -2.289  0.00  0.00    +0.054 A 
ATOM      8  C   UNL     1      -1.990  -2.604  -3.503  0.00  0.00    -0.025 A 
ATOM      9  C   UNL     1      -1.464  -3.684  -4.192  0.00  0.00    +0.005 A 
ATOM     10  C   UNL     1      -3.156  -1.859  -4.097  0.00  0.00    +0.038 C 
ATOM     11  C   UNL     1      -3.895  -1.072  -3.014  0.00  0.00    +0.025 C 
ATOM     12  C   UNL     1      -2.883  -0.230  -2.234  0.00  0.00    +0.132 C 
ATOM     13  N   UNL     1      -1.947  -1.147  -1.568  0.00  0.00    -0.203 N 
ENDBRANCH   1  13
BRANCH   1  14
ATOM     14  C   UNL     1       0.003  -0.005   0.002  0.00  0.00    +0.109 A 
ATOM     15  C   UNL     1       1.208  -0.682  -0.013  0.00  0.00    +0.031 A 
ATOM     16  C   UNL     1       2.397   0.023  -0.020  0.00  0.00    +0.040 A 
ATOM     17  C   UNL     1       2.380   1.408  -0.013  0.00  0.00    +0.125 A 
ATOM     18  C   UNL     1       1.172   2.084   0.002  0.00  0.00    -0.028 A 
ATOM     19  C   UNL     1      -0.015   1.377   0.009  0.00  0.00    +0.033 A 
ATOM     20  F   UNL     1       3.541   2.098  -0.020  0.00  0.00    -0.205 F 
BRANCH  18  21
ATOM     21  C   UNL     1       1.152   3.591   0.010  0.00  0.00    -0.048 C 
BRANCH  21  22
ATOM     22  N   UNL     1       1.517   4.078   1.347  0.00  0.00    +0.381 N 
ATOM     23  H   UNL     1       1.503   5.178   1.354  0.00  0.00    -0.090 HD
ATOM     24  H   UNL     1       2.526   3.723   1.604  0.00  0.00    -0.090 HD
ATOM     25  H   UNL     1       0.796   3.698   2.086  0.00  0.00    -0.090 HD
ENDBRANCH  21  22
ENDBRANCH  18  21
ENDBRANCH   1  14
TORSDOF 4
