REMARK  Name = ZINC65591169
REMARK  8 active torsions:
REMARK  status: ('A' for Active; 'I' for Inactive)
REMARK    1  A    between atoms: N_8  and  C_11
REMARK    2  A    between atoms: C_11  and  C_12
REMARK    3  A    between atoms: C_12  and  C_13
REMARK    4  A    between atoms: C_13  and  N_14
REMARK    5  A    between atoms: N_17  and  C_18
REMARK    6  A    between atoms: C_18  and  C_19
REMARK    7  A    between atoms: C_19  and  C_21
REMARK    8  A    between atoms: C_19  and  N_26
REMARK                            x       y       z     vdW  Elec       q    Type
REMARK                         _______ _______ _______ _____ _____    ______ ____
ROOT
ATOM      1  N   UNL     1       5.061  -5.433   2.796  0.00  0.00    -0.299 N 
ATOM      2  C   UNL     1       5.844  -6.508   3.010  0.00  0.00    +0.300 C 
ATOM      3  O   UNL     1       6.370  -7.073   2.070  0.00  0.00    -0.253 OA
ATOM      4  N   UNL     1       6.044  -6.958   4.264  0.00  0.00    -0.301 N 
ATOM      5  H   UNL     1       4.641  -4.982   3.546  0.00  0.00    +0.150 HD
ATOM      6  H   UNL     1       5.625  -6.508   5.014  0.00  0.00    +0.150 HD
ENDROOT
BRANCH   1   7
ATOM      7  C   UNL     1       4.843  -4.944   1.433  0.00  0.00    +0.107 C 
BRANCH   7   8
ATOM      8  C   UNL     1       3.922  -3.722   1.470  0.00  0.00    +0.042 C 
BRANCH   8   9
ATOM      9  C   UNL     1       3.695  -3.212   0.045  0.00  0.00    +0.150 C 
BRANCH   9  17
ATOM     10  C   UNL     1      -0.449   1.094   0.127  0.00  0.00    +0.005 A 
ATOM     11  C   UNL     1       0.692   1.914   0.249  0.00  0.00    +0.018 A 
ATOM     12  C   UNL     1       1.923   1.375   0.278  0.00  0.00    +0.098 A 
ATOM     13  N   UNL     1       2.094   0.013   0.189  0.00  0.00    -0.251 N 
ATOM     14  C   UNL     1       0.994  -0.815   0.069  0.00  0.00    +0.162 A 
ATOM     15  C   UNL     1      -0.306  -0.251   0.038  0.00  0.00    +0.049 A 
ATOM     16  N   UNL     1       1.415  -2.057   0.003  0.00  0.00    -0.149 NA
ATOM     17  N   UNL     1       2.814  -2.042   0.081  0.00  0.00    -0.212 N 
ATOM     18  C   UNL     1       3.202  -0.755   0.195  0.00  0.00    +0.351 A 
ATOM     19  O   UNL     1       4.351  -0.357   0.286  0.00  0.00    -0.244 OA
ENDBRANCH   9  17
ENDBRANCH   8   9
ENDBRANCH   7   8
ENDBRANCH   1   7
BRANCH   4  20
ATOM     20  C   UNL     1       6.896  -8.127   4.496  0.00  0.00    +0.098 C 
BRANCH  20  21
ATOM     21  C   UNL     1       7.040  -8.364   6.001  0.00  0.00    +0.016 C 
BRANCH  21  22
ATOM     22  N   UNL     1       7.998  -9.452   6.236  0.00  0.00    +0.387 N 
ATOM     23  C   UNL     1       9.343  -9.066   5.738  0.00  0.00    -0.078 C 
ATOM     24  C   UNL     1      10.295  -9.997   6.531  0.00  0.00    -0.020 C 
ATOM     25  C   UNL     1       9.631 -10.063   7.926  0.00  0.00    -0.020 C 
ATOM     26  C   UNL     1       8.158  -9.685   7.688  0.00  0.00    -0.078 C 
ATOM     27  H   UNL     1       7.686 -10.296   5.780  0.00  0.00    -0.081 HD
ENDBRANCH  21  22
BRANCH  21  28
ATOM     28  C   UNL     1       5.700  -8.740   6.580  0.00  0.00    +0.093 A 
ATOM     29  C   UNL     1       4.865  -7.912   7.233  0.00  0.00    +0.043 A 
ATOM     30  C   UNL     1       3.734  -8.676   7.600  0.00  0.00    +0.041 A 
ATOM     31  C   UNL     1       3.946  -9.926   7.149  0.00  0.00    +0.195 A 
ATOM     32  O   UNL     1       5.136  -9.957   6.527  0.00  0.00    -0.469 OA
ENDBRANCH  21  28
ENDBRANCH  20  21
ENDBRANCH   4  20
TORSDOF 8
