REMARK  Name = ZINC39545615
REMARK  8 active torsions:
REMARK  status: ('A' for Active; 'I' for Inactive)
REMARK    1  A    between atoms: C_1  and  C_2
REMARK    2  A    between atoms: C_2  and  O_3
REMARK    3  A    between atoms: O_3  and  N_4
REMARK    4  A    between atoms: N_4  and  C_5
REMARK    5  A    between atoms: C_10  and  O_11
REMARK    6  A    between atoms: C_12  and  C_14
REMARK    7  A    between atoms: C_17  and  C_29
REMARK    8  A    between atoms: C_34  and  O_35
REMARK                            x       y       z     vdW  Elec       q    Type
REMARK                         _______ _______ _______ _____ _____    ______ ____
ROOT
ATOM      1  C   UNL     1      -1.364  -1.845   2.500  0.00  0.00    +0.173 C 
ATOM      2  C   UNL     1      -0.871  -0.901   3.619  0.00  0.00    +0.050 C 
ATOM      3  C   UNL     1      -1.050  -1.802   4.864  0.00  0.00    +0.086 C 
ATOM      4  C   UNL     1      -2.113  -2.790   4.447  0.00  0.00    +0.083 C 
ATOM      5  N   UNL     1      -2.834  -3.598   5.299  0.00  0.00    -0.304 N 
ATOM      6  C   UNL     1      -3.542  -4.671   4.740  0.00  0.00    +0.037 A 
ATOM      7  C   UNL     1      -4.033  -5.675   5.564  0.00  0.00    +0.023 A 
ATOM      8  C   UNL     1      -4.726  -6.737   5.017  0.00  0.00    +0.002 A 
ATOM      9  C   UNL     1      -4.929  -6.798   3.650  0.00  0.00    +0.000 A 
ATOM     10  C   UNL     1      -4.443  -5.798   2.830  0.00  0.00    +0.007 A 
ATOM     11  C   UNL     1      -3.749  -4.729   3.369  0.00  0.00    -0.007 A 
ATOM     12  C   UNL     1      -3.241  -3.645   2.457  0.00  0.00    +0.155 C 
ATOM     13  N   UNL     1      -2.272  -2.796   3.159  0.00  0.00    -0.346 N 
ATOM     14  H   UNL     1      -2.851  -3.430   6.254  0.00  0.00    +0.153 HD
ENDROOT
BRANCH   3  15
ATOM     15  C   UNL     1      -1.515  -0.988   6.044  0.00  0.00    +0.004 A 
ATOM     16  C   UNL     1      -2.712  -0.300   5.980  0.00  0.00    +0.008 A 
ATOM     17  C   UNL     1      -3.139   0.448   7.062  0.00  0.00    +0.001 A 
ATOM     18  C   UNL     1      -2.371   0.509   8.210  0.00  0.00    +0.004 A 
ATOM     19  C   UNL     1      -1.174  -0.177   8.278  0.00  0.00    +0.046 A 
ATOM     20  C   UNL     1      -0.746  -0.932   7.196  0.00  0.00    +0.121 A 
BRANCH  20  21
ATOM     21  O   UNL     1       0.429  -1.613   7.264  0.00  0.00    -0.506 OA
ATOM     22  H   UNL     1       1.196  -1.105   6.964  0.00  0.00    +0.292 HD
ENDBRANCH  20  21
ENDBRANCH   3  15
BRANCH   1  24
ATOM     23  N   UNL     1       0.769  -1.889   1.248  0.00  0.00    -0.143 N 
ATOM     24  C   UNL     1      -0.200  -2.577   1.883  0.00  0.00    +0.265 C 
ATOM     25  O   UNL     1      -0.135  -3.786   1.959  0.00  0.00    -0.271 OA
BRANCH  23  26
ATOM     26  C   UNL     1       1.852  -2.569   0.675  0.00  0.00    +0.106 A 
ATOM     27  C   UNL     1       1.746  -3.090  -0.606  0.00  0.00    +0.029 A 
ATOM     28  C   UNL     1       2.815  -3.761  -1.169  0.00  0.00    +0.002 A 
ATOM     29  C   UNL     1       3.991  -3.915  -0.458  0.00  0.00    +0.004 A 
ATOM     30  C   UNL     1       4.104  -3.399   0.820  0.00  0.00    +0.047 A 
ATOM     31  C   UNL     1       3.039  -2.720   1.389  0.00  0.00    +0.140 A 
BRANCH  31  32
ATOM     32  O   UNL     1       3.150  -2.206   2.643  0.00  0.00    -0.505 OA
ATOM     33  H   UNL     1       2.883  -2.817   3.343  0.00  0.00    +0.292 HD
ENDBRANCH  31  32
ENDBRANCH  23  26
BRANCH  23  34
ATOM     34  O   UNL     1       0.693  -0.477   1.160  0.00  0.00    -0.272 OA
BRANCH  34  36
ATOM     35  C   UNL     1      -0.019   1.526   0.010  0.00  0.00    +0.036 C 
ATOM     36  C   UNL     1       0.002  -0.004   0.002  0.00  0.00    +0.187 C 
ENDBRANCH  34  36
ENDBRANCH  23  34
ENDBRANCH   1  24
TORSDOF 7
