REMARK  Name = ZINC02457818
REMARK  6 active torsions:
REMARK  status: ('A' for Active; 'I' for Inactive)
REMARK    1  A    between atoms: C_1  and  C_2
REMARK    2  A    between atoms: C_5  and  N_9
REMARK    3  A    between atoms: C_7  and  C_8
REMARK    4  A    between atoms: C_19  and  C_20
REMARK    5  A    between atoms: C_19  and  O_26
REMARK    6  A    between atoms: N_22  and  C_23
REMARK                            x       y       z     vdW  Elec       q    Type
REMARK                         _______ _______ _______ _____ _____    ______ ____
ROOT
ATOM      1  N   UNL     1       4.928   0.182  -0.044  0.00  0.00    -0.214 N 
ATOM      2  C   UNL     1       4.711   1.379  -0.619  0.00  0.00    +0.314 C 
ATOM      3  O   UNL     1       5.647   1.946  -1.148  0.00  0.00    -0.252 OA
ATOM      4  N   UNL     1       3.511   1.975  -0.635  0.00  0.00    -0.269 N 
ATOM      5  C   UNL     1       2.374   1.409  -0.057  0.00  0.00    +0.043 A 
ATOM      6  C   UNL     1       1.153   2.068  -0.102  0.00  0.00    +0.025 A 
ATOM      7  C   UNL     1       0.039   1.492   0.476  0.00  0.00    +0.017 A 
ATOM      8  C   UNL     1       0.133   0.259   1.099  0.00  0.00    +0.018 A 
ATOM      9  C   UNL     1       1.350  -0.402   1.146  0.00  0.00    +0.025 A 
ATOM     10  C   UNL     1       2.461   0.171   0.571  0.00  0.00    +0.034 A 
ATOM     11  C   UNL     1       3.805  -0.519   0.601  0.00  0.00    +0.247 C 
ATOM     12 BR   UNL     1      -1.399  -0.521   1.886  0.00  0.00    -0.050 Br
ATOM     13  H   UNL     1       3.429   2.839  -1.068  0.00  0.00    +0.156 HD
ENDROOT
BRANCH   1  18
ATOM     14  C   UNL     1      10.105  -2.136  -0.107  0.00  0.00    +0.044 C 
ATOM     15  C   UNL     1       8.730  -1.520  -0.090  0.00  0.00    -0.047 A 
ATOM     16  C   UNL     1       7.810  -1.861  -1.064  0.00  0.00    +0.005 A 
ATOM     17  C   UNL     1       6.549  -1.298  -1.052  0.00  0.00    +0.024 A 
ATOM     18  C   UNL     1       6.205  -0.390  -0.060  0.00  0.00    +0.042 A 
ATOM     19  C   UNL     1       7.133  -0.045   0.914  0.00  0.00    +0.027 A 
ATOM     20  C   UNL     1       8.391  -0.616   0.899  0.00  0.00    -0.046 A 
ATOM     21  C   UNL     1       9.397  -0.248   1.959  0.00  0.00    +0.044 C 
ENDBRANCH   1  18
BRANCH  11  22
ATOM     22  C   UNL     1       4.173  -0.757   2.043  0.00  0.00    +0.269 C 
ATOM     23  O   UNL     1       4.356  -1.888   2.443  0.00  0.00    -0.270 OA
ATOM     24  N   UNL     1       4.298   0.285   2.888  0.00  0.00    -0.308 N 
ATOM     25  H   UNL     1       4.152   1.189   2.568  0.00  0.00    +0.149 HD
BRANCH  24  26
ATOM     26  C   UNL     1       4.656   0.053   4.289  0.00  0.00    +0.073 C 
ATOM     27  C   UNL     1       3.888   0.839   5.354  0.00  0.00    +0.024 C 
ATOM     28  C   UNL     1       5.343   1.194   5.041  0.00  0.00    +0.024 C 
ENDBRANCH  24  26
ENDBRANCH  11  22
BRANCH  11  29
ATOM     29  O   UNL     1       3.660  -1.793  -0.029  0.00  0.00    -0.360 OA
ATOM     30  H   UNL     1       3.017  -2.373   0.400  0.00  0.00    +0.213 HD
ENDBRANCH  11  29
TORSDOF 4
