REMARK  Name = ZINC06845155
REMARK  5 active torsions:
REMARK  status: ('A' for Active; 'I' for Inactive)
REMARK    1  A    between atoms: C_1  and  C_2
REMARK    2  A    between atoms: C_5  and  C_8
REMARK    3  A    between atoms: C_8  and  C_10
REMARK    4  A    between atoms: C_12  and  C_23
REMARK    5  A    between atoms: N_14  and  C_17
REMARK                            x       y       z     vdW  Elec       q    Type
REMARK                         _______ _______ _______ _____ _____    ______ ____
ROOT
ATOM      1  C   UNL     1       0.133  -4.907   1.289  0.00  0.00    +0.109 A 
ATOM      2  H   UNL     1       0.351  -7.324   3.296  0.00  0.00    +0.187 HD
ATOM      3  C   UNL     1       0.240  -6.265   1.531  0.00  0.00    +0.046 A 
ATOM      4  N   UNL     1       0.278  -6.460   2.862  0.00  0.00    -0.294 N 
ATOM      5  N   UNL     1       0.197  -5.232   3.526  0.00  0.00    -0.219 N 
ATOM      6  C   UNL     1       0.113  -4.249   2.606  0.00  0.00    +0.283 A 
ATOM      7  O   UNL     1       0.033  -3.054   2.822  0.00  0.00    -0.265 OA
ATOM      8  C   UNL     1       0.303  -7.344   0.481  0.00  0.00    +0.066 C 
ENDROOT
BRANCH   5   9
ATOM      9  C   UNL     1       0.207  -5.053   4.913  0.00  0.00    +0.067 A 
ATOM     10  C   UNL     1       0.113  -3.776   5.450  0.00  0.00    +0.028 A 
ATOM     11  C   UNL     1       0.123  -3.602   6.820  0.00  0.00    +0.002 A 
ATOM     12  C   UNL     1       0.227  -4.698   7.657  0.00  0.00    +0.000 A 
ATOM     13  C   UNL     1       0.321  -5.971   7.125  0.00  0.00    +0.002 A 
ATOM     14  C   UNL     1       0.304  -6.152   5.756  0.00  0.00    +0.028 A 
ENDBRANCH   5   9
BRANCH   1  15
ATOM     15  C   UNL     1       0.061  -4.252  -0.021  0.00  0.00    +0.200 C 
ATOM     16  O   UNL     1       1.016  -4.289  -0.774  0.00  0.00    -0.286 OA
BRANCH  15  21
ATOM     17  C   UNL     1      -4.744  -1.506  -1.604  0.00  0.00    +0.044 C 
ATOM     18  C   UNL     1      -3.486  -2.225  -1.190  0.00  0.00    -0.050 A 
ATOM     19  C   UNL     1      -2.373  -2.195  -2.011  0.00  0.00    +0.004 A 
ATOM     20  C   UNL     1      -1.218  -2.851  -1.638  0.00  0.00    +0.012 A 
ATOM     21  C   UNL     1      -1.174  -3.546  -0.428  0.00  0.00    +0.023 A 
ATOM     22  C   UNL     1      -2.300  -3.572   0.396  0.00  0.00    +0.012 A 
ATOM     23  C   UNL     1      -3.447  -2.908   0.013  0.00  0.00    +0.004 A 
ENDBRANCH  15  21
ENDBRANCH   1  15
TORSDOF 3
