REMARK  Name = ZINC09349007
REMARK  6 active torsions:
REMARK  status: ('A' for Active; 'I' for Inactive)
REMARK    1  A    between atoms: C_1  and  C_2
REMARK    2  A    between atoms: C_2  and  C_9
REMARK    3  A    between atoms: C_9  and  S_10
REMARK    4  A    between atoms: S_10  and  C_11
REMARK    5  A    between atoms: C_16  and  C_17
REMARK    6  A    between atoms: N_19  and  C_20
REMARK                            x       y       z     vdW  Elec       q    Type
REMARK                         _______ _______ _______ _____ _____    ______ ____
ROOT
ATOM      1  C   UNL     1      -3.130   2.200  -2.688  0.00  0.00    +0.020 A 
ATOM      2  C   UNL     1      -2.312   2.920  -3.552  0.00  0.00    +0.015 A 
ATOM      3  C   UNL     1      -2.833   3.452  -4.713  0.00  0.00    +0.001 A 
ATOM      4  C   UNL     1      -4.171   3.275  -5.028  0.00  0.00    +0.001 A 
ATOM      5  C   UNL     1      -4.997   2.565  -4.186  0.00  0.00    +0.014 A 
ATOM      6  C   UNL     1      -4.485   2.015  -3.008  0.00  0.00    +0.050 A 
ENDROOT
BRANCH   6   7
ATOM      7  C   UNL     1      -5.362   1.249  -2.104  0.00  0.00    +0.246 C 
ATOM      8  O   UNL     1      -4.913   0.775  -1.078  0.00  0.00    -0.270 OA
ATOM      9  N   UNL     1      -6.662   1.074  -2.415  0.00  0.00    -0.304 N 
ATOM     10  H   UNL     1      -7.020   1.452  -3.233  0.00  0.00    +0.150 HD
BRANCH   9  11
ATOM     11  C   UNL     1      -7.533   0.312  -1.517  0.00  0.00    +0.105 C 
ATOM     12  C   UNL     1      -8.627  -0.342  -2.342  0.00  0.00    +0.038 C 
ATOM     13  C   UNL     1      -9.517  -1.186  -1.417  0.00  0.00    +0.076 C 
ATOM     14  S   UNL     1     -10.501  -0.028  -0.420  0.00  0.00    -0.125 S 
ATOM     15  C   UNL     1      -9.314   1.170   0.101  0.00  0.00    +0.013 A 
ATOM     16  C   UNL     1      -8.049   1.236  -0.453  0.00  0.00    -0.014 A 
ATOM     17  C   UNL     1      -7.173   2.222  -0.005  0.00  0.00    +0.006 A 
ATOM     18  C   UNL     1      -7.548   3.113   0.977  0.00  0.00    +0.000 A 
ATOM     19  C   UNL     1      -8.810   3.037   1.536  0.00  0.00    +0.001 A 
ATOM     20  C   UNL     1      -9.689   2.068   1.100  0.00  0.00    +0.015 A 
ENDBRANCH   9  11
ENDBRANCH   6   7
BRANCH   1  21
ATOM     21  S   UNL     1      -2.468   1.517  -1.205  0.00  0.00    -0.122 S 
BRANCH  21  22
ATOM     22  C   UNL     1      -0.721   2.005  -1.239  0.00  0.00    +0.109 C 
BRANCH  22  24
ATOM     23  C   UNL     1      -0.697   1.991   1.278  0.00  0.00    +0.042 C 
ATOM     24  C   UNL     1      -0.018   1.469   0.010  0.00  0.00    +0.119 C 
ATOM     25  C   UNL     1       1.450   1.845  -0.002  0.00  0.00    +0.244 C 
ATOM     26  O   UNL     1       1.920   2.963  -0.001  0.00  0.00    -0.273 OA
ATOM     27  N   UNL     1       2.125   0.679  -0.015  0.00  0.00    -0.238 N 
ATOM     28  C   UNL     1       1.296  -0.371  -0.012  0.00  0.00    +0.307 C 
ATOM     29  O   UNL     1       1.670  -1.528  -0.022  0.00  0.00    -0.252 OA
ATOM     30  N   UNL     1       0.002  -0.004   0.002  0.00  0.00    -0.285 N 
ATOM     31  H   UNL     1       3.093   0.609  -0.025  0.00  0.00    +0.159 HD
ATOM     32  H   UNL     1      -0.768  -0.594   0.007  0.00  0.00    +0.151 HD
ENDBRANCH  22  24
ENDBRANCH  21  22
ENDBRANCH   1  21
TORSDOF 5
