REMARK  Name = ZINC06860861
REMARK  10 active torsions:
REMARK  status: ('A' for Active; 'I' for Inactive)
REMARK    1  A    between atoms: C_1  and  C_2
REMARK    2  A    between atoms: C_6  and  C_28
REMARK    3  A    between atoms: C_7  and  O_8
REMARK    4  A    between atoms: O_8  and  C_9
REMARK    5  A    between atoms: C_9  and  C_10
REMARK    6  A    between atoms: N_12  and  N_13
REMARK    7  A    between atoms: N_13  and  C_14
REMARK    8  A    between atoms: C_14  and  N_16
REMARK    9  A    between atoms: C_17  and  C_19
REMARK   10  A    between atoms: C_22  and  N_25
REMARK                            x       y       z     vdW  Elec       q    Type
REMARK                         _______ _______ _______ _____ _____    ______ ____
ROOT
ATOM      1  N   UNL     1       3.635  -4.811  -0.058  0.00  0.00    -0.245 N 
ATOM      2  H   UNL     1       3.653  -5.781  -0.062  0.00  0.00    +0.172 HD
ENDROOT
BRANCH   1   5
ATOM      3  C   UNL     1       6.014  -4.739  -0.080  0.00  0.00    +0.267 C 
ATOM      4  O   UNL     1       6.037  -5.952  -0.087  0.00  0.00    -0.271 OA
ATOM      5  N   UNL     1       4.834  -4.088  -0.066  0.00  0.00    -0.232 N 
ATOM      6  H   UNL     1       4.816  -3.118  -0.060  0.00  0.00    +0.173 HD
BRANCH   3   7
ATOM      7  C   UNL     1       7.305  -3.962  -0.089  0.00  0.00    +0.326 C 
BRANCH   7   8
ATOM      8  O   UNL     1       8.408  -4.870  -0.104  0.00  0.00    -0.482 OA
BRANCH   8  15
ATOM      9  C   UNL     1       9.582  -4.348  -2.620  0.00  0.00    +0.047 C 
ATOM     10  C   UNL     1      10.281  -4.048  -1.319  0.00  0.00    -0.009 A 
ATOM     11  C   UNL     1      11.546  -3.491  -1.326  0.00  0.00    +0.007 A 
ATOM     12  C   UNL     1      12.190  -3.221  -0.133  0.00  0.00    +0.001 A 
ATOM     13  C   UNL     1      11.569  -3.503   1.070  0.00  0.00    +0.007 A 
ATOM     14  C   UNL     1      10.302  -4.055   1.082  0.00  0.00    -0.009 A 
ATOM     15  C   UNL     1       9.654  -4.327  -0.114  0.00  0.00    +0.127 A 
ATOM     16  C   UNL     1       9.626  -4.361   2.394  0.00  0.00    +0.047 C 
ENDBRANCH   8  15
ENDBRANCH   7   8
ENDBRANCH   3   7
ENDBRANCH   1   5
BRANCH   1  17
ATOM     17  C   UNL     1       2.455  -4.159  -0.043  0.00  0.00    +0.153 C 
ATOM     18  S   UNL     1       0.989  -5.043  -0.033  0.00  0.00    -0.017 S 
BRANCH  17  19
ATOM     19  N   UNL     1       2.430  -2.812  -0.036  0.00  0.00    -0.263 N 
ATOM     20  C   UNL     1       1.250  -2.160  -0.021  0.00  0.00    +0.250 C 
ATOM     21  O   UNL     1       0.209  -2.787  -0.014  0.00  0.00    -0.270 OA
ATOM     22  H   UNL     1       3.260  -2.311  -0.041  0.00  0.00    +0.157 HD
BRANCH  20  23
ATOM     23  C   UNL     1       1.222  -0.682  -0.013  0.00  0.00    +0.037 A 
ATOM     24  C   UNL     1       0.002  -0.004   0.002  0.00  0.00    +0.015 A 
ATOM     25  C   UNL     1      -0.017   1.375   0.010  0.00  0.00    +0.033 A 
ATOM     26  C   UNL     1       1.170   2.086   0.002  0.00  0.00    +0.126 A 
ATOM     27  C   UNL     1       2.383   1.420  -0.013  0.00  0.00    +0.033 A 
ATOM     28  C   UNL     1       2.416   0.041  -0.021  0.00  0.00    +0.015 A 
BRANCH  26  29
ATOM     29  N   UNL     1       1.143   3.566   0.010  0.00  0.00    +0.056 N 
ATOM     30  O   UNL     1       0.076   4.155   0.023  0.00  0.00    -0.126 OA
ATOM     31  O   UNL     1       2.186   4.195   0.003  0.00  0.00    -0.126 OA
ENDBRANCH  26  29
ENDBRANCH  20  23
ENDBRANCH  17  19
ENDBRANCH   1  17
TORSDOF 8
