REMARK  Name = ZINC59170143
REMARK  12 active torsions:
REMARK  status: ('A' for Active; 'I' for Inactive)
REMARK    1  A    between atoms: C_1  and  C_2
REMARK    2  A    between atoms: C_2  and  C_30
REMARK    3  A    between atoms: C_4  and  N_10
REMARK    4  A    between atoms: C_6  and  C_8
REMARK    5  A    between atoms: C_6  and  C_9
REMARK    6  A    between atoms: N_10  and  C_11
REMARK    7  A    between atoms: N_10  and  C_18
REMARK    8  A    between atoms: C_11  and  C_12
REMARK    9  A    between atoms: C_18  and  N_20
REMARK   10  A    between atoms: N_20  and  C_21
REMARK   11  A    between atoms: C_24  and  O_28
REMARK   12  A    between atoms: O_28  and  C_29
REMARK                            x       y       z     vdW  Elec       q    Type
REMARK                         _______ _______ _______ _____ _____    ______ ____
ROOT
ATOM      1  N   UNL     1      -2.854  -2.434   0.209  0.00  0.00    -0.305 N 
ENDROOT
BRANCH   1   5
ATOM      2  C   UNL     1       1.831  -3.901   0.272  0.00  0.00    -0.010 C 
ATOM      3  C   UNL     1       0.935  -2.640   0.255  0.00  0.00    -0.072 C 
ATOM      4  C   UNL     1      -0.511  -3.108   0.381  0.00  0.00    +0.009 C 
ATOM      5  C   UNL     1      -1.471  -1.949   0.112  0.00  0.00    +0.073 C 
ATOM      6  C   UNL     1      -1.215  -1.436  -1.305  0.00  0.00    +0.009 C 
ATOM      7  C   UNL     1       0.226  -0.956  -1.443  0.00  0.00    -0.072 C 
ATOM      8  N   UNL     1       1.203  -1.925  -0.981  0.00  0.00    +0.386 N 
ATOM      9  C   UNL     1       0.394   0.389  -0.728  0.00  0.00    -0.010 C 
ATOM     10  C   UNL     1       0.486  -0.705  -2.947  0.00  0.00    -0.010 C 
ATOM     11  C   UNL     1       1.317  -1.801   1.478  0.00  0.00    -0.010 C 
ATOM     12  H   UNL     1       2.107  -1.452  -0.888  0.00  0.00    -0.084 HD
ATOM     13  H   UNL     1       1.346  -2.615  -1.725  0.00  0.00    -0.084 HD
ENDBRANCH   1   5
BRANCH   1  14
ATOM     14  C   UNL     1      -3.654  -1.994   1.201  0.00  0.00    +0.138 C 
ATOM     15  S   UNL     1      -5.234  -2.631   1.371  0.00  0.00    -0.018 S 
BRANCH  14  16
ATOM     16  N   UNL     1      -3.210  -1.054   2.059  0.00  0.00    -0.297 N 
ATOM     17  H   UNL     1      -2.897  -1.311   2.940  0.00  0.00    +0.154 HD
BRANCH  16  18
ATOM     18  C   UNL     1      -3.201   0.294   1.677  0.00  0.00    +0.034 A 
ATOM     19  C   UNL     1      -3.756   0.675   0.463  0.00  0.00    +0.027 A 
ATOM     20  C   UNL     1      -3.746   2.004   0.087  0.00  0.00    +0.049 A 
ATOM     21  C   UNL     1      -3.183   2.958   0.921  0.00  0.00    +0.138 A 
ATOM     22  C   UNL     1      -2.629   2.578   2.136  0.00  0.00    +0.084 A 
ATOM     23  C   UNL     1      -2.643   1.249   2.516  0.00  0.00    +0.047 A 
ATOM     24 CL   UNL     1      -1.923   3.772   3.180  0.00  0.00    -0.080 Cl
BRANCH  21  25
ATOM     25  O   UNL     1      -3.174   4.266   0.550  0.00  0.00    -0.494 OA
ATOM     26  C   UNL     1      -3.761   4.586  -0.713  0.00  0.00    +0.277 C 
ENDBRANCH  21  25
ENDBRANCH  16  18
ENDBRANCH  14  16
ENDBRANCH   1  14
BRANCH   1  27
ATOM     27  C   UNL     1      -3.364  -3.394  -0.772  0.00  0.00    +0.142 C 
BRANCH  27  28
ATOM     28  C   UNL     1      -3.162  -4.795  -0.255  0.00  0.00    -0.030 A 
ATOM     29  C   UNL     1      -2.060  -5.528  -0.655  0.00  0.00    +0.005 A 
ATOM     30  C   UNL     1      -1.875  -6.813  -0.181  0.00  0.00    +0.000 A 
ATOM     31  C   UNL     1      -2.792  -7.366   0.694  0.00  0.00    +0.000 A 
ATOM     32  C   UNL     1      -3.894  -6.633   1.095  0.00  0.00    +0.000 A 
ATOM     33  C   UNL     1      -4.076  -5.346   0.624  0.00  0.00    +0.005 A 
ENDBRANCH  27  28
ENDBRANCH   1  27
TORSDOF 7
