REMARK  Name = ZINC49147357
REMARK  9 active torsions:
REMARK  status: ('A' for Active; 'I' for Inactive)
REMARK    1  A    between atoms: C_1  and  C_2
REMARK    2  A    between atoms: C_2  and  C_4
REMARK    3  A    between atoms: C_2  and  N_10
REMARK    4  A    between atoms: C_4  and  C_5
REMARK    5  A    between atoms: N_10  and  S_11
REMARK    6  A    between atoms: S_11  and  C_14
REMARK    7  A    between atoms: C_18  and  C_20
REMARK    8  A    between atoms: C_20  and  C_22
REMARK    9  A    between atoms: C_20  and  N_23
REMARK                            x       y       z     vdW  Elec       q    Type
REMARK                         _______ _______ _______ _____ _____    ______ ____
ROOT
ATOM      1  S   UNL     1       2.322  -0.861   1.097  0.00  0.00    +0.059 S 
ATOM      2  O   UNL     1       2.719  -1.271   2.398  0.00  0.00    -0.153 OA
ATOM      3  O   UNL     1       2.483  -1.690  -0.045  0.00  0.00    -0.153 OA
ENDROOT
BRANCH   1   4
ATOM      4  C   UNL     1       3.183   0.638   0.757  0.00  0.00    +0.105 A 
ATOM      5  C   UNL     1       3.403   1.027  -0.552  0.00  0.00    +0.028 A 
ATOM      6  C   UNL     1       4.079   2.203  -0.819  0.00  0.00    +0.002 A 
ATOM      7  C   UNL     1       4.535   2.990   0.222  0.00  0.00    +0.002 A 
ATOM      8  C   UNL     1       4.315   2.601   1.530  0.00  0.00    -0.060 A 
ATOM      9  C   UNL     1       3.635   1.427   1.798  0.00  0.00    +0.030 A 
BRANCH   8  10
ATOM     10  C   UNL     1       4.812   3.459   2.665  0.00  0.00    -0.047 C 
ATOM     11  C   UNL     1       6.305   3.203   2.881  0.00  0.00    -0.009 C 
BRANCH  10  12
ATOM     12  N   UNL     1       4.600   4.875   2.338  0.00  0.00    +0.382 N 
ATOM     13  H   UNL     1       3.615   5.044   2.196  0.00  0.00    -0.089 HD
ATOM     14  H   UNL     1       4.933   5.449   3.098  0.00  0.00    -0.089 HD
ATOM     15  H   UNL     1       5.106   5.105   1.496  0.00  0.00    -0.089 HD
ENDBRANCH  10  12
ENDBRANCH   8  10
ENDBRANCH   1   4
BRANCH   1  16
ATOM     16  N   UNL     1       0.711  -0.489   1.189  0.00  0.00    -0.187 NA
ATOM     17  H   UNL     1       0.236  -0.593   2.029  0.00  0.00    +0.148 HD
BRANCH  16  19
ATOM     18  C   UNL     1      -0.019   1.526   0.010  0.00  0.00    +0.026 C 
ATOM     19  C   UNL     1       0.002  -0.004   0.002  0.00  0.00    +0.081 C 
BRANCH  19  20
ATOM     20  C   UNL     1      -1.433  -0.534   0.013  0.00  0.00    +0.094 C 
BRANCH  20  21
ATOM     21  C   UNL     1      -1.416  -2.035  -0.119  0.00  0.00    +0.106 A 
ATOM     22  C   UNL     1      -1.369  -2.913   0.898  0.00  0.00    +0.044 A 
ATOM     23  C   UNL     1      -1.369  -4.205   0.324  0.00  0.00    +0.041 A 
ATOM     24  C   UNL     1      -1.417  -4.039  -1.010  0.00  0.00    +0.195 A 
ATOM     25  O   UNL     1      -1.451  -2.722  -1.272  0.00  0.00    -0.468 OA
ENDBRANCH  20  21
ENDBRANCH  19  20
ENDBRANCH  16  19
ENDBRANCH   1  16
TORSDOF 7
