REMARK  Name = ZINC62609821
REMARK  3 active torsions:
REMARK  status: ('A' for Active; 'I' for Inactive)
REMARK    1  A    between atoms: C_3  and  C_9
REMARK    2  A    between atoms: C_10  and  C_15
REMARK    3  A    between atoms: C_13  and  N_14
REMARK                            x       y       z     vdW  Elec       q    Type
REMARK                         _______ _______ _______ _____ _____    ______ ____
ROOT
ATOM      1  C   UNL     1       3.659   2.167  -0.022  0.00  0.00    +0.072 A 
ATOM      2  C   UNL     1       4.396   2.624  -1.202  0.00  0.00    +0.126 A 
ATOM      3  N   UNL     1       5.465   3.252  -0.771  0.00  0.00    -0.075 NA
ATOM      4  O   UNL     1       5.468   3.231   0.643  0.00  0.00    -0.339 OA
ATOM      5  C   UNL     1       4.378   2.582   1.080  0.00  0.00    +0.224 A 
ENDROOT
BRANCH   1   8
ATOM      6  C   UNL     1      -0.017   1.381   0.010  0.00  0.00    +0.039 A 
ATOM      7  C   UNL     1       1.167   2.090   0.002  0.00  0.00    +0.013 A 
ATOM      8  C   UNL     1       2.384   1.410  -0.013  0.00  0.00    +0.008 A 
ATOM      9  C   UNL     1       2.399   0.015  -0.021  0.00  0.00    +0.052 A 
ATOM     10  C   UNL     1       1.208  -0.685  -0.013  0.00  0.00    +0.059 A 
ATOM     11  C   UNL     1       0.002  -0.004   0.002  0.00  0.00    +0.125 A 
ATOM     12  F   UNL     1      -1.160  -0.693   0.009  0.00  0.00    -0.205 F 
ATOM     13 CL   UNL     1       3.910  -0.840  -0.040  0.00  0.00    -0.083 Cl
ENDBRANCH   1   8
BRANCH   2  14
ATOM     14  C   UNL     1       4.008   2.416  -2.618  0.00  0.00    +0.042 A 
ATOM     15  C   UNL     1       4.224   3.337  -3.740  0.00  0.00    +0.051 A 
ATOM     16  C   UNL     1       3.711   2.729  -4.822  0.00  0.00    +0.195 A 
ATOM     17  O   UNL     1       3.212   1.538  -4.459  0.00  0.00    -0.470 OA
ATOM     18  C   UNL     1       3.386   1.330  -3.147  0.00  0.00    +0.205 A 
ENDBRANCH   2  14
BRANCH   5  19
ATOM     19  N   UNL     1       4.037   2.366   2.400  0.00  0.00    -0.327 N 
ATOM     20  H   UNL     1       3.225   1.882   2.618  0.00  0.00    +0.145 HD
ATOM     21  H   UNL     1       4.609   2.699   3.109  0.00  0.00    +0.145 HD
ENDBRANCH   5  19
TORSDOF 3
