REMARK  Name = ZINC10121514
REMARK  7 active torsions:
REMARK  status: ('A' for Active; 'I' for Inactive)
REMARK    1  A    between atoms: C_1  and  C_2
REMARK    2  A    between atoms: C_2  and  C_26
REMARK    3  A    between atoms: C_7  and  N_8
REMARK    4  A    between atoms: N_8  and  C_9
REMARK    5  A    between atoms: C_14  and  O_15
REMARK    6  A    between atoms: O_15  and  C_16
REMARK    7  A    between atoms: C_16  and  C_17
REMARK                            x       y       z     vdW  Elec       q    Type
REMARK                         _______ _______ _______ _____ _____    ______ ____
ROOT
ATOM      1  C   UNL     1       5.739  -1.849  -2.877  0.00  0.00    +0.073 A 
ATOM      2  C   UNL     1       6.941  -2.516  -3.068  0.00  0.00    +0.027 A 
ATOM      3  C   UNL     1       7.681  -2.929  -1.978  0.00  0.00    +0.002 A 
ATOM      4  C   UNL     1       7.231  -2.676  -0.695  0.00  0.00    +0.004 A 
ATOM      5  C   UNL     1       6.037  -2.008  -0.497  0.00  0.00    +0.047 A 
ATOM      6  C   UNL     1       5.288  -1.589  -1.585  0.00  0.00    +0.142 A 
ENDROOT
BRANCH   1   7
ATOM      7  N   UNL     1       4.984  -1.433  -3.980  0.00  0.00    -0.317 N 
ATOM      8  H   UNL     1       4.146  -0.964  -3.845  0.00  0.00    +0.152 HD
BRANCH   7  15
ATOM      9  C   UNL     1       3.247   1.166  -9.448  0.00  0.00    +0.104 C 
ATOM     10  C   UNL     1       3.416  -0.030  -8.508  0.00  0.00    +0.255 C 
ATOM     11  O   UNL     1       4.779  -0.534  -8.606  0.00  0.00    -0.419 OA
ATOM     12  C   UNL     1       5.101  -1.519  -7.722  0.00  0.00    +0.350 C 
ATOM     13  O   UNL     1       5.694  -2.526  -8.057  0.00  0.00    -0.245 OA
ATOM     14  C   UNL     1       4.677  -1.274  -6.320  0.00  0.00    +0.157 C 
ATOM     15  C   UNL     1       5.422  -1.685  -5.231  0.00  0.00    +0.094 C 
ATOM     16  C   UNL     1       3.384  -0.558  -6.185  0.00  0.00    +0.350 C 
ATOM     17  O   UNL     1       2.599  -0.795  -5.287  0.00  0.00    -0.245 OA
ATOM     18  O   UNL     1       3.144   0.388  -7.140  0.00  0.00    -0.419 OA
ATOM     19  C   UNL     1       2.435  -1.133  -8.909  0.00  0.00    +0.104 C 
ENDBRANCH   7  15
ENDBRANCH   1   7
BRANCH   6  20
ATOM     20  O   UNL     1       4.113  -0.932  -1.391  0.00  0.00    -0.486 OA
BRANCH  20  21
ATOM     21  C   UNL     1       3.711  -0.707  -0.039  0.00  0.00    +0.264 C 
BRANCH  21  22
ATOM     22  C   UNL     1       2.396   0.029  -0.022  0.00  0.00    -0.010 A 
ATOM     23  C   UNL     1       1.208  -0.679  -0.014  0.00  0.00    +0.007 A 
ATOM     24  C   UNL     1       0.002  -0.004   0.002  0.00  0.00    +0.000 A 
ATOM     25  C   UNL     1      -0.017   1.378   0.010  0.00  0.00    +0.000 A 
ATOM     26  C   UNL     1       1.171   2.086   0.002  0.00  0.00    +0.000 A 
ATOM     27  C   UNL     1       2.377   1.411  -0.014  0.00  0.00    +0.007 A 
ENDBRANCH  21  22
ENDBRANCH  20  21
ENDBRANCH   6  20
TORSDOF 5
