REMARK  Name = ZINC62320286
REMARK  9 active torsions:
REMARK  status: ('A' for Active; 'I' for Inactive)
REMARK    1  A    between atoms: C_1  and  N_2
REMARK    2  A    between atoms: C_3  and  C_5
REMARK    3  A    between atoms: N_7  and  C_17
REMARK    4  A    between atoms: C_12  and  N_16
REMARK    5  A    between atoms: C_17  and  C_18
REMARK    6  A    between atoms: C_18  and  C_19
REMARK    7  A    between atoms: C_19  and  N_20
REMARK    8  A    between atoms: N_20  and  C_21
REMARK    9  A    between atoms: N_20  and  C_22
REMARK                            x       y       z     vdW  Elec       q    Type
REMARK                         _______ _______ _______ _____ _____    ______ ____
ROOT
ATOM      1  C   UNL     1       0.486  -2.141   1.076  0.00  0.00    +0.100 A 
ATOM      2  C   UNL     1       1.005  -2.833   2.150  0.00  0.00    +0.103 A 
ATOM      3  N   UNL     1       0.969  -4.171   2.222  0.00  0.00    -0.346 N 
ATOM      4  C   UNL     1       0.413  -4.956   1.234  0.00  0.00    +0.055 A 
ATOM      5  C   UNL     1       0.401  -6.342   1.357  0.00  0.00    +0.026 A 
ATOM      6  C   UNL     1      -0.157  -7.121   0.365  0.00  0.00    +0.004 A 
ATOM      7  C   UNL     1      -0.711  -6.543  -0.764  0.00  0.00    +0.023 A 
ATOM      8  C   UNL     1      -0.713  -5.165  -0.912  0.00  0.00    +0.037 A 
ATOM      9  C   UNL     1      -0.148  -4.363   0.090  0.00  0.00    +0.066 A 
ATOM     10  C   UNL     1      -0.134  -2.897  -0.025  0.00  0.00    +0.203 A 
ATOM     11  O   UNL     1      -0.612  -2.331  -0.993  0.00  0.00    -0.286 OA
ENDROOT
BRANCH   1  14
ATOM     12  C   UNL     1      -0.107   1.464   0.059  0.00  0.00    +0.128 C 
ATOM     13  N   UNL     1      -0.069  -0.001   0.040  0.00  0.00    -0.314 N 
ATOM     14  C   UNL     1       0.545  -0.672   1.035  0.00  0.00    +0.249 C 
ATOM     15  O   UNL     1       1.147  -0.062   1.898  0.00  0.00    -0.270 OA
ATOM     16  H   UNL     1      -0.485  -0.487  -0.689  0.00  0.00    +0.149 HD
ENDBRANCH   1  14
BRANCH   8  17
ATOM     17  N   UNL     1      -1.268  -4.582  -2.046  0.00  0.00    -0.357 N 
ATOM     18  H   UNL     1      -1.731  -5.132  -2.697  0.00  0.00    +0.142 HD
ATOM     19  H   UNL     1      -1.193  -3.625  -2.186  0.00  0.00    +0.142 HD
ENDBRANCH   8  17
BRANCH   3  20
ATOM     20  C   UNL     1       1.545  -4.826   3.399  0.00  0.00    +0.120 C 
BRANCH  20  21
ATOM     21  C   UNL     1       0.467  -4.984   4.473  0.00  0.00    +0.003 C 
BRANCH  21  22
ATOM     22  C   UNL     1       1.069  -5.668   5.702  0.00  0.00    -0.078 C 
BRANCH  22  23
ATOM     23  N   UNL     1       0.034  -5.820   6.734  0.00  0.00    +0.376 N 
ATOM     24  C   UNL     1      -1.008  -6.736   6.250  0.00  0.00    -0.097 C 
ATOM     25  C   UNL     1       0.638  -6.367   7.956  0.00  0.00    -0.097 C 
ATOM     26  H   UNL     1      -0.376  -4.920   6.934  0.00  0.00    -0.083 HD
ENDBRANCH  22  23
ENDBRANCH  21  22
ENDBRANCH  20  21
ENDBRANCH   3  20
TORSDOF 6
