REMARK  Name = ZINC37905145
REMARK  8 active torsions:
REMARK  status: ('A' for Active; 'I' for Inactive)
REMARK    1  A    between atoms: C_1  and  C_2
REMARK    2  A    between atoms: C_5  and  N_10
REMARK    3  A    between atoms: C_6  and  C_9
REMARK    4  A    between atoms: C_7  and  N_8
REMARK    5  A    between atoms: N_10  and  S_11
REMARK    6  A    between atoms: S_11  and  C_14
REMARK    7  A    between atoms: C_15  and  C_21
REMARK    8  A    between atoms: C_19  and  C_20
REMARK                            x       y       z     vdW  Elec       q    Type
REMARK                         _______ _______ _______ _____ _____    ______ ____
ROOT
ATOM      1  N   UNL     1       0.058  -4.172  -0.027  0.00  0.00    -0.216 N 
ATOM      2  H   UNL     1      -0.449  -4.663   0.638  0.00  0.00    +0.174 HD
ENDROOT
BRANCH   1   7
ATOM      3  C   UNL     1       0.548   1.469   0.359  0.00  0.00    +0.045 C 
ATOM      4  C   UNL     1       0.418  -0.029   0.258  0.00  0.00    -0.029 A 
ATOM      5  C   UNL     1       0.313  -0.631  -0.981  0.00  0.00    +0.007 A 
ATOM      6  C   UNL     1       0.194  -2.003  -1.078  0.00  0.00    +0.025 A 
ATOM      7  C   UNL     1       0.179  -2.784   0.072  0.00  0.00    +0.053 A 
ATOM      8  C   UNL     1       0.284  -2.183   1.318  0.00  0.00    -0.007 A 
ATOM      9  C   UNL     1       0.410  -0.804   1.411  0.00  0.00    +0.032 A 
ATOM     10  C   UNL     1       0.269  -3.027   2.567  0.00  0.00    +0.047 C 
BRANCH   9  11
ATOM     11  N   UNL     1       0.522  -0.196   2.663  0.00  0.00    -0.358 N 
ATOM     12  H   UNL     1       0.606   0.769   2.728  0.00  0.00    +0.142 HD
ATOM     13  H   UNL     1       0.516  -0.737   3.468  0.00  0.00    +0.142 HD
ENDBRANCH   9  11
ENDBRANCH   1   7
BRANCH   1  14
ATOM     14  S   UNL     1       0.780  -4.979  -1.280  0.00  0.00    +0.076 S 
ATOM     15  O   UNL     1       0.556  -6.364  -1.054  0.00  0.00    -0.150 OA
ATOM     16  O   UNL     1       0.369  -4.326  -2.474  0.00  0.00    -0.150 OA
BRANCH  14  17
ATOM     17  C   UNL     1       2.517  -4.719  -1.136  0.00  0.00    +0.151 A 
ATOM     18  C   UNL     1       3.219  -3.704  -1.690  0.00  0.00    +0.060 A 
ATOM     19  N   UNL     1       4.513  -3.862  -1.345  0.00  0.00    -0.280 N 
ATOM     20  H   UNL     1       5.247  -3.282  -1.600  0.00  0.00    +0.189 HD
ATOM     21  N   UNL     1       4.611  -5.014  -0.553  0.00  0.00    -0.177 NA
ATOM     22  C   UNL     1       3.412  -5.523  -0.423  0.00  0.00    +0.087 A 
ATOM     23  C   UNL     1       3.059  -6.764   0.355  0.00  0.00    +0.069 C 
ATOM     24  C   UNL     1       2.655  -2.594  -2.539  0.00  0.00    +0.067 C 
ENDBRANCH  14  17
ENDBRANCH   1  14
TORSDOF 4
