REMARK  Name = ZINC55849210
REMARK  7 active torsions:
REMARK  status: ('A' for Active; 'I' for Inactive)
REMARK    1  A    between atoms: C_1  and  O_2
REMARK    2  A    between atoms: O_2  and  C_3
REMARK    3  A    between atoms: C_3  and  C_4
REMARK    4  A    between atoms: C_9  and  N_10
REMARK    5  A    between atoms: N_10  and  C_11
REMARK    6  A    between atoms: C_11  and  C_12
REMARK    7  A    between atoms: N_17  and  C_18
REMARK                            x       y       z     vdW  Elec       q    Type
REMARK                         _______ _______ _______ _____ _____    ______ ____
ROOT
ATOM      1  C   UNL     1       2.991  -2.158  -5.251  0.00  0.00    +0.237 C 
ATOM      2  O   UNL     1       2.914  -0.953  -5.136  0.00  0.00    -0.274 OA
ATOM      3  N   UNL     1       3.604  -2.694  -6.325  0.00  0.00    -0.239 N 
ATOM      4  C   UNL     1       4.130  -1.891  -7.271  0.00  0.00    +0.306 C 
ATOM      5  O   UNL     1       4.052  -0.684  -7.156  0.00  0.00    -0.252 OA
ATOM      6  N   UNL     1       4.742  -2.428  -8.345  0.00  0.00    -0.294 N 
ATOM      7  H   UNL     1       3.666  -3.658  -6.417  0.00  0.00    +0.159 HD
ATOM      8  H   UNL     1       4.804  -3.392  -8.437  0.00  0.00    +0.151 HD
ENDROOT
BRANCH   6   9
ATOM      9  C   UNL     1       5.314  -1.556  -9.374  0.00  0.00    +0.037 C 
ATOM     10  C   UNL     1       4.210  -0.684  -9.975  0.00  0.00    +0.029 C 
ATOM     11  C   UNL     1       4.807   0.227 -11.050  0.00  0.00    -0.008 C 
ATOM     12  C   UNL     1       5.438  -0.628 -12.150  0.00  0.00    +0.007 C 
ATOM     13  C   UNL     1       6.542  -1.500 -11.549  0.00  0.00    -0.008 C 
ATOM     14  C   UNL     1       5.945  -2.411 -10.475  0.00  0.00    +0.029 C 
ATOM     15  C   UNL     1       7.613  -0.605 -10.922  0.00  0.00    +0.007 C 
ATOM     16  C   UNL     1       6.982   0.250  -9.821  0.00  0.00    -0.008 C 
ATOM     17  C   UNL     1       5.878   1.121 -10.422  0.00  0.00    +0.007 C 
ATOM     18  C   UNL     1       6.385  -0.661  -8.746  0.00  0.00    +0.029 C 
ENDBRANCH   6   9
BRANCH   1  19
ATOM     19  C   UNL     1       2.403  -3.055  -4.192  0.00  0.00    +0.198 C 
BRANCH  19  20
ATOM     20  N   UNL     1       1.799  -2.236  -3.138  0.00  0.00    -0.335 N 
ATOM     21  H   UNL     1       1.825  -1.268  -3.201  0.00  0.00    +0.147 HD
BRANCH  20  27
ATOM     22  C   UNL     1       0.614  -2.074  -1.042  0.00  0.00    -0.001 A 
ATOM     23  C   UNL     1       0.004  -2.683   0.037  0.00  0.00    +0.008 A 
ATOM     24  C   UNL     1      -0.031  -4.062   0.125  0.00  0.00    +0.000 A 
ATOM     25  C   UNL     1       0.543  -4.837  -0.866  0.00  0.00    +0.002 A 
ATOM     26  C   UNL     1       1.154  -4.234  -1.948  0.00  0.00    +0.023 A 
ATOM     27  C   UNL     1       1.187  -2.849  -2.043  0.00  0.00    +0.033 A 
BRANCH  22  28
ATOM     28  C   UNL     1       0.652  -0.570  -1.138  0.00  0.00    +0.196 C 
BRANCH  28  30
ATOM     29  C   UNL     1      -0.017   1.425   0.010  0.00  0.00    +0.194 C 
ATOM     30  O   UNL     1       0.002  -0.004   0.002  0.00  0.00    -0.378 OA
ENDBRANCH  28  30
ENDBRANCH  22  28
ENDBRANCH  20  27
ENDBRANCH  19  20
ENDBRANCH   1  19
TORSDOF 6
