REMARK  Name = ZINC33440645
REMARK  9 active torsions:
REMARK  status: ('A' for Active; 'I' for Inactive)
REMARK    1  A    between atoms: C_1  and  N_2
REMARK    2  A    between atoms: N_2  and  C_3
REMARK    3  A    between atoms: N_2  and  C_10
REMARK    4  A    between atoms: C_6  and  O_9
REMARK    5  A    between atoms: C_10  and  C_12
REMARK    6  A    between atoms: C_10  and  C_14
REMARK    7  A    between atoms: C_12  and  N_13
REMARK    8  A    between atoms: C_17  and  O_21
REMARK    9  A    between atoms: C_19  and  O_20
REMARK                            x       y       z     vdW  Elec       q    Type
REMARK                         _______ _______ _______ _____ _____    ______ ____
ROOT
ATOM      1  C   UNL     1      -0.863   3.028  -1.045  0.00  0.00    +0.089 C 
ENDROOT
BRANCH   1   2
ATOM      2  C   UNL     1      -1.657   3.597  -2.193  0.00  0.00    +0.013 A 
ATOM      3  C   UNL     1      -1.873   2.837  -3.326  0.00  0.00    +0.012 A 
ATOM      4  C   UNL     1      -2.605   3.353  -4.378  0.00  0.00    +0.046 A 
ATOM      5  C   UNL     1      -3.117   4.641  -4.303  0.00  0.00    +0.120 A 
ATOM      6  C   UNL     1      -2.897   5.407  -3.169  0.00  0.00    +0.091 A 
ATOM      7  C   UNL     1      -2.167   4.885  -2.112  0.00  0.00    +0.125 A 
BRANCH   7   8
ATOM      8  O   UNL     1      -1.949   5.634  -1.000  0.00  0.00    -0.506 OA
ATOM      9  H   UNL     1      -2.353   6.655  -0.936  0.00  0.00    +0.292 HD
ENDBRANCH   7   8
BRANCH   5  10
ATOM     10  O   UNL     1      -3.833   5.150  -5.340  0.00  0.00    -0.507 OA
ATOM     11  H   UNL     1      -4.238   6.171  -5.279  0.00  0.00    +0.292 HD
ENDBRANCH   5  10
ENDBRANCH   1   2
BRANCH   1  13
ATOM     12  C   UNL     1       1.313   3.533  -2.248  0.00  0.00    +0.130 C 
ATOM     13  N   UNL     1       0.481   3.611  -1.045  0.00  0.00    -0.328 N 
BRANCH  13  14
ATOM     14  C   UNL     1       0.970   4.243   0.104  0.00  0.00    +0.030 A 
ATOM     15  C   UNL     1       0.142   4.419   1.205  0.00  0.00    +0.027 A 
ATOM     16  C   UNL     1       0.627   5.038   2.341  0.00  0.00    +0.047 A 
ATOM     17  C   UNL     1       1.937   5.493   2.377  0.00  0.00    +0.117 A 
ATOM     18  C   UNL     1       2.762   5.323   1.276  0.00  0.00    +0.047 A 
ATOM     19  C   UNL     1       2.280   4.700   0.141  0.00  0.00    +0.027 A 
BRANCH  17  20
ATOM     20  O   UNL     1       2.412   6.107   3.494  0.00  0.00    -0.507 OA
ATOM     21  H   UNL     1       3.450   6.468   3.524  0.00  0.00    +0.292 HD
ENDBRANCH  17  20
ENDBRANCH  13  14
ENDBRANCH   1  13
BRANCH   1  22
ATOM     22  C   UNL     1      -0.760   1.510  -1.199  0.00  0.00    -0.059 C 
BRANCH  22  23
ATOM     23  N   UNL     1       0.113   0.969  -0.148  0.00  0.00    +0.380 N 
ATOM     24  H   UNL     1       0.187  -0.123  -0.259  0.00  0.00    -0.090 HD
ATOM     25  H   UNL     1      -0.309   1.210   0.839  0.00  0.00    -0.090 HD
ATOM     26  H   UNL     1       1.114   1.415  -0.238  0.00  0.00    -0.090 HD
ENDBRANCH  22  23
ENDBRANCH   1  22
TORSDOF 8
