REMARK  Name = ZINC65021742
REMARK  4 active torsions:
REMARK  status: ('A' for Active; 'I' for Inactive)
REMARK    1  A    between atoms: C_3  and  N_8
REMARK    2  A    between atoms: N_8  and  S_9
REMARK    3  A    between atoms: S_9  and  C_12
REMARK    4  A    between atoms: C_21  and  C_24
REMARK                            x       y       z     vdW  Elec       q    Type
REMARK                         _______ _______ _______ _____ _____    ______ ____
ROOT
ATOM      1  C   UNL     1       6.304   2.529  -0.046  0.00  0.00    +0.112 A 
ATOM      2  C   UNL     1       6.786   3.012  -1.248  0.00  0.00    +0.030 A 
ATOM      3  C   UNL     1       7.791   3.962  -1.256  0.00  0.00    +0.018 A 
ATOM      4  C   UNL     1       8.309   4.428  -0.059  0.00  0.00    +0.030 A 
ATOM      5  C   UNL     1       7.823   3.951   1.158  0.00  0.00    +0.049 A 
ATOM      6  C   UNL     1       6.812   2.995   1.150  0.00  0.00    +0.053 A 
ATOM      7  N   UNL     1       8.307   4.417   2.377  0.00  0.00    -0.283 N 
ATOM      8  C   UNL     1       9.018   5.522   2.578  0.00  0.00    +0.240 C 
ATOM      9  O   UNL     1       9.460   5.729   3.689  0.00  0.00    -0.274 OA
ATOM     10  C   UNL     1       9.303   6.529   1.494  0.00  0.00    +0.223 C 
ATOM     11  S   UNL     1       9.600   5.633  -0.061  0.00  0.00    -0.101 S 
ATOM     12  H   UNL     1       8.105   3.881   3.159  0.00  0.00    +0.155 HD
ENDROOT
BRANCH  10  13
ATOM     13  C   UNL     1       8.121   7.450   1.335  0.00  0.00    +0.238 C 
ATOM     14  O   UNL     1       7.003   7.048   1.575  0.00  0.00    -0.274 OA
ATOM     15  N   UNL     1       8.308   8.721   0.927  0.00  0.00    -0.300 N 
ATOM     16  C   UNL     1       9.653   9.168   0.644  0.00  0.00    +0.108 C 
ATOM     17  C   UNL     1      10.295   9.735   1.934  0.00  0.00    +0.019 C 
ATOM     18  C   UNL     1       9.677  11.023   2.288  0.00  0.00    +0.002 C 
ATOM     19  C   UNL     1       8.189  10.938   2.611  0.00  0.00    +0.002 C 
ATOM     20  C   UNL     1       7.393  11.015   1.332  0.00  0.00    +0.019 C 
ATOM     21  C   UNL     1       7.129   9.597   0.782  0.00  0.00    +0.108 C 
ENDBRANCH  10  13
BRANCH   1  22
ATOM     22  S   UNL     1       5.027   1.315  -0.039  0.00  0.00    +0.092 S 
ATOM     23  O   UNL     1       5.124   0.629   1.202  0.00  0.00    -0.148 OA
ATOM     24  O   UNL     1       5.100   0.642  -1.289  0.00  0.00    -0.148 OA
BRANCH  22  25
ATOM     25  N   UNL     1       3.582   2.124  -0.021  0.00  0.00    -0.098 NA
BRANCH  25  28
ATOM     26  C   UNL     1      -0.017   1.378   0.010  0.00  0.00    +0.003 A 
ATOM     27  C   UNL     1       1.169   2.087   0.002  0.00  0.00    +0.027 A 
ATOM     28  C   UNL     1       2.382   1.410  -0.013  0.00  0.00    +0.076 A 
ATOM     29  C   UNL     1       2.398   0.021  -0.021  0.00  0.00    +0.046 A 
ATOM     30  C   UNL     1       1.208  -0.683  -0.013  0.00  0.00    +0.043 A 
ATOM     31  C   UNL     1       0.002  -0.004   0.002  0.00  0.00    +0.020 A 
ATOM     32 CL   UNL     1       1.227  -2.419  -0.023  0.00  0.00    -0.083 Cl
ENDBRANCH  25  28
ENDBRANCH  22  25
ENDBRANCH   1  22
TORSDOF 4
