REMARK  Name = ZINC49100802
REMARK  11 active torsions:
REMARK  status: ('A' for Active; 'I' for Inactive)
REMARK    1  A    between atoms: C_1  and  C_2
REMARK    2  A    between atoms: C_2  and  C_3
REMARK    3  A    between atoms: C_3  and  C_4
REMARK    4  A    between atoms: C_4  and  C_5
REMARK    5  A    between atoms: C_5  and  C_6
REMARK    6  A    between atoms: C_6  and  C_8
REMARK    7  A    between atoms: C_6  and  N_9
REMARK    8  A    between atoms: C_10  and  C_21
REMARK    9  A    between atoms: C_11  and  C_20
REMARK   10  A    between atoms: C_15  and  C_19
REMARK   11  A    between atoms: C_17  and  N_18
REMARK                            x       y       z     vdW  Elec       q    Type
REMARK                         _______ _______ _______ _____ _____    ______ ____
ROOT
ATOM      1  N   UNL     1       2.126  -4.564   3.708  0.00  0.00    -0.326 N 
ATOM      2  C   UNL     1       1.500  -5.374   4.620  0.00  0.00    +0.021 A 
ATOM      3  C   UNL     1       2.330  -5.634   5.643  0.00  0.00    -0.017 A 
ATOM      4  C   UNL     1       3.582  -4.935   5.360  0.00  0.00    +0.062 A 
ATOM      5  C   UNL     1       3.397  -4.283   4.126  0.00  0.00    +0.147 A 
ATOM      6  N   UNL     1       4.404  -3.567   3.627  0.00  0.00    -0.214 NA
ATOM      7  C   UNL     1       5.546  -3.474   4.272  0.00  0.00    +0.130 A 
ATOM      8  N   UNL     1       5.763  -4.072   5.430  0.00  0.00    -0.217 NA
ATOM      9  C   UNL     1       4.817  -4.802   6.013  0.00  0.00    +0.129 A 
ATOM     10  C   UNL     1       6.654  -2.652   3.665  0.00  0.00    +0.088 C 
ATOM     11  C   UNL     1       2.028  -6.482   6.852  0.00  0.00    +0.046 C 
ATOM     12  C   UNL     1       0.091  -5.894   4.494  0.00  0.00    +0.064 C 
ENDROOT
BRANCH   9  13
ATOM     13  N   UNL     1       5.048  -5.427   7.225  0.00  0.00    -0.343 N 
ATOM     14  H   UNL     1       4.353  -5.965   7.634  0.00  0.00    +0.144 HD
ATOM     15  H   UNL     1       5.907  -5.327   7.666  0.00  0.00    +0.144 HD
ENDBRANCH   9  13
BRANCH   1  16
ATOM     16  C   UNL     1       1.524  -4.077   2.464  0.00  0.00    +0.086 C 
ATOM     17  C   UNL     1       2.346  -4.570   1.272  0.00  0.00    +0.031 C 
BRANCH  16  18
ATOM     18  C   UNL     1       1.503  -2.548   2.473  0.00  0.00    +0.025 C 
BRANCH  18  19
ATOM     19  C   UNL     1       0.763  -2.041   1.233  0.00  0.00    +0.002 C 
BRANCH  19  20
ATOM     20  C   UNL     1       0.742  -0.511   1.242  0.00  0.00    -0.000 C 
BRANCH  20  22
ATOM     21  C   UNL     1      -0.019   1.526   0.010  0.00  0.00    +0.004 C 
ATOM     22  C   UNL     1       0.002  -0.004   0.002  0.00  0.00    -0.003 C 
ENDBRANCH  20  22
ENDBRANCH  19  20
ENDBRANCH  18  19
ENDBRANCH  16  18
ENDBRANCH   1  16
TORSDOF 6
