REMARK  Name = ZINC38161116
REMARK  8 active torsions:
REMARK  status: ('A' for Active; 'I' for Inactive)
REMARK    1  A    between atoms: C_4  and  O_35
REMARK    2  A    between atoms: C_5  and  C_7
REMARK    3  A    between atoms: N_8  and  N_9
REMARK    4  A    between atoms: N_11  and  C_28
REMARK    5  A    between atoms: C_14  and  C_17
REMARK    6  A    between atoms: C_17  and  C_18
REMARK    7  A    between atoms: N_20  and  C_21
REMARK    8  A    between atoms: C_31  and  O_34
REMARK                            x       y       z     vdW  Elec       q    Type
REMARK                         _______ _______ _______ _____ _____    ______ ____
ROOT
ATOM      1  N   UNL     1       2.547  -4.080   0.696  0.00  0.00    -0.126 NA
ATOM      2  C   UNL     1       3.691  -4.650   0.380  0.00  0.00    +0.190 C 
ATOM      3  N   UNL     1       4.943  -4.071   0.317  0.00  0.00    -0.217 N 
ATOM      4  C   UNL     1       6.024  -4.756  -0.015  0.00  0.00    +0.239 C 
ATOM      5  O   UNL     1       7.121  -4.242  -0.069  0.00  0.00    -0.274 OA
ATOM      6  C   UNL     1       5.806  -6.228  -0.326  0.00  0.00    +0.149 C 
ATOM      7  S   UNL     1       3.989  -6.356  -0.059  0.00  0.00    -0.075 S 
ENDROOT
BRANCH   3   8
ATOM      8  C   UNL     1       5.072  -2.707   0.615  0.00  0.00    +0.043 A 
ATOM      9  C   UNL     1       5.733  -2.308   1.769  0.00  0.00    +0.027 A 
ATOM     10  C   UNL     1       5.860  -0.965   2.062  0.00  0.00    +0.047 A 
ATOM     11  C   UNL     1       5.328  -0.014   1.204  0.00  0.00    +0.117 A 
ATOM     12  C   UNL     1       4.668  -0.412   0.051  0.00  0.00    +0.047 A 
ATOM     13  C   UNL     1       4.545  -1.755  -0.246  0.00  0.00    +0.027 A 
BRANCH  11  14
ATOM     14  O   UNL     1       5.454   1.308   1.494  0.00  0.00    -0.507 OA
ATOM     15  H   UNL     1       6.253   1.716   1.132  0.00  0.00    +0.292 HD
ENDBRANCH  11  14
ENDBRANCH   3   8
BRANCH   1  17
ATOM     16  C   UNL     1       1.639  -2.024   0.663  0.00  0.00    +0.146 C 
ATOM     17  N   UNL     1       2.529  -2.862   1.121  0.00  0.00    -0.155 NA
BRANCH  16  22
ATOM     18  C   UNL     1       0.528   1.506   1.269  0.00  0.00    +0.001 A 
ATOM     19  C   UNL     1       1.274   1.837   2.388  0.00  0.00    +0.004 A 
ATOM     20  C   UNL     1       2.140   0.917   2.949  0.00  0.00    +0.046 A 
ATOM     21  C   UNL     1       2.267  -0.345   2.394  0.00  0.00    +0.125 A 
ATOM     22  C   UNL     1       1.513  -0.686   1.261  0.00  0.00    +0.036 A 
ATOM     23  C   UNL     1       0.641   0.254   0.703  0.00  0.00    +0.013 A 
BRANCH  21  24
ATOM     24  O   UNL     1       3.118  -1.250   2.944  0.00  0.00    -0.506 OA
ATOM     25  H   UNL     1       2.737  -1.753   3.677  0.00  0.00    +0.292 HD
ENDBRANCH  21  24
ENDBRANCH  16  22
ENDBRANCH   1  17
BRANCH   6  26
ATOM     26  C   UNL     1       6.570  -7.120   0.655  0.00  0.00    +0.120 C 
BRANCH  26  27
ATOM     27  C   UNL     1       6.427  -8.562   0.239  0.00  0.00    +0.219 C 
ATOM     28  O   UNL     1       5.778  -8.847  -0.745  0.00  0.00    -0.275 OA
ATOM     29  N   UNL     1       7.021  -9.533   0.960  0.00  0.00    -0.285 N 
ATOM     30  H   UNL     1       7.478  -9.313   1.786  0.00  0.00    +0.155 HD
BRANCH  29  31
ATOM     31  C   UNL     1       6.977 -10.860   0.516  0.00  0.00    +0.033 A 
ATOM     32  C   UNL     1       6.900 -11.899   1.435  0.00  0.00    +0.025 A 
ATOM     33  C   UNL     1       6.857 -13.207   0.994  0.00  0.00    +0.022 A 
ATOM     34  C   UNL     1       6.891 -13.483  -0.361  0.00  0.00    +0.041 A 
ATOM     35  C   UNL     1       6.968 -12.450  -1.279  0.00  0.00    +0.022 A 
ATOM     36  C   UNL     1       7.005 -11.140  -0.844  0.00  0.00    +0.025 A 
ATOM     37 CL   UNL     1       6.837 -15.129  -0.912  0.00  0.00    -0.084 Cl
ENDBRANCH  29  31
ENDBRANCH  26  27
ENDBRANCH   6  26
TORSDOF 8
