REMARK  Name = ZINC52008938
REMARK  4 active torsions:
REMARK  status: ('A' for Active; 'I' for Inactive)
REMARK    1  A    between atoms: C_6  and  S_10
REMARK    2  A    between atoms: S_10  and  N_13
REMARK    3  A    between atoms: N_13  and  C_14
REMARK    4  A    between atoms: C_20  and  O_22
REMARK                            x       y       z     vdW  Elec       q    Type
REMARK                         _______ _______ _______ _____ _____    ______ ____
ROOT
ATOM      1  S   UNL     1      -2.667  -0.909   0.023  0.00  0.00    +0.078 S 
ATOM      2  O   UNL     1      -3.171  -2.119   0.572  0.00  0.00    -0.152 OA
ATOM      3  O   UNL     1      -2.962   0.363   0.584  0.00  0.00    -0.152 OA
ENDROOT
BRANCH   1   9
ATOM      4  C   UNL     1      -0.017   1.374   0.010  0.00  0.00    +0.102 A 
ATOM      5  C   UNL     1       1.118   2.071   0.003  0.00  0.00    +0.067 A 
ATOM      6  S   UNL     1       2.347   0.776  -0.016  0.00  0.00    -0.058 S 
ATOM      7  C   UNL     1       1.231  -0.608  -0.013  0.00  0.00    +0.180 A 
ATOM      8  N   UNL     1       0.002  -0.004   0.002  0.00  0.00    -0.276 N 
ATOM      9  C   UNL     1      -0.911  -1.056   0.005  0.00  0.00    +0.218 A 
ATOM     10  C   UNL     1      -0.212  -2.204  -0.008  0.00  0.00    +0.176 A 
ATOM     11  N   UNL     1       1.096  -1.903  -0.018  0.00  0.00    -0.208 NA
ATOM     12 CL   UNL     1      -0.885  -3.804  -0.011  0.00  0.00    -0.058 Cl
ENDBRANCH   1   9
BRANCH   1  13
ATOM     13  N   UNL     1      -3.170  -0.859  -1.554  0.00  0.00    -0.183 NA
ATOM     14  H   UNL     1      -3.591  -0.058  -1.904  0.00  0.00    +0.148 HD
BRANCH  13  15
ATOM     15  C   UNL     1      -2.980  -2.025  -2.421  0.00  0.00    +0.105 C 
ATOM     16  C   UNL     1      -1.681  -1.865  -3.212  0.00  0.00    +0.023 C 
ATOM     17  C   UNL     1      -1.482  -3.083  -4.118  0.00  0.00    +0.002 C 
ATOM     18  C   UNL     1      -2.660  -3.195  -5.088  0.00  0.00    +0.003 C 
ATOM     19  C   UNL     1      -3.960  -3.354  -4.296  0.00  0.00    +0.033 C 
ATOM     20  C   UNL     1      -4.158  -2.137  -3.390  0.00  0.00    +0.133 C 
BRANCH  20  21
ATOM     21  O   UNL     1      -5.372  -2.286  -2.651  0.00  0.00    -0.390 OA
ATOM     22  H   UNL     1      -6.162  -2.363  -3.203  0.00  0.00    +0.210 HD
ENDBRANCH  20  21
ENDBRANCH  13  15
ENDBRANCH   1  13
TORSDOF 4
