REMARK  Name = ZINC02542335
REMARK  7 active torsions:
REMARK  status: ('A' for Active; 'I' for Inactive)
REMARK    1  A    between atoms: C_1  and  C_2
REMARK    2  A    between atoms: C_5  and  N_8
REMARK    3  A    between atoms: N_8  and  N_9
REMARK    4  A    between atoms: C_12  and  C_19
REMARK    5  A    between atoms: C_14  and  C_17
REMARK    6  A    between atoms: C_15  and  N_16
REMARK    7  A    between atoms: C_22  and  N_25
REMARK                            x       y       z     vdW  Elec       q    Type
REMARK                         _______ _______ _______ _____ _____    ______ ____
ROOT
ATOM      1  N   UNL     1       3.215  -0.644  -1.723  0.00  0.00    -0.211 N 
ATOM      2  C   UNL     1       2.199  -0.017  -1.054  0.00  0.00    +0.039 C 
ATOM      3  C   UNL     1       2.399   1.181  -0.465  0.00  0.00    +0.026 C 
ATOM      4  C   UNL     1       3.739   1.867  -0.540  0.00  0.00    +0.097 C 
ATOM      5  C   UNL     1       4.822   0.899  -0.918  0.00  0.00    +0.078 C 
ATOM      6  C   UNL     1       4.525  -0.297  -1.489  0.00  0.00    +0.119 C 
ATOM      7  C   UNL     1       1.366   1.823   0.240  0.00  0.00    +0.162 C 
ATOM      8  O   UNL     1       1.575   2.907   0.748  0.00  0.00    -0.292 OA
ATOM      9  C   UNL     1       0.006   1.195   0.375  0.00  0.00    +0.080 C 
ATOM     10  C   UNL     1       0.152  -0.329   0.318  0.00  0.00    +0.014 C 
ATOM     11  C   UNL     1       0.855  -0.700  -0.990  0.00  0.00    +0.053 C 
ENDROOT
BRANCH   4  12
ATOM     12  C   UNL     1       3.675   2.965  -1.571  0.00  0.00    -0.035 A 
ATOM     13  C   UNL     1       3.314   2.671  -2.872  0.00  0.00    +0.007 A 
ATOM     14  C   UNL     1       3.251   3.679  -3.816  0.00  0.00    +0.033 A 
ATOM     15  C   UNL     1       3.559   4.979  -3.461  0.00  0.00    +0.126 A 
ATOM     16  C   UNL     1       3.925   5.272  -2.161  0.00  0.00    +0.033 A 
ATOM     17  C   UNL     1       3.983   4.265  -1.215  0.00  0.00    +0.007 A 
BRANCH  15  18
ATOM     18  N   UNL     1       3.497   6.057  -4.473  0.00  0.00    +0.056 N 
ATOM     19  O   UNL     1       3.769   7.202  -4.160  0.00  0.00    -0.126 OA
ATOM     20  O   UNL     1       3.174   5.799  -5.619  0.00  0.00    -0.126 OA
ENDBRANCH  15  18
ENDBRANCH   4  12
BRANCH   6  21
ATOM     21  N   UNL     1       5.535  -1.163  -1.833  0.00  0.00    -0.344 N 
ATOM     22  H   UNL     1       6.583  -0.886  -1.647  0.00  0.00    +0.144 HD
ATOM     23  H   UNL     1       5.296  -2.132  -2.295  0.00  0.00    +0.144 HD
ENDBRANCH   6  21
BRANCH   1  24
ATOM     24  N   UNL     1       2.919  -1.648  -2.654  0.00  0.00    -0.259 N 
ATOM     25  H   UNL     1       2.550  -1.378  -3.655  0.00  0.00    +0.171 HD
BRANCH  24  30
ATOM     26  C   UNL     1       3.614  -7.101  -1.263  0.00  0.00    +0.044 C 
ATOM     27  C   UNL     1       3.430  -5.652  -1.633  0.00  0.00    -0.050 A 
ATOM     28  C   UNL     1       3.075  -5.309  -2.925  0.00  0.00    +0.005 A 
ATOM     29  C   UNL     1       2.904  -3.982  -3.267  0.00  0.00    +0.025 A 
ATOM     30  C   UNL     1       3.090  -2.991  -2.311  0.00  0.00    +0.045 A 
ATOM     31  C   UNL     1       3.452  -3.338  -1.016  0.00  0.00    +0.025 A 
ATOM     32  C   UNL     1       3.615  -4.668  -0.679  0.00  0.00    +0.005 A 
ENDBRANCH  24  30
ENDBRANCH   1  24
BRANCH   5  33
ATOM     33  C   UNL     1       6.190   1.243  -0.674  0.00  0.00    +0.099 C 
ATOM     34  N   UNL     1       7.276   1.515  -0.479  0.00  0.00    -0.191 NA
ENDBRANCH   5  33
TORSDOF 6
