REMARK  Name = ZINC33024420
REMARK  12 active torsions:
REMARK  status: ('A' for Active; 'I' for Inactive)
REMARK    1  A    between atoms: C_1  and  C_2
REMARK    2  A    between atoms: C_2  and  N_3
REMARK    3  A    between atoms: N_6  and  C_9
REMARK    4  A    between atoms: C_9  and  C_10
REMARK    5  A    between atoms: C_10  and  C_11
REMARK    6  A    between atoms: C_11  and  N_12
REMARK    7  A    between atoms: C_13  and  C_15
REMARK    8  A    between atoms: C_15  and  C_16
REMARK    9  A    between atoms: C_22  and  C_24
REMARK   10  A    between atoms: C_25  and  C_32
REMARK   11  A    between atoms: C_26  and  C_31
REMARK   12  A    between atoms: C_27  and  C_30
REMARK                            x       y       z     vdW  Elec       q    Type
REMARK                         _______ _______ _______ _____ _____    ______ ____
ROOT
ATOM      1  C   UNL     1      -0.303   1.092  -0.011  0.00  0.00    +0.099 C 
ENDROOT
BRANCH   1   2
ATOM      2  C   UNL     1      -0.943   1.586   1.289  0.00  0.00    +0.001 C 
ATOM      3  C   UNL     1      -0.847   3.112   1.356  0.00  0.00    +0.023 C 
ATOM      4  C   UNL     1      -1.519   3.605   2.642  0.00  0.00    +0.108 C 
ATOM      5  N   UNL     1      -0.915   2.911   3.787  0.00  0.00    -0.296 N 
ATOM      6  C   UNL     1      -0.873   1.443   3.781  0.00  0.00    +0.108 C 
ATOM      7  C   UNL     1      -0.208   0.974   2.483  0.00  0.00    +0.023 C 
ATOM      8  C   UNL     1      -0.409   3.609   4.824  0.00  0.00    +0.263 C 
ATOM      9  O   UNL     1       0.007   3.023   5.806  0.00  0.00    -0.268 OA
BRANCH   8  10
ATOM     10  C   UNL     1      -0.361   5.074   4.768  0.00  0.00    +0.105 A 
ATOM     11  C   UNL     1      -1.425   5.932   4.943  0.00  0.00    -0.018 A 
ATOM     12  C   UNL     1      -0.930   7.233   4.811  0.00  0.00    -0.027 A 
ATOM     13  C   UNL     1       0.397   7.149   4.553  0.00  0.00    +0.017 A 
ATOM     14  N   UNL     1       0.755   5.842   4.525  0.00  0.00    -0.354 N 
ATOM     15  H   UNL     1       1.728   5.359   4.349  0.00  0.00    +0.166 HD
ATOM     16  C   UNL     1       1.323   8.317   4.335  0.00  0.00    +0.063 C 
ATOM     17  C   UNL     1      -1.732   8.504   4.928  0.00  0.00    +0.046 C 
ATOM     18  C   UNL     1      -2.853   5.541   5.227  0.00  0.00    +0.046 C 
ENDBRANCH   8  10
ENDBRANCH   1   2
BRANCH   1  20
ATOM     19  N   UNL     1      -0.720   1.284  -2.441  0.00  0.00    -0.315 N 
ATOM     20  C   UNL     1      -1.100   1.596  -1.186  0.00  0.00    +0.213 C 
ATOM     21  O   UNL     1      -2.083   2.282  -1.003  0.00  0.00    -0.276 OA
ATOM     22  H   UNL     1       0.172   0.661  -2.607  0.00  0.00    +0.149 HD
BRANCH  19  23
ATOM     23  C   UNL     1      -1.495   1.773  -3.584  0.00  0.00    +0.105 C 
BRANCH  23  24
ATOM     24  C   UNL     1      -0.855   1.280  -4.883  0.00  0.00    +0.034 C 
BRANCH  24  25
ATOM     25  C   UNL     1      -1.665   1.791  -6.077  0.00  0.00    +0.086 C 
BRANCH  25  29
ATOM     26  N   UNL     1       0.040   1.609  -9.937  0.00  0.00    +0.381 N 
ATOM     27  C   UNL     1      -1.285   1.006  -9.741  0.00  0.00    -0.063 C 
ATOM     28  C   UNL     1      -1.923   1.584  -8.476  0.00  0.00    +0.066 C 
ATOM     29  N   UNL     1      -1.050   1.317  -7.324  0.00  0.00    -0.306 NA
ATOM     30  C   UNL     1       0.275   1.920  -7.520  0.00  0.00    +0.066 C 
ATOM     31  C   UNL     1       0.913   1.342  -8.786  0.00  0.00    -0.063 C 
ATOM     32  H   UNL     1      -0.091   2.698 -10.019  0.00  0.00    -0.082 HD
BRANCH  26  34
ATOM     33  C   UNL     1       1.907   1.961 -11.482  0.00  0.00    -0.017 C 
ATOM     34  C   UNL     1       0.655   1.135 -11.185  0.00  0.00    -0.082 C 
ENDBRANCH  26  34
ENDBRANCH  25  29
ENDBRANCH  24  25
ENDBRANCH  23  24
ENDBRANCH  19  23
ENDBRANCH   1  20
TORSDOF 8
