REMARK  Name = ZINC08445327
REMARK  8 active torsions:
REMARK  status: ('A' for Active; 'I' for Inactive)
REMARK    1  A    between atoms: C_4  and  C_7
REMARK    2  A    between atoms: C_8  and  C_9
REMARK    3  A    between atoms: C_8  and  C_13
REMARK    4  A    between atoms: C_8  and  N_17
REMARK    5  A    between atoms: C_8  and  N_44
REMARK    6  A    between atoms: C_18  and  C_20
REMARK    7  A    between atoms: C_20  and  O_21
REMARK    8  A    between atoms: O_21  and  C_22
REMARK                            x       y       z     vdW  Elec       q    Type
REMARK                         _______ _______ _______ _____ _____    ______ ____
ROOT
ATOM      1  C   UNL     1      -0.045   1.990   1.828  0.00  0.00    +0.300 C 
ENDROOT
BRANCH   1   6
ATOM      2  C   UNL     1      -0.079   4.447   1.982  0.00  0.00    +0.099 C 
ATOM      3  N   UNL     1       0.009   5.671   1.356  0.00  0.00    -0.344 N 
ATOM      4  H   UNL     1       0.227   5.719   0.411  0.00  0.00    +0.144 HD
ATOM      5  H   UNL     1      -0.146   6.486   1.859  0.00  0.00    +0.144 HD
ATOM      6  N   UNL     1       0.151   3.359   1.238  0.00  0.00    -0.338 N 
ATOM      7  H   UNL     1       0.462   3.459   0.265  0.00  0.00    +0.163 HD
BRANCH   2  11
ATOM      8  C   UNL     1      -1.031   4.240   6.118  0.00  0.00    +0.000 A 
ATOM      9  C   UNL     1       0.231   4.644   5.721  0.00  0.00    +0.001 A 
ATOM     10  C   UNL     1       0.546   4.713   4.380  0.00  0.00    +0.011 A 
ATOM     11  C   UNL     1      -0.411   4.374   3.423  0.00  0.00    +0.012 A 
ATOM     12  C   UNL     1      -1.683   3.972   3.829  0.00  0.00    +0.011 A 
ATOM     13  C   UNL     1      -1.984   3.902   5.174  0.00  0.00    +0.001 A 
ENDBRANCH   2  11
ENDBRANCH   1   6
BRANCH   1  14
ATOM     14  C   UNL     1       0.326   0.974   0.746  0.00  0.00    +0.438 C 
ATOM     15  F   UNL     1       0.248  -0.319   1.273  0.00  0.00    -0.166 F 
ATOM     16  F   UNL     1       1.631   1.219   0.304  0.00  0.00    -0.166 F 
ATOM     17  F   UNL     1      -0.560   1.094  -0.330  0.00  0.00    -0.166 F 
ENDBRANCH   1  14
BRANCH   1  18
ATOM     18  C   UNL     1       0.862   1.792   3.045  0.00  0.00    +0.438 C 
ATOM     19  F   UNL     1       1.994   2.605   2.920  0.00  0.00    -0.166 F 
ATOM     20  F   UNL     1       0.164   2.139   4.207  0.00  0.00    -0.166 F 
ATOM     21  F   UNL     1       1.255   0.452   3.120  0.00  0.00    -0.166 F 
ENDBRANCH   1  18
BRANCH   1  22
ATOM     22  N   UNL     1      -1.442   1.795   2.223  0.00  0.00    -0.276 N 
ATOM     23  C   UNL     1      -1.810   0.667   2.863  0.00  0.00    +0.253 C 
ATOM     24  O   UNL     1      -0.971  -0.141   3.199  0.00  0.00    -0.272 OA
ATOM     25  H   UNL     1      -2.102   2.477   2.023  0.00  0.00    +0.152 HD
BRANCH  23  26
ATOM     26  C   UNL     1      -3.265   0.411   3.160  0.00  0.00    +0.324 C 
BRANCH  26  27
ATOM     27  O   UNL     1      -3.399  -0.840   3.839  0.00  0.00    -0.483 OA
BRANCH  27  28
ATOM     28  C   UNL     1      -4.657  -1.224   4.183  0.00  0.00    +0.121 A 
ATOM     29  C   UNL     1      -5.739  -0.411   3.877  0.00  0.00    +0.045 A 
ATOM     30  C   UNL     1      -7.017  -0.806   4.222  0.00  0.00    +0.004 A 
ATOM     31  C   UNL     1      -7.217  -2.005   4.881  0.00  0.00    +0.000 A 
ATOM     32  C   UNL     1      -6.139  -2.814   5.192  0.00  0.00    +0.004 A 
ATOM     33  C   UNL     1      -4.860  -2.426   4.844  0.00  0.00    +0.045 A 
ENDBRANCH  27  28
ENDBRANCH  26  27
ENDBRANCH  23  26
ENDBRANCH   1  22
TORSDOF 8
