REMARK  Name = ZINC59040590
REMARK  12 active torsions:
REMARK  status: ('A' for Active; 'I' for Inactive)
REMARK    1  A    between atoms: C_1  and  N_2
REMARK    2  A    between atoms: N_2  and  C_3
REMARK    3  A    between atoms: N_2  and  C_4
REMARK    4  A    between atoms: C_4  and  C_6
REMARK    5  A    between atoms: C_4  and  C_29
REMARK    6  A    between atoms: C_6  and  N_7
REMARK    7  A    between atoms: N_10  and  C_11
REMARK    8  A    between atoms: C_15  and  C_17
REMARK    9  A    between atoms: C_18  and  C_19
REMARK   10  A    between atoms: C_23  and  C_25
REMARK   11  A    between atoms: C_25  and  O_27
REMARK   12  A    between atoms: O_27  and  C_28
REMARK                            x       y       z     vdW  Elec       q    Type
REMARK                         _______ _______ _______ _____ _____    ______ ____
ROOT
ATOM      1  C   UNL     1      -3.309   3.594  -3.353  0.00  0.00    +0.036 A 
ATOM      2  C   UNL     1      -4.184   2.895  -4.176  0.00  0.00    +0.023 A 
ATOM      3  C   UNL     1      -4.747   3.512  -5.278  0.00  0.00    +0.003 A 
ATOM      4  C   UNL     1      -4.444   4.826  -5.569  0.00  0.00    +0.017 A 
ATOM      5  C   UNL     1      -3.566   5.538  -4.747  0.00  0.00    +0.027 A 
ATOM      6  C   UNL     1      -3.002   4.916  -3.632  0.00  0.00    +0.040 A 
ENDROOT
BRANCH   1  10
ATOM      7  N   UNL     1      -1.867   3.090  -0.079  0.00  0.00    -0.300 N 
ATOM      8  C   UNL     1      -2.507   3.668  -1.114  0.00  0.00    +0.304 C 
ATOM      9  O   UNL     1      -2.873   4.825  -1.033  0.00  0.00    -0.253 OA
ATOM     10  N   UNL     1      -2.743   2.964  -2.239  0.00  0.00    -0.269 N 
ATOM     11  H   UNL     1      -1.575   2.167  -0.143  0.00  0.00    +0.150 HD
ATOM     12  H   UNL     1      -2.519   2.021  -2.276  0.00  0.00    +0.156 HD
BRANCH   7  13
ATOM     13  C   UNL     1      -1.611   3.855   1.144  0.00  0.00    +0.095 C 
BRANCH  13  14
ATOM     14  C   UNL     1      -0.987   2.938   2.198  0.00  0.00    -0.014 C 
BRANCH  14  15
ATOM     15  C   UNL     1       0.372   2.486   1.729  0.00  0.00    -0.022 A 
ATOM     16  C   UNL     1       0.728   1.312   1.153  0.00  0.00    +0.009 A 
ATOM     17  C   UNL     1       2.050   1.113   0.800  0.00  0.00    +0.008 A 
ATOM     18  C   UNL     1       2.950   2.098   1.040  0.00  0.00    +0.045 A 
ATOM     19  S   UNL     1       1.928   3.360   1.782  0.00  0.00    -0.103 S 
ENDBRANCH  14  15
BRANCH  14  21
ATOM     20  C   UNL     1      -2.182   4.016   3.978  0.00  0.00    -0.096 C 
ATOM     21  N   UNL     1      -0.849   3.671   3.464  0.00  0.00    +0.382 N 
ATOM     22  C   UNL     1      -0.151   2.828   4.444  0.00  0.00    -0.096 C 
ATOM     23  H   UNL     1      -0.320   4.515   3.308  0.00  0.00    -0.082 HD
ENDBRANCH  14  21
ENDBRANCH  13  14
ENDBRANCH   7  13
ENDBRANCH   1  10
BRANCH   5  24
ATOM     24  C   UNL     1      -3.249   6.903  -5.046  0.00  0.00    -0.061 C 
ATOM     25  C   UNL     1      -2.990   8.021  -5.291  0.00  0.00    -0.061 C 
BRANCH  25  26
ATOM     26  C   UNL     1      -2.673   9.385  -5.590  0.00  0.00    +0.026 A 
ATOM     27  C   UNL     1      -3.247  10.011  -6.702  0.00  0.00    +0.017 A 
ATOM     28  C   UNL     1      -2.942  11.326  -6.990  0.00  0.00    +0.002 A 
ATOM     29  C   UNL     1      -2.071  12.033  -6.185  0.00  0.00    +0.015 A 
ATOM     30  C   UNL     1      -1.490  11.421  -5.072  0.00  0.00    +0.060 A 
ATOM     31  C   UNL     1      -1.797  10.095  -4.770  0.00  0.00    +0.031 A 
BRANCH  30  32
ATOM     32  C   UNL     1      -0.557  12.179  -4.213  0.00  0.00    +0.339 C 
ATOM     33  O   UNL     1      -0.053  11.646  -3.245  0.00  0.00    -0.245 OA
BRANCH  32  34
ATOM     34  O   UNL     1      -0.266  13.462  -4.503  0.00  0.00    -0.464 OA
ATOM     35  C   UNL     1       0.643  14.135  -3.629  0.00  0.00    +0.280 C 
ENDBRANCH  32  34
ENDBRANCH  30  32
ENDBRANCH  25  26
ENDBRANCH   5  24
TORSDOF 9
