REMARK  Name = ZINC63119382
REMARK  8 active torsions:
REMARK  status: ('A' for Active; 'I' for Inactive)
REMARK    1  A    between atoms: C_1  and  O_2
REMARK    2  A    between atoms: O_2  and  C_3
REMARK    3  A    between atoms: C_9  and  C_12
REMARK    4  A    between atoms: C_12  and  C_13
REMARK    5  A    between atoms: C_13  and  N_14
REMARK    6  A    between atoms: C_15  and  C_17
REMARK    7  A    between atoms: C_20  and  C_23
REMARK    8  A    between atoms: C_26  and  C_29
REMARK                            x       y       z     vdW  Elec       q    Type
REMARK                         _______ _______ _______ _____ _____    ______ ____
ROOT
ATOM      1  N   UNL     1      -0.752  -6.781  -1.509  0.00  0.00    -0.310 N 
ATOM      2  C   UNL     1      -1.922  -7.385  -1.796  0.00  0.00    +0.275 C 
ATOM      3  O   UNL     1      -2.617  -6.964  -2.697  0.00  0.00    -0.270 OA
ATOM      4  H   UNL     1      -0.196  -7.118  -0.789  0.00  0.00    +0.149 HD
ENDROOT
BRANCH   2   5
ATOM      5  C   UNL     1      -2.367  -8.584  -0.999  0.00  0.00    +0.378 C 
ATOM      6  N   UNL     1      -1.544  -9.757  -1.332  0.00  0.00    -0.282 N 
ATOM      7  C   UNL     1      -2.399 -10.711  -1.852  0.00  0.00    +0.168 C 
ATOM      8  N   UNL     1      -3.618 -10.281  -1.880  0.00  0.00    -0.066 NA
ATOM      9  O   UNL     1      -3.703  -8.963  -1.366  0.00  0.00    -0.360 OA
ATOM     10  H   UNL     1      -0.585  -9.844  -1.211  0.00  0.00    +0.152 HD
BRANCH   7  11
ATOM     11  C   UNL     1      -1.974 -12.051  -2.317  0.00  0.00    +0.018 A 
ATOM     12  C   UNL     1      -0.632 -12.425  -2.242  0.00  0.00    +0.012 A 
ATOM     13  C   UNL     1      -0.242 -13.675  -2.677  0.00  0.00    +0.013 A 
ATOM     14  C   UNL     1      -1.178 -14.556  -3.188  0.00  0.00    +0.055 A 
ATOM     15  C   UNL     1      -2.510 -14.191  -3.265  0.00  0.00    +0.013 A 
ATOM     16  C   UNL     1      -2.914 -12.946  -2.828  0.00  0.00    +0.012 A 
BRANCH  14  17
ATOM     17  C   UNL     1      -0.745 -15.919  -3.662  0.00  0.00    +0.417 C 
ATOM     18  F   UNL     1      -0.815 -16.827  -2.599  0.00  0.00    -0.166 F 
ATOM     19  F   UNL     1      -1.589 -16.344  -4.694  0.00  0.00    -0.166 F 
ATOM     20  F   UNL     1       0.570 -15.853  -4.134  0.00  0.00    -0.166 F 
ENDBRANCH  14  17
ENDBRANCH   7  11
ENDBRANCH   2   5
BRANCH   1  21
ATOM     21  C   UNL     1      -0.319  -5.616  -2.284  0.00  0.00    +0.109 C 
BRANCH  21  22
ATOM     22  C   UNL     1       1.031  -5.126  -1.758  0.00  0.00    +0.052 C 
BRANCH  22  29
ATOM     23  C   UNL     1       0.606  -0.607  -1.056  0.00  0.00    +0.121 A 
ATOM     24  C   UNL     1       1.172   0.195  -2.062  0.00  0.00    +0.047 A 
ATOM     25  C   UNL     1       1.790  -0.325  -3.144  0.00  0.00    +0.029 A 
ATOM     26  C   UNL     1       1.886  -1.780  -3.299  0.00  0.00    +0.043 A 
ATOM     27  N   UNL     1       2.419  -2.528  -4.232  0.00  0.00    -0.380 N 
ATOM     28  C   UNL     1       2.222  -3.937  -3.871  0.00  0.00    +0.144 C 
ATOM     29  C   UNL     1       1.476  -3.927  -2.555  0.00  0.00    -0.040 C 
ATOM     30  C   UNL     1       1.290  -2.626  -2.239  0.00  0.00    +0.002 A 
ATOM     31  C   UNL     1       0.646  -1.960  -1.102  0.00  0.00    +0.055 A 
ATOM     32  H   UNL     1       2.869  -2.205  -5.029  0.00  0.00    +0.160 HD
BRANCH  23  34
ATOM     33  C   UNL     1      -0.017   1.425   0.010  0.00  0.00    +0.277 C 
ATOM     34  O   UNL     1       0.002  -0.004   0.002  0.00  0.00    -0.495 OA
ENDBRANCH  23  34
ENDBRANCH  22  29
ENDBRANCH  21  22
ENDBRANCH   1  21
TORSDOF 7
