REMARK  Name = ZINC09053438
REMARK  11 active torsions:
REMARK  status: ('A' for Active; 'I' for Inactive)
REMARK    1  A    between atoms: C_1  and  C_2
REMARK    2  A    between atoms: C_2  and  C_3
REMARK    3  A    between atoms: C_2  and  C_4
REMARK    4  A    between atoms: C_4  and  C_6
REMARK    5  A    between atoms: C_4  and  O_12
REMARK    6  A    between atoms: O_12  and  C_13
REMARK    7  A    between atoms: C_13  and  C_15
REMARK    8  A    between atoms: C_19  and  S_21
REMARK    9  A    between atoms: S_21  and  N_24
REMARK   10  A    between atoms: N_24  and  C_25
REMARK   11  A    between atoms: C_25  and  C_26
REMARK                            x       y       z     vdW  Elec       q    Type
REMARK                         _______ _______ _______ _____ _____    ______ ____
ROOT
ATOM      1  C   UNL     1       0.002  -0.004   0.002  0.00  0.00    +0.061 A 
ATOM      2  C   UNL     1       1.224  -0.680  -0.013  0.00  0.00    +0.016 A 
ATOM      3  C   UNL     1       2.404   0.034  -0.021  0.00  0.00    +0.023 A 
ATOM      4  C   UNL     1       2.378   1.419  -0.013  0.00  0.00    +0.067 A 
ATOM      5  C   UNL     1       1.170   2.095   0.002  0.00  0.00    +0.124 A 
ATOM      6  C   UNL     1      -0.017   1.392   0.010  0.00  0.00    +0.045 A 
ATOM      7 CL   UNL     1       3.868   2.311  -0.022  0.00  0.00    -0.082 Cl
ENDROOT
BRANCH   5   8
ATOM      8  S   UNL     1       1.148   3.857   0.011  0.00  0.00    +0.060 S 
ATOM      9  O   UNL     1       2.029   4.279  -1.020  0.00  0.00    -0.153 OA
ATOM     10  O   UNL     1      -0.218   4.246   0.053  0.00  0.00    -0.153 OA
BRANCH   8  11
ATOM     11  N   UNL     1       1.824   4.348   1.441  0.00  0.00    -0.186 NA
ATOM     12  H   UNL     1       1.285   4.820   2.095  0.00  0.00    +0.148 HD
BRANCH  11  13
ATOM     13  C   UNL     1       3.235   4.068   1.718  0.00  0.00    +0.141 C 
BRANCH  13  14
ATOM     14  C   UNL     1       3.696   4.913   2.878  0.00  0.00    -0.032 A 
ATOM     15  C   UNL     1       4.234   6.166   2.649  0.00  0.00    +0.005 A 
ATOM     16  C   UNL     1       4.652   6.943   3.713  0.00  0.00    +0.000 A 
ATOM     17  C   UNL     1       4.543   6.464   5.005  0.00  0.00    +0.000 A 
ATOM     18  C   UNL     1       4.010   5.209   5.233  0.00  0.00    +0.000 A 
ATOM     19  C   UNL     1       3.586   4.434   4.170  0.00  0.00    +0.005 A 
ENDBRANCH  13  14
ENDBRANCH  11  13
ENDBRANCH   8  11
ENDBRANCH   5   8
BRANCH   1  20
ATOM     20  C   UNL     1      -1.265  -0.763   0.010  0.00  0.00    +0.340 C 
ATOM     21  O   UNL     1      -2.326  -0.172   0.022  0.00  0.00    -0.245 OA
BRANCH  20  22
ATOM     22  O   UNL     1      -1.243  -2.110   0.002  0.00  0.00    -0.448 OA
BRANCH  22  23
ATOM     23  C   UNL     1      -2.526  -2.789   0.010  0.00  0.00    +0.265 C 
BRANCH  23  24
ATOM     24  C   UNL     1      -2.388  -4.116   0.712  0.00  0.00    +0.261 C 
ATOM     25  O   UNL     1      -1.314  -4.455   1.161  0.00  0.00    -0.271 OA
ATOM     26  N   UNL     1      -3.458  -4.925   0.841  0.00  0.00    -0.237 N 
ATOM     27  C   UNL     1      -3.334  -6.111   1.469  0.00  0.00    +0.303 C 
ATOM     28  O   UNL     1      -2.257  -6.451   1.919  0.00  0.00    -0.253 OA
ATOM     29  N   UNL     1      -4.404  -6.921   1.597  0.00  0.00    -0.313 N 
ATOM     30  H   UNL     1      -4.317  -4.654   0.481  0.00  0.00    +0.159 HD
ATOM     31  H   UNL     1      -5.263  -6.650   1.238  0.00  0.00    +0.146 HD
ATOM     32  H   UNL     1      -4.314  -7.774   2.049  0.00  0.00    +0.146 HD
ENDBRANCH  23  24
BRANCH  23  34
ATOM     33  C   UNL     1      -3.131  -1.674  -2.142  0.00  0.00    +0.011 C 
ATOM     34  C   UNL     1      -2.990  -3.021  -1.429  0.00  0.00    +0.033 C 
ATOM     35  C   UNL     1      -1.961  -3.882  -2.165  0.00  0.00    +0.011 C 
ENDBRANCH  23  34
ENDBRANCH  22  23
ENDBRANCH  20  22
ENDBRANCH   1  20
TORSDOF 9
