REMARK  Name = ZINC38550607
REMARK  7 active torsions:
REMARK  status: ('A' for Active; 'I' for Inactive)
REMARK    1  A    between atoms: C_1  and  O_2
REMARK    2  A    between atoms: O_2  and  C_3
REMARK    3  A    between atoms: C_7  and  C_9
REMARK    4  A    between atoms: C_9  and  C_11
REMARK    5  A    between atoms: C_9  and  N_28
REMARK    6  A    between atoms: C_15  and  N_16
REMARK    7  A    between atoms: C_17  and  C_19
REMARK                            x       y       z     vdW  Elec       q    Type
REMARK                         _______ _______ _______ _____ _____    ______ ____
ROOT
ATOM      1  C   UNL     1      -2.464  -4.075  -0.035  0.00  0.00    +0.135 C 
ENDROOT
BRANCH   1   2
ATOM      2  C   UNL     1      -2.805  -4.390   1.399  0.00  0.00    +0.009 A 
ATOM      3  C   UNL     1      -1.815  -4.850   2.268  0.00  0.00    -0.030 A 
ATOM      4  C   UNL     1      -2.200  -5.113   3.546  0.00  0.00    -0.005 A 
ATOM      5  S   UNL     1      -3.930  -4.727   3.557  0.00  0.00    -0.078 S 
ATOM      6  C   UNL     1      -4.077  -4.222   1.850  0.00  0.00    +0.078 A 
ATOM      7  C   UNL     1      -1.351  -5.612   4.669  0.00  0.00    +0.043 C 
ATOM      8  C   UNL     1      -0.034  -6.141   4.080  0.00  0.00    +0.005 C 
ATOM      9  C   UNL     1       0.514  -5.106   3.094  0.00  0.00    +0.005 C 
ATOM     10  C   UNL     1      -0.364  -5.059   1.843  0.00  0.00    +0.036 C 
BRANCH   6  11
ATOM     11  N   UNL     1      -5.204  -3.774   1.158  0.00  0.00    -0.273 N 
ATOM     12  C   UNL     1      -6.401  -3.733   1.775  0.00  0.00    +0.284 C 
ATOM     13  O   UNL     1      -6.500  -4.086   2.936  0.00  0.00    -0.266 OA
ATOM     14  H   UNL     1      -5.125  -3.493   0.233  0.00  0.00    +0.156 HD
BRANCH  12  15
ATOM     15  C   UNL     1      -7.585  -3.262   1.049  0.00  0.00    +0.189 A 
ATOM     16  C   UNL     1      -8.850  -3.165   1.553  0.00  0.00    +0.054 A 
ATOM     17  C   UNL     1      -9.660  -2.671   0.518  0.00  0.00    +0.042 A 
ATOM     18  C   UNL     1      -8.864  -2.491  -0.559  0.00  0.00    +0.196 A 
ATOM     19  O   UNL     1      -7.613  -2.844  -0.234  0.00  0.00    -0.458 OA
ENDBRANCH  12  15
ENDBRANCH   6  11
ENDBRANCH   1   2
BRANCH   1  20
ATOM     20  N   UNL     1      -3.507  -4.610  -0.914  0.00  0.00    -0.320 N 
ATOM     21  C   UNL     1      -3.245  -4.803  -2.265  0.00  0.00    +0.097 A 
ATOM     22  C   UNL     1      -1.989  -4.492  -2.775  0.00  0.00    +0.041 A 
ATOM     23  C   UNL     1      -1.742  -4.689  -4.122  0.00  0.00    +0.005 A 
ATOM     24  C   UNL     1      -2.764  -5.193  -4.916  0.00  0.00    +0.018 A 
ATOM     25  C   UNL     1      -3.986  -5.480  -4.343  0.00  0.00    +0.084 A 
ATOM     26  N   UNL     1      -4.192  -5.287  -3.054  0.00  0.00    -0.350 N 
ATOM     27  H   UNL     1      -4.380  -4.829  -0.552  0.00  0.00    +0.148 HD
ATOM     28  H   UNL     1      -5.059  -5.501  -2.676  0.00  0.00    +0.166 HD
ENDBRANCH   1  20
BRANCH   1  33
ATOM     29  C   UNL     1      -1.097  -0.554  -0.142  0.00  0.00    +0.120 A 
ATOM     30  C   UNL     1      -2.216   0.163  -0.542  0.00  0.00    +0.045 A 
ATOM     31  C   UNL     1      -3.409  -0.494  -0.775  0.00  0.00    +0.004 A 
ATOM     32  C   UNL     1      -3.488  -1.865  -0.611  0.00  0.00    +0.006 A 
ATOM     33  C   UNL     1      -2.374  -2.581  -0.213  0.00  0.00    -0.019 A 
ATOM     34  C   UNL     1      -1.178  -1.929   0.017  0.00  0.00    +0.051 A 
BRANCH  29  36
ATOM     35  C   UNL     1       0.086   1.508  -0.095  0.00  0.00    +0.277 C 
ATOM     36  O   UNL     1       0.077   0.090   0.088  0.00  0.00    -0.495 OA
ENDBRANCH  29  36
ENDBRANCH   1  33
TORSDOF 6
