REMARK  Name = ZINC12293537
REMARK  7 active torsions:
REMARK  status: ('A' for Active; 'I' for Inactive)
REMARK    1  A    between atoms: C_1  and  C_2
REMARK    2  A    between atoms: C_5  and  C_9
REMARK    3  A    between atoms: C_7  and  C_8
REMARK    4  A    between atoms: C_9  and  C_11
REMARK    5  A    between atoms: C_9  and  O_29
REMARK    6  A    between atoms: C_11  and  N_56
REMARK    7  A    between atoms: C_18  and  O_28
REMARK                            x       y       z     vdW  Elec       q    Type
REMARK                         _______ _______ _______ _____ _____    ______ ____
ROOT
ATOM      1  C   UNL     1       1.397   1.506   2.422  0.00  0.00    -0.075 C 
ATOM      2  C   UNL     1       2.107   0.969   3.668  0.00  0.00    +0.029 C 
ATOM      3  C   UNL     1       1.499   1.614   4.914  0.00  0.00    +0.110 C 
ATOM      4  C   UNL     1      -0.003   1.324   4.954  0.00  0.00    +0.029 C 
ATOM      5  C   UNL     1      -0.652   1.850   3.671  0.00  0.00    -0.075 C 
ATOM      6  C   UNL     1       2.167   1.034   6.165  0.00  0.00    +0.084 C 
ATOM      7  C   UNL     1       3.680   1.241   6.040  0.00  0.00    +0.152 C 
ATOM      8  C   UNL     1       3.963   2.671   5.651  0.00  0.00    +0.025 A 
ATOM      9  C   UNL     1       5.238   3.175   5.851  0.00  0.00    +0.048 A 
ATOM     10  C   UNL     1       5.533   4.481   5.505  0.00  0.00    +0.124 A 
ATOM     11  C   UNL     1       4.551   5.290   4.959  0.00  0.00    +0.042 A 
ATOM     12  C   UNL     1       3.280   4.791   4.758  0.00  0.00    +0.049 A 
ATOM     13  C   UNL     1       2.982   3.476   5.103  0.00  0.00    +0.127 A 
ATOM     14  O   UNL     1       1.718   3.023   4.891  0.00  0.00    -0.485 OA
ATOM     15  F   UNL     1       6.778   4.967   5.701  0.00  0.00    -0.205 F 
ATOM     16  N   UNL     1      -0.041   1.171   2.509  0.00  0.00    +0.382 N 
ATOM     17  H   UNL     1      -0.140   0.156   2.626  0.00  0.00    -0.082 HD
ENDROOT
BRANCH   7  18
ATOM     18  O   UNL     1       4.304   0.956   7.293  0.00  0.00    -0.387 OA
ATOM     19  H   UNL     1       5.265   1.065   7.287  0.00  0.00    +0.210 HD
ENDBRANCH   7  18
BRANCH  16  20
ATOM     20  C   UNL     1      -0.729   1.579   1.267  0.00  0.00    -0.042 C 
BRANCH  20  21
ATOM     21  C   UNL     1      -2.152   1.017   1.285  0.00  0.00    +0.128 C 
BRANCH  21  26
ATOM     22  C   UNL     1      -4.854   2.453  -3.617  0.00  0.00    +0.044 C 
ATOM     23  C   UNL     1      -4.149   2.079  -2.339  0.00  0.00    -0.048 A 
ATOM     24  C   UNL     1      -3.349   0.952  -2.295  0.00  0.00    +0.004 A 
ATOM     25  C   UNL     1      -2.699   0.611  -1.124  0.00  0.00    +0.006 A 
ATOM     26  C   UNL     1      -2.856   1.391   0.007  0.00  0.00    -0.021 A 
ATOM     27  C   UNL     1      -3.656   2.518  -0.037  0.00  0.00    +0.009 A 
ATOM     28  C   UNL     1      -4.302   2.862  -1.210  0.00  0.00    -0.047 A 
ATOM     29  C   UNL     1      -5.173   4.090  -1.258  0.00  0.00    +0.044 C 
ENDBRANCH  21  26
BRANCH  21  30
ATOM     30  O   UNL     1      -2.100  -0.406   1.401  0.00  0.00    -0.389 OA
ATOM     31  H   UNL     1      -1.630  -0.843   0.677  0.00  0.00    +0.210 HD
ENDBRANCH  21  30
ENDBRANCH  20  21
ENDBRANCH  16  20
TORSDOF 5
