REMARK  Name = ZINC48125661
REMARK  9 active torsions:
REMARK  status: ('A' for Active; 'I' for Inactive)
REMARK    1  A    between atoms: C_1  and  C_2
REMARK    2  A    between atoms: C_2  and  C_3
REMARK    3  A    between atoms: C_2  and  C_4
REMARK    4  A    between atoms: C_6  and  C_9
REMARK    5  A    between atoms: C_9  and  C_10
REMARK    6  A    between atoms: C_10  and  C_11
REMARK    7  A    between atoms: N_13  and  N_14
REMARK    8  A    between atoms: C_17  and  C_21
REMARK    9  A    between atoms: C_17  and  C_22
REMARK                            x       y       z     vdW  Elec       q    Type
REMARK                         _______ _______ _______ _____ _____    ______ ____
ROOT
ATOM      1  N   UNL     1       1.124  -6.802   6.321  0.00  0.00    -0.137 N 
ATOM      2  C   UNL     1       2.125  -7.269   7.094  0.00  0.00    +0.267 C 
ATOM      3  O   UNL     1       3.314  -7.092   6.939  0.00  0.00    -0.271 OA
ATOM      4  C   UNL     1       1.453  -8.061   8.199  0.00  0.00    +0.137 C 
ATOM      5  N   UNL     1       0.018  -7.936   7.891  0.00  0.00    -0.280 N 
ATOM      6  C   UNL     1      -0.073  -7.180   6.782  0.00  0.00    +0.327 C 
ATOM      7  O   UNL     1      -1.126  -6.877   6.256  0.00  0.00    -0.251 OA
ATOM      8  C   UNL     1       1.766  -7.449   9.566  0.00  0.00    +0.047 C 
ATOM      9  H   UNL     1      -0.718  -8.321   8.392  0.00  0.00    +0.152 HD
ENDROOT
BRANCH   4  10
ATOM     10  C   UNL     1       1.882  -9.505   8.152  0.00  0.00    -0.015 A 
ATOM     11  C   UNL     1       3.139  -9.838   7.683  0.00  0.00    +0.006 A 
ATOM     12  C   UNL     1       3.532 -11.162   7.639  0.00  0.00    +0.000 A 
ATOM     13  C   UNL     1       2.668 -12.154   8.066  0.00  0.00    +0.000 A 
ATOM     14  C   UNL     1       1.412 -11.821   8.536  0.00  0.00    +0.000 A 
ATOM     15  C   UNL     1       1.020 -10.496   8.583  0.00  0.00    +0.006 A 
ENDBRANCH   4  10
BRANCH   1  18
ATOM     16  C   UNL     1       1.058  -4.690   5.225  0.00  0.00    +0.230 C 
ATOM     17  O   UNL     1       0.661  -4.184   6.253  0.00  0.00    -0.274 OA
ATOM     18  N   UNL     1       1.315  -6.012   5.180  0.00  0.00    -0.224 N 
ATOM     19  H   UNL     1       1.632  -6.417   4.357  0.00  0.00    +0.174 HD
BRANCH  16  20
ATOM     20  C   UNL     1       1.263  -3.840   3.997  0.00  0.00    +0.107 C 
BRANCH  20  21
ATOM     21  C   UNL     1       0.901  -2.388   4.315  0.00  0.00    +0.108 C 
BRANCH  21  24
ATOM     22  C   UNL     1       0.731  -0.503   1.223  0.00  0.00    +0.174 A 
ATOM     23  N   UNL     1       0.212  -1.292   2.170  0.00  0.00    -0.196 NA
ATOM     24  C   UNL     1       1.106  -1.539   3.087  0.00  0.00    +0.228 A 
ATOM     25  O   UNL     1       2.237  -0.907   2.750  0.00  0.00    -0.338 OA
ATOM     26  N   UNL     1       1.970  -0.241   1.525  0.00  0.00    -0.061 NA
BRANCH  22  28
ATOM     27  C   UNL     1      -0.019   1.526   0.010  0.00  0.00    +0.015 C 
ATOM     28  C   UNL     1       0.002  -0.004   0.002  0.00  0.00    +0.054 C 
ATOM     29  C   UNL     1       0.718  -0.497  -1.257  0.00  0.00    +0.015 C 
ENDBRANCH  22  28
ENDBRANCH  21  24
ENDBRANCH  20  21
ENDBRANCH  16  20
ENDBRANCH   1  18
TORSDOF 6
