REMARK  Name = ZINC08791013
REMARK  7 active torsions:
REMARK  status: ('A' for Active; 'I' for Inactive)
REMARK    1  A    between atoms: C_1  and  C_2
REMARK    2  A    between atoms: C_16  and  C_18
REMARK    3  A    between atoms: C_18  and  C_19
REMARK    4  A    between atoms: C_22  and  O_25
REMARK    5  A    between atoms: N_28  and  C_31
REMARK    6  A    between atoms: C_31  and  C_32
REMARK    7  A    between atoms: C_32  and  C_33
REMARK                            x       y       z     vdW  Elec       q    Type
REMARK                         _______ _______ _______ _____ _____    ______ ____
ROOT
ATOM      1  C   UNL     1      -6.762   0.883   4.782  0.00  0.00    +0.046 C 
ATOM      2  C   UNL     1      -5.601   0.099   4.226  0.00  0.00    -0.028 A 
ATOM      3  C   UNL     1      -5.659  -1.278   4.183  0.00  0.00    +0.025 A 
ATOM      4  C   UNL     1      -4.598  -2.006   3.674  0.00  0.00    +0.042 A 
ATOM      5  C   UNL     1      -3.474  -1.348   3.204  0.00  0.00    +0.024 A 
ATOM      6  C   UNL     1      -3.412   0.026   3.247  0.00  0.00    -0.026 A 
ATOM      7  C   UNL     1      -4.473   0.769   3.757  0.00  0.00    +0.039 A 
ATOM      8  N   UNL     1      -4.181   2.134   3.697  0.00  0.00    -0.286 N 
ATOM      9  C   UNL     1      -2.965   2.370   3.169  0.00  0.00    +0.211 C 
ATOM     10  O   UNL     1      -2.449   3.453   2.996  0.00  0.00    -0.277 OA
ATOM     11  C   UNL     1      -2.371   1.028   2.834  0.00  0.00    +0.050 C 
ATOM     12  C   UNL     1      -1.047   0.801   3.573  0.00  0.00    +0.088 C 
ATOM     13  C   UNL     1       0.050   1.153   2.530  0.00  0.00    +0.073 C 
ATOM     14  C   UNL     1      -0.729   1.579   1.267  0.00  0.00    -0.053 C 
ATOM     15  C   UNL     1       0.739   2.362   3.120  0.00  0.00    +0.224 C 
ATOM     16  O   UNL     1       1.671   2.952   2.617  0.00  0.00    -0.275 OA
ATOM     17  N   UNL     1       0.161   2.680   4.284  0.00  0.00    -0.241 N 
ATOM     18  C   UNL     1      -0.853   1.881   4.637  0.00  0.00    +0.225 C 
ATOM     19  O   UNL     1      -1.513   1.992   5.648  0.00  0.00    -0.275 OA
ATOM     20 CL   UNL     1      -4.677  -3.740   3.623  0.00  0.00    -0.084 Cl
ATOM     21  H   UNL     1      -4.785   2.830   4.000  0.00  0.00    +0.155 HD
ATOM     22  N   UNL     1      -2.038   0.940   1.423  0.00  0.00    +0.394 N 
ATOM     23  H   UNL     1      -2.742   1.432   0.860  0.00  0.00    -0.083 HD
ATOM     24  H   UNL     1      -1.990  -0.043   1.130  0.00  0.00    -0.083 HD
ENDROOT
BRANCH  14  25
ATOM     25  C   UNL     1      -0.013   1.086   0.008  0.00  0.00    +0.020 C 
BRANCH  25  26
ATOM     26  C   UNL     1      -0.742   1.585  -1.213  0.00  0.00    -0.049 A 
ATOM     27  C   UNL     1      -1.750   0.824  -1.774  0.00  0.00    +0.007 A 
ATOM     28  C   UNL     1      -2.423   1.282  -2.890  0.00  0.00    +0.045 A 
ATOM     29  C   UNL     1      -2.080   2.501  -3.454  0.00  0.00    +0.117 A 
ATOM     30  C   UNL     1      -1.064   3.261  -2.892  0.00  0.00    +0.045 A 
ATOM     31  C   UNL     1      -0.397   2.801  -1.773  0.00  0.00    +0.007 A 
BRANCH  29  32
ATOM     32  O   UNL     1      -2.737   2.952  -4.555  0.00  0.00    -0.507 OA
ATOM     33  H   UNL     1      -2.338   2.677  -5.391  0.00  0.00    +0.292 HD
ENDBRANCH  29  32
ENDBRANCH  25  26
ENDBRANCH  14  25
BRANCH  17  34
ATOM     34  C   UNL     1       0.602   3.810   5.105  0.00  0.00    +0.121 C 
BRANCH  34  35
ATOM     35  C   UNL     1      -0.168   5.068   4.697  0.00  0.00    +0.054 C 
BRANCH  35  36
ATOM     36  C   UNL     1       0.286   6.231   5.542  0.00  0.00    -0.046 A 
ATOM     37  C   UNL     1      -0.356   6.511   6.733  0.00  0.00    +0.004 A 
ATOM     38  C   UNL     1       0.064   7.575   7.510  0.00  0.00    +0.000 A 
ATOM     39  C   UNL     1       1.119   8.364   7.091  0.00  0.00    +0.000 A 
ATOM     40  C   UNL     1       1.757   8.086   5.897  0.00  0.00    +0.000 A 
ATOM     41  C   UNL     1       1.341   7.020   5.122  0.00  0.00    +0.004 A 
ENDBRANCH  35  36
ENDBRANCH  34  35
ENDBRANCH  17  34
TORSDOF 6
