REMARK  Name = ZINC24820504
REMARK  15 active torsions:
REMARK  status: ('A' for Active; 'I' for Inactive)
REMARK    1  A    between atoms: C_1  and  C_2
REMARK    2  A    between atoms: C_2  and  C_3
REMARK    3  A    between atoms: C_3  and  C_4
REMARK    4  A    between atoms: C_4  and  N_5
REMARK    5  A    between atoms: C_6  and  N_36
REMARK    6  A    between atoms: C_7  and  N_14
REMARK    7  A    between atoms: N_14  and  C_15
REMARK    8  A    between atoms: C_15  and  C_16
REMARK    9  A    between atoms: C_22  and  C_24
REMARK   10  A    between atoms: C_24  and  N_25
REMARK   11  A    between atoms: N_25  and  C_26
REMARK   12  A    between atoms: N_25  and  C_29
REMARK   13  A    between atoms: C_26  and  C_27
REMARK   14  A    between atoms: C_27  and  C_28
REMARK   15  A    between atoms: C_29  and  C_30
REMARK                            x       y       z     vdW  Elec       q    Type
REMARK                         _______ _______ _______ _____ _____    ______ ____
ROOT
ATOM      1  N   UNL     1      -4.164  -2.398   3.631  0.00  0.00    -0.261 N 
ATOM      2  C   UNL     1      -3.824  -2.064   4.894  0.00  0.00    +0.204 C 
ATOM      3  O   UNL     1      -2.829  -1.401   5.099  0.00  0.00    -0.277 OA
ENDROOT
BRANCH   1   6
ATOM      4  N   UNL     1      -3.237  -0.533   0.604  0.00  0.00    -0.280 N 
ATOM      5  C   UNL     1      -3.988  -1.006   1.654  0.00  0.00    +0.127 A 
ATOM      6  C   UNL     1      -3.419  -1.894   2.544  0.00  0.00    +0.140 A 
ATOM      7  C   UNL     1      -2.082  -2.290   2.347  0.00  0.00    +0.277 A 
ATOM      8  O   UNL     1      -1.555  -3.074   3.118  0.00  0.00    -0.266 OA
ATOM      9  N   UNL     1      -1.390  -1.796   1.302  0.00  0.00    -0.273 N 
ATOM     10  H   UNL     1      -0.469  -2.068   1.166  0.00  0.00    +0.173 HD
ATOM     11  C   UNL     1      -1.963  -0.935   0.442  0.00  0.00    +0.331 A 
ATOM     12  O   UNL     1      -1.317  -0.509  -0.495  0.00  0.00    -0.246 OA
BRANCH   5  13
ATOM     13  N   UNL     1      -5.291  -0.599   1.817  0.00  0.00    -0.343 N 
ATOM     14  H   UNL     1      -5.667   0.071   1.224  0.00  0.00    +0.144 HD
ATOM     15  H   UNL     1      -5.834  -0.981   2.523  0.00  0.00    +0.144 HD
ENDBRANCH   5  13
BRANCH   4  16
ATOM     16  C   UNL     1      -3.829   0.411  -0.348  0.00  0.00    +0.128 C 
BRANCH  16  17
ATOM     17  C   UNL     1      -4.487  -0.363  -1.492  0.00  0.00    +0.021 C 
BRANCH  17  19
ATOM     18  C   UNL     1      -5.762  -0.152  -3.629  0.00  0.00    +0.004 C 
ATOM     19  C   UNL     1      -5.105   0.622  -2.485  0.00  0.00    -0.002 C 
ENDBRANCH  17  19
ENDBRANCH  16  17
ENDBRANCH   4  16
ENDBRANCH   1   6
BRANCH   1  20
ATOM     20  C   UNL     1      -5.306  -3.283   3.390  0.00  0.00    +0.149 C 
BRANCH  20  21
ATOM     21  C   UNL     1      -4.818  -4.699   3.224  0.00  0.00    -0.030 A 
ATOM     22  C   UNL     1      -4.418  -5.151   1.981  0.00  0.00    +0.005 A 
ATOM     23  C   UNL     1      -3.971  -6.450   1.829  0.00  0.00    +0.000 A 
ATOM     24  C   UNL     1      -3.922  -7.297   2.921  0.00  0.00    +0.000 A 
ATOM     25  C   UNL     1      -4.321  -6.844   4.165  0.00  0.00    +0.000 A 
ATOM     26  C   UNL     1      -4.765  -5.544   4.317  0.00  0.00    +0.005 A 
ENDBRANCH  20  21
ENDBRANCH   1  20
BRANCH   2  27
ATOM     27  C   UNL     1      -4.680  -2.514   6.049  0.00  0.00    +0.020 C 
BRANCH  27  28
ATOM     28  N   UNL     1      -4.185  -1.908   7.292  0.00  0.00    +0.388 N 
ATOM     29  H   UNL     1      -3.207  -2.127   7.406  0.00  0.00    -0.081 HD
BRANCH  28  30
ATOM     30  C   UNL     1      -4.355  -0.450   7.227  0.00  0.00    -0.078 C 
BRANCH  30  31
ATOM     31  C   UNL     1      -3.693   0.196   8.446  0.00  0.00    -0.022 C 
ATOM     32  C   UNL     1      -3.936   1.706   8.417  0.00  0.00    +0.002 C 
ENDBRANCH  30  31
ENDBRANCH  28  30
BRANCH  28  33
ATOM     33  C   UNL     1      -4.943  -2.439   8.432  0.00  0.00    -0.042 C 
BRANCH  33  34
ATOM     34  C   UNL     1      -4.641  -3.906   8.596  0.00  0.00    -0.064 A 
ATOM     35  C   UNL     1      -5.462  -4.851   8.008  0.00  0.00    +0.002 A 
ATOM     36  C   UNL     1      -5.185  -6.197   8.159  0.00  0.00    +0.000 A 
ATOM     37  C   UNL     1      -4.087  -6.598   8.897  0.00  0.00    +0.000 A 
ATOM     38  C   UNL     1      -3.266  -5.654   9.484  0.00  0.00    +0.000 A 
ATOM     39  C   UNL     1      -3.541  -4.308   9.330  0.00  0.00    +0.002 A 
ENDBRANCH  33  34
ENDBRANCH  28  33
ENDBRANCH  27  28
ENDBRANCH   2  27
TORSDOF 13
