REMARK  Name = ZINC25176597
REMARK  4 active torsions:
REMARK  status: ('A' for Active; 'I' for Inactive)
REMARK    1  A    between atoms: C_1  and  N_2
REMARK    2  A    between atoms: N_6  and  N_7
REMARK    3  A    between atoms: N_7  and  C_8
REMARK    4  A    between atoms: C_16  and  C_18
REMARK                            x       y       z     vdW  Elec       q    Type
REMARK                         _______ _______ _______ _____ _____    ______ ____
ROOT
ATOM      1  C   UNL     1       0.083   1.120  -1.326  0.00  0.00    +0.160 C 
ATOM      2  N   UNL     1       0.043  -0.252  -0.815  0.00  0.00    -0.208 N 
ATOM      3  C   UNL     1      -1.087  -1.032  -0.729  0.00  0.00    +0.163 C 
ATOM      4  N   UNL     1      -2.305  -0.701  -1.080  0.00  0.00    -0.282 NA
ATOM      5  C   UNL     1      -0.641  -2.321  -0.160  0.00  0.00    +0.150 C 
ATOM      6  N   UNL     1      -1.377  -3.379   0.103  0.00  0.00    -0.177 NA
ATOM      7  C   UNL     1       0.813  -2.162   0.049  0.00  0.00    +0.119 C 
ATOM      8  N   UNL     1       1.147  -0.966  -0.348  0.00  0.00    -0.176 NA
ATOM      9  H   UNL     1      -3.009  -1.368  -1.076  0.00  0.00    +0.188 HD
ENDROOT
BRANCH   7  10
ATOM     10  C   UNL     1       1.731  -3.184   0.604  0.00  0.00    +0.004 A 
ATOM     11  C   UNL     1       1.241  -4.434   0.980  0.00  0.00    +0.011 A 
ATOM     12  C   UNL     1       2.100  -5.382   1.497  0.00  0.00    +0.020 A 
ATOM     13  C   UNL     1       3.447  -5.094   1.643  0.00  0.00    +0.041 A 
ATOM     14  C   UNL     1       3.938  -3.854   1.272  0.00  0.00    +0.020 A 
ATOM     15  C   UNL     1       3.089  -2.901   0.748  0.00  0.00    +0.011 A 
ATOM     16 CL   UNL     1       4.522  -6.290   2.296  0.00  0.00    -0.084 Cl
ENDBRANCH   7  10
BRANCH   6  17
ATOM     17  N   UNL     1      -2.663  -3.303   0.033  0.00  0.00    -0.236 N 
ATOM     18  H   UNL     1      -3.091  -2.447  -0.126  0.00  0.00    +0.174 HD
BRANCH  17  19
ATOM     19  C   UNL     1      -3.439  -4.453   0.186  0.00  0.00    +0.067 A 
ATOM     20  C   UNL     1      -2.829  -5.679   0.419  0.00  0.00    +0.027 A 
ATOM     21  C   UNL     1      -3.600  -6.815   0.571  0.00  0.00    +0.022 A 
ATOM     22  C   UNL     1      -4.979  -6.734   0.489  0.00  0.00    +0.042 A 
ATOM     23  C   UNL     1      -5.591  -5.514   0.257  0.00  0.00    +0.042 A 
ATOM     24  C   UNL     1      -4.826  -4.373   0.110  0.00  0.00    +0.065 A 
ATOM     25 CL   UNL     1      -5.594  -2.842  -0.175  0.00  0.00    -0.082 Cl
ATOM     26 CL   UNL     1      -5.944  -8.164   0.679  0.00  0.00    -0.083 Cl
ENDBRANCH  17  19
ENDBRANCH   6  17
TORSDOF 3
