REMARK  Name = ZINC63686322
REMARK  5 active torsions:
REMARK  status: ('A' for Active; 'I' for Inactive)
REMARK    1  A    between atoms: C_4  and  N_7
REMARK    2  A    between atoms: N_7  and  C_8
REMARK    3  A    between atoms: C_11  and  C_30
REMARK    4  A    between atoms: C_13  and  N_16
REMARK    5  A    between atoms: C_17  and  C_19
REMARK                            x       y       z     vdW  Elec       q    Type
REMARK                         _______ _______ _______ _____ _____    ______ ____
ROOT
ATOM      1  C   UNL     1       3.641  -2.114  -0.044  0.00  0.00    +0.202 C 
ATOM      2  N   UNL     1       5.007  -2.628   0.218  0.00  0.00    -0.277 NA
ATOM      3  C   UNL     1       5.422  -3.789  -0.559  0.00  0.00    +0.173 C 
ATOM      4  C   UNL     1       4.362  -4.297  -1.566  0.00  0.00    +0.160 C 
ATOM      5  S   UNL     1       3.328  -2.774  -1.741  0.00  0.00    -0.099 S 
ATOM      6  H   UNL     1       5.691  -1.889   0.156  0.00  0.00    +0.125 HD
ENDROOT
BRANCH   3   7
ATOM      7  C   UNL     1       5.747  -4.911   0.394  0.00  0.00    +0.230 C 
ATOM      8  O   UNL     1       5.333  -4.878   1.533  0.00  0.00    -0.274 OA
ATOM      9  N   UNL     1       6.497  -5.951  -0.021  0.00  0.00    -0.328 N 
ATOM     10  H   UNL     1       6.828  -5.978  -0.932  0.00  0.00    +0.145 HD
ATOM     11  H   UNL     1       6.706  -6.673   0.592  0.00  0.00    +0.145 HD
ENDBRANCH   3   7
BRANCH   4  12
ATOM     12  N   UNL     1       4.977  -4.673  -2.841  0.00  0.00    -0.300 N 
ATOM     13  C   UNL     1       4.622  -5.824  -3.447  0.00  0.00    +0.240 C 
ATOM     14  O   UNL     1       3.794  -6.548  -2.935  0.00  0.00    -0.273 OA
ATOM     15  H   UNL     1       5.639  -4.095  -3.250  0.00  0.00    +0.150 HD
BRANCH  13  16
ATOM     16  C   UNL     1       5.255  -6.212  -4.758  0.00  0.00    +0.190 C 
ATOM     17  C   UNL     1       4.920  -5.189  -5.821  0.00  0.00    +0.016 C 
ATOM     18  C   UNL     1       4.241  -5.855  -6.782  0.00  0.00    -0.002 A 
ATOM     19  C   UNL     1       3.650  -5.431  -8.056  0.00  0.00    +0.029 A 
ATOM     20  C   UNL     1       3.016  -6.349  -8.823  0.00  0.00    +0.042 A 
ATOM     21  C   UNL     1       2.911  -7.691  -8.431  0.00  0.00    +0.022 A 
ATOM     22  C   UNL     1       3.429  -8.155  -7.274  0.00  0.00    +0.027 A 
ATOM     23  C   UNL     1       4.116  -7.278  -6.391  0.00  0.00    +0.043 A 
ATOM     24  N   UNL     1       4.698  -7.484  -5.232  0.00  0.00    -0.370 N 
ATOM     25 CL   UNL     1       2.314  -5.851 -10.331  0.00  0.00    -0.084 Cl
ATOM     26  H   UNL     1       4.750  -8.333  -4.767  0.00  0.00    +0.161 HD
ENDBRANCH  13  16
ENDBRANCH   4  12
BRANCH   1  27
ATOM     27  N   UNL     1       3.620  -0.649  -0.036  0.00  0.00    -0.320 N 
ATOM     28  H   UNL     1       4.452  -0.152  -0.042  0.00  0.00    +0.148 HD
BRANCH  27  32
ATOM     29  C   UNL     1      -0.017   1.379   0.010  0.00  0.00    +0.000 A 
ATOM     30  C   UNL     1       1.169   2.089   0.002  0.00  0.00    +0.002 A 
ATOM     31  C   UNL     1       2.377   1.420  -0.013  0.00  0.00    +0.023 A 
ATOM     32  C   UNL     1       2.400   0.031  -0.021  0.00  0.00    +0.029 A 
ATOM     33  C   UNL     1       1.206  -0.680  -0.013  0.00  0.00    +0.023 A 
ATOM     34  C   UNL     1       0.002  -0.004   0.002  0.00  0.00    +0.002 A 
ENDBRANCH  27  32
ENDBRANCH   1  27
TORSDOF 5
