REMARK  Name = ZINC61938143
REMARK  6 active torsions:
REMARK  status: ('A' for Active; 'I' for Inactive)
REMARK    1  A    between atoms: C_1  and  C_2
REMARK    2  A    between atoms: C_2  and  C_3
REMARK    3  A    between atoms: C_2  and  C_4
REMARK    4  A    between atoms: C_4  and  C_6
REMARK    5  A    between atoms: C_4  and  C_10
REMARK    6  A    between atoms: N_7  and  O_8
REMARK                            x       y       z     vdW  Elec       q    Type
REMARK                         _______ _______ _______ _____ _____    ______ ____
ROOT
ATOM      1  C   UNL     1       0.794  -0.473   1.126  0.00  0.00    +0.144 C 
ENDROOT
BRANCH   1   2
ATOM      2  C   UNL     1       0.176  -0.190   2.471  0.00  0.00    +0.226 C 
ATOM      3  O   UNL     1      -0.182  -1.107   3.179  0.00  0.00    -0.275 OA
ATOM      4  N   UNL     1       0.020   1.083   2.887  0.00  0.00    -0.299 N 
ATOM      5  C   UNL     1      -0.478   1.327   4.254  0.00  0.00    +0.110 C 
ATOM      6  C   UNL     1       0.288   2.478   4.922  0.00  0.00    +0.047 C 
ATOM      7  C   UNL     1       1.759   2.381   4.569  0.00  0.00    +0.161 C 
ATOM      8  O   UNL     1       1.999   3.148   3.396  0.00  0.00    -0.378 OA
ATOM      9  C   UNL     1       1.831   2.563   2.157  0.00  0.00    +0.178 C 
ATOM     10  C   UNL     1       0.353   2.161   1.974  0.00  0.00    +0.136 C 
ENDBRANCH   1   2
BRANCH   1  11
ATOM     11  C   UNL     1       2.000  -1.360   1.305  0.00  0.00    +0.144 C 
ATOM     12  N   UNL     1       1.886  -2.639   1.167  0.00  0.00    -0.076 NA
ATOM     13  N   UNL     1       3.222  -0.806   1.615  0.00  0.00    -0.343 N 
ATOM     14  H   UNL     1       3.294   0.146   1.786  0.00  0.00    +0.144 HD
ATOM     15  H   UNL     1       4.011  -1.368   1.662  0.00  0.00    +0.144 HD
BRANCH  12  16
ATOM     16  O   UNL     1       3.019  -3.472   1.334  0.00  0.00    -0.408 OA
ATOM     17  H   UNL     1       2.836  -4.414   1.211  0.00  0.00    +0.328 HD
ENDBRANCH  12  16
ENDBRANCH   1  11
BRANCH   1  19
ATOM     18  C   UNL     1      -1.493  -0.321   0.132  0.00  0.00    +0.008 C 
ATOM     19  C   UNL     1      -0.229  -1.177   0.232  0.00  0.00    +0.002 C 
ATOM     20  C   UNL     1       0.365  -1.374  -1.164  0.00  0.00    +0.008 C 
ENDBRANCH   1  19
TORSDOF 4
