REMARK  Name = ZINC50397773
REMARK  2 active torsions:
REMARK  status: ('A' for Active; 'I' for Inactive)
REMARK    1  A    between atoms: C_9  and  C_12
REMARK    2  A    between atoms: N_14  and  C_15
REMARK                            x       y       z     vdW  Elec       q    Type
REMARK                         _______ _______ _______ _____ _____    ______ ____
ROOT
ATOM      1  C   UNL     1       4.962  -2.591  -0.163  0.00  0.00    +0.256 C 
ATOM      2  O   UNL     1       5.793  -1.959   0.454  0.00  0.00    -0.272 OA
ATOM      3  N   UNL     1       5.236  -3.845  -0.573  0.00  0.00    -0.301 N 
ATOM      4  H   UNL     1       4.570  -4.351  -1.065  0.00  0.00    +0.150 HD
ENDROOT
BRANCH   1  13
ATOM      5  C   UNL     1      -0.017   1.379   0.010  0.00  0.00    +0.002 A 
ATOM      6  C   UNL     1       1.170   2.087   0.002  0.00  0.00    +0.004 A 
ATOM      7  C   UNL     1       2.381   1.420  -0.012  0.00  0.00    +0.047 A 
ATOM      8  C   UNL     1       2.410   0.034  -0.018  0.00  0.00    +0.142 A 
ATOM      9  C   UNL     1       1.213  -0.678  -0.013  0.00  0.00    +0.070 A 
ATOM     10  C   UNL     1       0.002  -0.004   0.002  0.00  0.00    +0.026 A 
ATOM     11  N   UNL     1       1.237  -2.082  -0.028  0.00  0.00    -0.337 N 
ATOM     12  C   UNL     1       2.518  -2.747   0.265  0.00  0.00    +0.155 C 
ATOM     13  C   UNL     1       3.622  -1.974  -0.470  0.00  0.00    +0.275 C 
ATOM     14  O   UNL     1       3.605  -0.615  -0.027  0.00  0.00    -0.476 OA
ATOM     15  H   UNL     1       0.438  -2.595  -0.224  0.00  0.00    +0.146 HD
ENDBRANCH   1  13
BRANCH   3  16
ATOM     16  C   UNL     1       6.538  -4.446  -0.274  0.00  0.00    +0.159 C 
ATOM     17  C   UNL     1       6.403  -5.970  -0.255  0.00  0.00    +0.033 C 
ATOM     18  C   UNL     1       7.809  -6.581  -0.217  0.00  0.00    +0.021 C 
ATOM     19  C   UNL     1       8.507  -6.287  -1.546  0.00  0.00    +0.104 C 
ATOM     20  N   UNL     1       8.418  -4.868  -1.866  0.00  0.00    -0.314 N 
ATOM     21  C   UNL     1       7.529  -4.035  -1.324  0.00  0.00    +0.233 C 
ATOM     22  O   UNL     1       7.523  -2.882  -1.700  0.00  0.00    -0.274 OA
ATOM     23  H   UNL     1       9.043  -4.507  -2.514  0.00  0.00    +0.149 HD
ENDBRANCH   3  16
TORSDOF 2
