REMARK  Name = ZINC49061001
REMARK  5 active torsions:
REMARK  status: ('A' for Active; 'I' for Inactive)
REMARK    1  A    between atoms: C_4  and  S_7
REMARK    2  A    between atoms: S_7  and  N_10
REMARK    3  A    between atoms: N_10  and  C_11
REMARK    4  A    between atoms: C_11  and  C_18
REMARK    5  A    between atoms: N_19  and  O_20
REMARK                            x       y       z     vdW  Elec       q    Type
REMARK                         _______ _______ _______ _____ _____    ______ ____
ROOT
ATOM      1  C   UNL     1       4.065  -2.202   0.955  0.00  0.00    +0.098 C 
ATOM      2  C   UNL     1       3.166  -3.094   1.836  0.00  0.00    +0.031 C 
ATOM      3  C   UNL     1       3.034  -4.440   1.176  0.00  0.00    +0.002 C 
ATOM      4  C   UNL     1       4.067  -5.457   1.699  0.00  0.00    +0.000 C 
ATOM      5  C   UNL     1       5.469  -4.844   1.881  0.00  0.00    +0.000 C 
ATOM      6  C   UNL     1       5.849  -3.929   0.749  0.00  0.00    +0.002 C 
ATOM      7  C   UNL     1       5.480  -2.484   1.142  0.00  0.00    +0.031 C 
ENDROOT
BRANCH   1   8
ATOM      8  C   UNL     1       3.804  -0.758   1.299  0.00  0.00    +0.153 C 
ATOM      9  N   UNL     1       4.539   0.171   0.785  0.00  0.00    -0.075 NA
ATOM     10  N   UNL     1       2.783  -0.430   2.163  0.00  0.00    -0.342 N 
ATOM     11  H   UNL     1       2.284  -1.130   2.612  0.00  0.00    +0.144 HD
ATOM     12  H   UNL     1       2.563   0.501   2.322  0.00  0.00    +0.144 HD
BRANCH   9  13
ATOM     13  O   UNL     1       5.492  -0.150  -0.212  0.00  0.00    -0.408 OA
ATOM     14  H   UNL     1       5.994   0.610  -0.536  0.00  0.00    +0.328 HD
ENDBRANCH   9  13
ENDBRANCH   1   8
BRANCH   1  15
ATOM     15  N   UNL     1       3.719  -2.423  -0.452  0.00  0.00    -0.176 NA
ATOM     16  H   UNL     1       4.402  -2.702  -1.081  0.00  0.00    +0.149 HD
BRANCH  15  17
ATOM     17  S   UNL     1       2.161  -2.198  -0.967  0.00  0.00    +0.067 S 
ATOM     18  O   UNL     1       1.322  -2.471   0.147  0.00  0.00    -0.152 OA
ATOM     19  O   UNL     1       2.038  -2.890  -2.202  0.00  0.00    -0.152 OA
BRANCH  17  23
ATOM     20  C   UNL     1       0.936   1.576  -1.826  0.00  0.00    +0.025 A 
ATOM     21  C   UNL     1       2.161   2.155  -1.854  0.00  0.00    +0.048 A 
ATOM     22  S   UNL     1       3.232   0.773  -1.493  0.00  0.00    -0.076 S 
ATOM     23  C   UNL     1       1.975  -0.484  -1.329  0.00  0.00    +0.156 A 
ATOM     24  C   UNL     1       0.840   0.223  -1.557  0.00  0.00    +0.051 A 
ATOM     25 BR   UNL     1      -0.847  -0.629  -1.506  0.00  0.00    -0.048 Br
ENDBRANCH  17  23
ENDBRANCH  15  17
ENDBRANCH   1  15
TORSDOF 5
