REMARK  Name = ZINC10109302
REMARK  7 active torsions:
REMARK  status: ('A' for Active; 'I' for Inactive)
REMARK    1  A    between atoms: C_1  and  O_2
REMARK    2  A    between atoms: O_2  and  C_3
REMARK    3  A    between atoms: C_8  and  O_9
REMARK    4  A    between atoms: O_9  and  C_10
REMARK    5  A    between atoms: C_11  and  C_31
REMARK    6  A    between atoms: N_13  and  S_16
REMARK    7  A    between atoms: S_16  and  C_19
REMARK                            x       y       z     vdW  Elec       q    Type
REMARK                         _______ _______ _______ _____ _____    ______ ____
ROOT
ATOM      1  C   UNL     1      10.289   0.006  -2.536  0.00  0.00    +0.162 A 
ATOM      2  C   UNL     1       9.116   0.725  -2.402  0.00  0.00    +0.053 A 
ATOM      3  C   UNL     1       7.890   0.074  -2.329  0.00  0.00    -0.037 A 
ATOM      4  C   UNL     1       7.844  -1.301  -2.398  0.00  0.00    -0.017 A 
ATOM      5  C   UNL     1       9.020  -2.029  -2.527  0.00  0.00    +0.055 A 
ATOM      6  C   UNL     1      10.241  -1.384  -2.597  0.00  0.00    +0.162 A 
ATOM      7  C   UNL     1       6.550  -2.066  -2.350  0.00  0.00    +0.140 C 
ATOM      8  N   UNL     1       5.455  -1.171  -1.960  0.00  0.00    -0.165 NA
ATOM      9  C   UNL     1       5.407   0.156  -2.597  0.00  0.00    +0.115 C 
ATOM     10  C   UNL     1       6.657   0.925  -2.173  0.00  0.00    +0.052 C 
ENDROOT
BRANCH   7  11
ATOM     11  C   UNL     1       6.665  -3.183  -1.346  0.00  0.00    -0.024 A 
ATOM     12  C   UNL     1       7.266  -2.953  -0.122  0.00  0.00    +0.005 A 
ATOM     13  C   UNL     1       7.368  -3.978   0.801  0.00  0.00    +0.000 A 
ATOM     14  C   UNL     1       6.878  -5.234   0.496  0.00  0.00    +0.000 A 
ATOM     15  C   UNL     1       6.283  -5.465  -0.730  0.00  0.00    +0.000 A 
ATOM     16  C   UNL     1       6.177  -4.440  -1.651  0.00  0.00    +0.005 A 
ENDBRANCH   7  11
BRANCH   8  17
ATOM     17  S   UNL     1       4.322  -1.631  -0.844  0.00  0.00    +0.062 S 
ATOM     18  O   UNL     1       3.747  -0.437  -0.332  0.00  0.00    -0.153 OA
ATOM     19  O   UNL     1       4.945  -2.596  -0.007  0.00  0.00    -0.153 OA
BRANCH  17  20
ATOM     20  C   UNL     1       3.043  -2.472  -1.716  0.00  0.00    +0.108 A 
ATOM     21  C   UNL     1       3.120  -3.842  -1.901  0.00  0.00    +0.030 A 
ATOM     22  C   UNL     1       2.122  -4.510  -2.583  0.00  0.00    +0.030 A 
ATOM     23  C   UNL     1       1.038  -3.806  -3.085  0.00  0.00    +0.067 A 
ATOM     24  C   UNL     1       0.960  -2.424  -2.898  0.00  0.00    +0.069 A 
ATOM     25  C   UNL     1       1.967  -1.762  -2.212  0.00  0.00    +0.056 A 
ATOM     26  N   UNL     1      -0.221  -2.002  -3.504  0.00  0.00    -0.306 N 
ATOM     27  H   UNL     1      -0.547  -1.089  -3.537  0.00  0.00    +0.170 HD
ATOM     28  C   UNL     1      -0.833  -3.078  -4.034  0.00  0.00    +0.325 A 
ATOM     29  O   UNL     1      -1.889  -3.055  -4.640  0.00  0.00    -0.247 OA
ATOM     30  N   UNL     1      -0.098  -4.180  -3.798  0.00  0.00    -0.306 N 
ATOM     31  H   UNL     1      -0.321  -5.082  -4.077  0.00  0.00    +0.170 HD
ENDBRANCH  17  20
ENDBRANCH   8  17
BRANCH   1  33
ATOM     32  C   UNL     1      11.453   2.080  -2.538  0.00  0.00    +0.277 C 
ATOM     33  O   UNL     1      11.483   0.653  -2.608  0.00  0.00    -0.491 OA
ENDBRANCH   1  33
BRANCH   6  34
ATOM     34  O   UNL     1      11.389  -2.103  -2.724  0.00  0.00    -0.491 OA
ATOM     35  C   UNL     1      11.260  -3.525  -2.780  0.00  0.00    +0.277 C 
ENDBRANCH   6  34
TORSDOF 5
