REMARK  Name = ZINC20701263
REMARK  4 active torsions:
REMARK  status: ('A' for Active; 'I' for Inactive)
REMARK    1  A    between atoms: C_3  and  O_29
REMARK    2  A    between atoms: C_6  and  N_7
REMARK    3  A    between atoms: C_17  and  C_20
REMARK    4  A    between atoms: C_25  and  O_26
REMARK                            x       y       z     vdW  Elec       q    Type
REMARK                         _______ _______ _______ _____ _____    ______ ____
ROOT
ATOM      1  C   UNL     1       4.621   1.147  -1.278  0.00  0.00    +0.037 A 
ATOM      2  C   UNL     1       4.076   2.324  -0.797  0.00  0.00    +0.049 A 
ATOM      3  C   UNL     1       2.730   2.378  -0.484  0.00  0.00    +0.138 A 
ATOM      4  C   UNL     1       1.921   1.249  -0.650  0.00  0.00    +0.076 A 
ATOM      5  C   UNL     1       2.471   0.074  -1.127  0.00  0.00    +0.014 A 
ATOM      6  C   UNL     1       3.825   0.033  -1.440  0.00  0.00    +0.132 A 
ATOM      7  C   UNL     1       1.665  -1.175  -1.324  0.00  0.00    +0.051 C 
ATOM      8  C   UNL     1       2.012  -2.205  -0.274  0.00  0.00    -0.023 C 
ATOM      9  C   UNL     1       0.935  -2.836   0.123  0.00  0.00    -0.030 C 
ATOM     10  C   UNL     1      -0.285  -2.321  -0.615  0.00  0.00    +0.033 C 
ATOM     11  C   UNL     1       0.158  -0.917  -1.114  0.00  0.00    +0.029 C 
ATOM     12  C   UNL     1      -0.019   0.068   0.044  0.00  0.00    +0.109 C 
ATOM     13  N   UNL     1       0.568   1.358  -0.320  0.00  0.00    -0.333 N 
ATOM     14  H   UNL     1      -0.052   2.267  -0.311  0.00  0.00    +0.147 HD
ENDROOT
BRANCH  12  15
ATOM     15  C   UNL     1       0.671  -0.470   1.271  0.00  0.00    +0.017 A 
ATOM     16  C   UNL     1       2.012  -0.206   1.481  0.00  0.00    +0.029 A 
ATOM     17  C   UNL     1       2.645  -0.695   2.609  0.00  0.00    +0.043 A 
ATOM     18  C   UNL     1       1.942  -1.458   3.525  0.00  0.00    +0.043 A 
ATOM     19  C   UNL     1       0.602  -1.728   3.316  0.00  0.00    +0.084 A 
ATOM     20  C   UNL     1      -0.036  -1.234   2.186  0.00  0.00    +0.140 A 
ATOM     21 CL   UNL     1      -0.281  -2.685   4.464  0.00  0.00    -0.080 Cl
ATOM     22 CL   UNL     1       4.327  -0.357   2.874  0.00  0.00    -0.083 Cl
BRANCH  20  23
ATOM     23  O   UNL     1      -1.353  -1.498   1.978  0.00  0.00    -0.505 OA
ATOM     24  H   UNL     1      -1.914  -2.104   2.705  0.00  0.00    +0.292 HD
ENDBRANCH  20  23
ENDBRANCH  12  15
BRANCH   6  25
ATOM     25  N   UNL     1       4.418  -1.222  -1.954  0.00  0.00    +0.057 N 
ATOM     26  O   UNL     1       5.604  -1.266  -2.231  0.00  0.00    -0.126 OA
ATOM     27  O   UNL     1       3.722  -2.211  -2.100  0.00  0.00    -0.126 OA
ENDBRANCH   6  25
BRANCH   3  28
ATOM     28  O   UNL     1       2.191   3.534  -0.011  0.00  0.00    -0.505 OA
ATOM     29  H   UNL     1       1.121   3.579   0.239  0.00  0.00    +0.292 HD
ENDBRANCH   3  28
TORSDOF 4
