REMARK  Name = ZINC01068472
REMARK  4 active torsions:
REMARK  status: ('A' for Active; 'I' for Inactive)
REMARK    1  A    between atoms: C_1  and  C_2
REMARK    2  A    between atoms: C_5  and  C_8
REMARK    3  A    between atoms: N_10  and  S_14
REMARK    4  A    between atoms: S_14  and  C_17
REMARK                            x       y       z     vdW  Elec       q    Type
REMARK                         _______ _______ _______ _____ _____    ______ ____
ROOT
ATOM      1  C   UNL     1       0.060  -4.256  -0.021  0.00  0.00    +0.043 A 
ATOM      2  C   UNL     1       0.913  -5.055   0.681  0.00  0.00    +0.146 A 
ATOM      3  N   UNL     1       0.602  -6.336   0.399  0.00  0.00    -0.134 N 
ATOM      4  N   UNL     1      -0.471  -6.341  -0.500  0.00  0.00    -0.134 NA
ATOM      5  C   UNL     1      -0.807  -5.100  -0.754  0.00  0.00    +0.148 A 
ATOM      6  N   UNL     1      -1.837  -4.683  -1.602  0.00  0.00    -0.341 N 
ATOM      7  H   UNL     1      -2.008  -3.737  -1.729  0.00  0.00    +0.144 HD
ATOM      8  H   UNL     1      -2.381  -5.340  -2.064  0.00  0.00    +0.144 HD
ENDROOT
BRANCH   1  13
ATOM      9  C   UNL     1      -0.018   1.503   0.010  0.00  0.00    +0.044 C 
ATOM     10  C   UNL     1       0.002  -0.004   0.002  0.00  0.00    -0.050 A 
ATOM     11  C   UNL     1       0.006  -0.686  -1.201  0.00  0.00    +0.004 A 
ATOM     12  C   UNL     1       0.024  -2.067  -1.215  0.00  0.00    +0.009 A 
ATOM     13  C   UNL     1       0.040  -2.772  -0.013  0.00  0.00    -0.013 A 
ATOM     14  C   UNL     1       0.037  -2.080   1.196  0.00  0.00    +0.009 A 
ATOM     15  C   UNL     1       0.023  -0.700   1.198  0.00  0.00    +0.004 A 
ENDBRANCH   1  13
BRANCH   3  16
ATOM     16  S   UNL     1       1.359  -7.675   1.012  0.00  0.00    +0.101 S 
ATOM     17  O   UNL     1       1.132  -8.729   0.086  0.00  0.00    -0.146 OA
ATOM     18  O   UNL     1       2.664  -7.265   1.394  0.00  0.00    -0.146 OA
BRANCH  16  19
ATOM     19  C   UNL     1       0.516  -8.118   2.495  0.00  0.00    +0.140 A 
ATOM     20  C   UNL     1      -0.146  -9.296   2.570  0.00  0.00    +0.031 A 
ATOM     21  C   UNL     1      -0.824  -9.679   3.728  0.00  0.00    +0.004 A 
ATOM     22  C   UNL     1      -0.850  -8.888   4.826  0.00  0.00    +0.031 A 
ATOM     23  C   UNL     1      -0.177  -7.637   4.820  0.00  0.00    +0.102 A 
ATOM     24  C   UNL     1       0.537  -7.239   3.612  0.00  0.00    +0.127 A 
ATOM     25  N   UNL     1       1.134  -6.051   3.722  0.00  0.00    -0.189 NA
ATOM     26  S   UNL     1       0.806  -5.537   5.211  0.00  0.00    +0.117 S 
ATOM     27  N   UNL     1      -0.094  -6.734   5.799  0.00  0.00    -0.191 NA
ENDBRANCH  16  19
ENDBRANCH   3  16
TORSDOF 3
