REMARK  Name = ZINC49798232
REMARK  9 active torsions:
REMARK  status: ('A' for Active; 'I' for Inactive)
REMARK    1  A    between atoms: C_1  and  C_2
REMARK    2  A    between atoms: C_2  and  N_9
REMARK    3  A    between atoms: N_9  and  N_10
REMARK    4  A    between atoms: N_13  and  C_14
REMARK    5  A    between atoms: C_14  and  C_15
REMARK    6  A    between atoms: C_15  and  C_17
REMARK    7  A    between atoms: C_15  and  N_24
REMARK    8  A    between atoms: N_24  and  C_25
REMARK    9  A    between atoms: N_24  and  C_26
REMARK                            x       y       z     vdW  Elec       q    Type
REMARK                         _______ _______ _______ _____ _____    ______ ____
ROOT
ATOM      1  N   UNL     1       0.364  -0.946  -1.636  0.00  0.00    -0.234 N 
ATOM      2  C   UNL     1       0.839  -0.933  -2.897  0.00  0.00    +0.313 C 
ATOM      3  O   UNL     1       0.276  -0.278  -3.752  0.00  0.00    -0.252 OA
ATOM      4  N   UNL     1       1.939  -1.647  -3.210  0.00  0.00    -0.300 N 
ATOM      5  H   UNL     1      -0.427  -0.432  -1.410  0.00  0.00    +0.171 HD
ATOM      6  H   UNL     1       2.388  -2.170  -2.527  0.00  0.00    +0.150 HD
ENDROOT
BRANCH   1   7
ATOM      7  N   UNL     1       0.997  -1.682  -0.675  0.00  0.00    -0.232 NA
ATOM      8  H   UNL     1       1.070  -2.650  -0.950  0.00  0.00    +0.145 HD
BRANCH   7  10
ATOM      9  C   UNL     1       0.307  -0.078   1.024  0.00  0.00    +0.031 C 
ATOM     10  C   UNL     1       0.316  -1.554   0.621  0.00  0.00    +0.054 C 
ATOM     11  C   UNL     1      -1.129  -2.026   0.459  0.00  0.00    +0.047 C 
ATOM     12  C   UNL     1      -1.234  -3.549   0.753  0.00  0.00    +0.168 C 
ATOM     13  S   UNL     1      -0.074  -3.666   2.186  0.00  0.00    -0.029 S 
ATOM     14  O   UNL     1      -0.749  -3.256   3.368  0.00  0.00    -0.174 OA
ATOM     15  O   UNL     1       0.584  -4.925   2.152  0.00  0.00    -0.174 OA
ATOM     16  C   UNL     1       1.108  -2.350   1.676  0.00  0.00    +0.189 C 
ENDBRANCH   7  10
ENDBRANCH   1   7
BRANCH   4  17
ATOM     17  C   UNL     1       2.455  -1.634  -4.581  0.00  0.00    +0.095 C 
BRANCH  17  18
ATOM     18  C   UNL     1       3.770  -2.414  -4.638  0.00  0.00    -0.021 C 
BRANCH  18  19
ATOM     19  C   UNL     1       4.813  -1.701  -3.816  0.00  0.00    -0.057 A 
ATOM     20  C   UNL     1       5.474  -0.605  -4.337  0.00  0.00    +0.002 A 
ATOM     21  C   UNL     1       6.431   0.050  -3.584  0.00  0.00    +0.003 A 
ATOM     22  C   UNL     1       6.728  -0.392  -2.308  0.00  0.00    +0.038 A 
ATOM     23  C   UNL     1       6.066  -1.490  -1.785  0.00  0.00    +0.124 A 
ATOM     24  C   UNL     1       5.104  -2.141  -2.538  0.00  0.00    +0.040 A 
ATOM     25  F   UNL     1       6.356  -1.922  -0.538  0.00  0.00    -0.205 F 
ENDBRANCH  18  19
BRANCH  18  26
ATOM     26  N   UNL     1       4.225  -2.506  -6.032  0.00  0.00    +0.382 N 
ATOM     27  C   UNL     1       5.513  -3.210  -6.082  0.00  0.00    -0.096 C 
ATOM     28  C   UNL     1       3.231  -3.244  -6.823  0.00  0.00    -0.096 C 
ATOM     29  H   UNL     1       4.335  -1.577  -6.412  0.00  0.00    -0.082 HD
ENDBRANCH  18  26
ENDBRANCH  17  18
ENDBRANCH   4  17
TORSDOF 6
