REMARK  Name = ZINC58994439
REMARK  2 active torsions:
REMARK  status: ('A' for Active; 'I' for Inactive)
REMARK    1  A    between atoms: C_6  and  C_7
REMARK    2  A    between atoms: N_9  and  C_10
REMARK                            x       y       z     vdW  Elec       q    Type
REMARK                         _______ _______ _______ _____ _____    ______ ____
ROOT
ATOM      1  C   UNL     1      -0.017   1.530   0.015  0.00  0.00    +0.032 C 
ATOM      2  C   UNL     1       1.424   2.052   0.002  0.00  0.00    +0.110 C 
ATOM      3  N   UNL     1       2.129   1.465  -1.145  0.00  0.00    -0.286 N 
ATOM      4  C   UNL     1       2.129   0.004  -1.302  0.00  0.00    +0.110 C 
ATOM      5  C   UNL     1       0.681  -0.495  -1.275  0.00  0.00    +0.032 C 
ATOM      6  C   UNL     1      -0.000  -0.000   0.003  0.00  0.00    +0.078 C 
ATOM      7  C   UNL     1       2.764   2.251  -2.037  0.00  0.00    +0.300 C 
ATOM      8  O   UNL     1       2.677   3.461  -1.951  0.00  0.00    -0.253 OA
ATOM      9  N   UNL     1       3.495   1.697  -3.024  0.00  0.00    -0.313 N 
ATOM     10  H   UNL     1       3.506   0.734  -3.137  0.00  0.00    +0.146 HD
ATOM     11  H   UNL     1       4.010   2.261  -3.622  0.00  0.00    +0.146 HD
ENDROOT
BRANCH   6  12
ATOM     12  C   UNL     1      -1.415  -0.517   0.050  0.00  0.00    +0.216 C 
ATOM     13  O   UNL     1      -2.344   0.261   0.089  0.00  0.00    -0.276 OA
ATOM     14  N   UNL     1      -1.647  -1.845   0.049  0.00  0.00    -0.312 N 
ATOM     15  H   UNL     1      -0.904  -2.467   0.017  0.00  0.00    +0.149 HD
BRANCH  14  16
ATOM     16  C   UNL     1      -3.023  -2.348   0.094  0.00  0.00    +0.077 C 
ATOM     17  C   UNL     1      -3.491  -2.427   1.550  0.00  0.00    +0.050 C 
ATOM     18  C   UNL     1      -4.899  -3.027   1.593  0.00  0.00    +0.161 C 
ATOM     19  O   UNL     1      -4.886  -4.315   0.975  0.00  0.00    -0.380 OA
ATOM     20  C   UNL     1      -4.501  -4.297  -0.401  0.00  0.00    +0.161 C 
ATOM     21  C   UNL     1      -3.077  -3.748  -0.524  0.00  0.00    +0.050 C 
ENDBRANCH  14  16
ENDBRANCH   6  12
TORSDOF 2
