REMARK  Name = ZINC00103054
REMARK  3 active torsions:
REMARK  status: ('A' for Active; 'I' for Inactive)
REMARK    1  A    between atoms: C_3  and  O_14
REMARK    2  A    between atoms: C_6  and  N_7
REMARK    3  A    between atoms: O_14  and  C_15
REMARK                            x       y       z     vdW  Elec       q    Type
REMARK                         _______ _______ _______ _____ _____    ______ ____
ROOT
ATOM      1  C   UNL     1      -0.025   1.388   0.189  0.00  0.00    +0.031 A 
ATOM      2  C   UNL     1       1.157   2.100   0.191  0.00  0.00    +0.048 A 
ATOM      3  C   UNL     1       2.366   1.442   0.016  0.00  0.00    +0.130 A 
ATOM      4  C   UNL     1       2.393   0.066  -0.160  0.00  0.00    +0.048 A 
ATOM      5  C   UNL     1       1.216  -0.654  -0.163  0.00  0.00    +0.031 A 
ATOM      6  C   UNL     1      -0.003   0.004   0.012  0.00  0.00    +0.067 A 
ENDROOT
BRANCH   6   7
ATOM      7  N   UNL     1      -1.175  -0.708   0.010  0.00  0.00    -0.226 NA
ATOM      8  C   UNL     1      -2.159  -0.350  -0.783  0.00  0.00    +0.154 C 
ATOM      9  N   UNL     1      -2.014   0.664  -1.720  0.00  0.00    -0.324 N 
ATOM     10  C   UNL     1      -3.024   1.726  -1.755  0.00  0.00    +0.104 C 
ATOM     11  C   UNL     1      -4.407   1.148  -2.044  0.00  0.00    +0.030 C 
ATOM     12  C   UNL     1      -4.877   0.285  -0.866  0.00  0.00    +0.079 C 
ATOM     13  S   UNL     1      -3.745  -1.141  -0.722  0.00  0.00    -0.091 S 
ATOM     14  H   UNL     1      -1.264   0.670  -2.335  0.00  0.00    +0.148 HD
ENDBRANCH   6   7
BRANCH   3  15
ATOM     15  O   UNL     1       3.528   2.148   0.018  0.00  0.00    -0.406 OA
BRANCH  15  16
ATOM     16  C   UNL     1       4.737   1.409  -0.167  0.00  0.00    +0.575 C 
ATOM     17  F   UNL     1       4.698   0.752  -1.401  0.00  0.00    -0.133 F 
ATOM     18  F   UNL     1       5.828   2.284  -0.138  0.00  0.00    -0.133 F 
ATOM     19  F   UNL     1       4.868   0.466   0.859  0.00  0.00    -0.133 F 
ENDBRANCH  15  16
ENDBRANCH   3  15
TORSDOF 3
