REMARK  Name = ZINC39672309
REMARK  7 active torsions:
REMARK  status: ('A' for Active; 'I' for Inactive)
REMARK    1  A    between atoms: C_1  and  C_2
REMARK    2  A    between atoms: C_7  and  C_8
REMARK    3  A    between atoms: C_8  and  C_9
REMARK    4  A    between atoms: C_13  and  C_22
REMARK    5  A    between atoms: N_24  and  C_25
REMARK    6  A    between atoms: C_25  and  C_26
REMARK    7  A    between atoms: N_35  and  C_36
REMARK                            x       y       z     vdW  Elec       q    Type
REMARK                         _______ _______ _______ _____ _____    ______ ____
ROOT
ATOM      1  C   UNL     1      -1.202   0.347   2.882  0.00  0.00    +0.220 C 
ATOM      2  O   UNL     1      -2.086  -0.021   2.137  0.00  0.00    -0.275 OA
ATOM      3  N   UNL     1      -1.507   1.029   4.004  0.00  0.00    -0.300 N 
ATOM      4  C   UNL     1      -0.575   1.562   5.025  0.00  0.00    +0.121 C 
ATOM      5  C   UNL     1      -1.166   2.935   5.415  0.00  0.00    +0.100 C 
ATOM      6  C   UNL     1      -2.661   2.831   5.067  0.00  0.00    -0.004 C 
ATOM      7  C   UNL     1      -2.851   1.420   4.492  0.00  0.00    +0.115 C 
ATOM      8  C   UNL     1      -3.033   3.876   4.020  0.00  0.00    -0.010 C 
ATOM      9  C   UNL     1      -4.535   3.791   3.732  0.00  0.00    -0.082 C 
ATOM     10  N   UNL     1      -5.286   4.022   4.972  0.00  0.00    +0.379 N 
ATOM     11  C   UNL     1      -4.992   2.961   5.942  0.00  0.00    -0.082 C 
ATOM     12  C   UNL     1      -3.509   3.010   6.322  0.00  0.00    -0.010 C 
ATOM     13  H   UNL     1      -5.021   4.915   5.362  0.00  0.00    -0.086 HD
ATOM     14  H   UNL     1      -6.274   4.027   4.769  0.00  0.00    -0.086 HD
ENDROOT
BRANCH   5  15
ATOM     15  C   UNL     1      -0.514   4.033   4.616  0.00  0.00    +0.218 C 
ATOM     16  O   UNL     1      -0.063   3.797   3.516  0.00  0.00    -0.275 OA
ATOM     17  N   UNL     1      -0.433   5.279   5.125  0.00  0.00    -0.311 N 
ATOM     18  H   UNL     1      -0.794   5.468   6.005  0.00  0.00    +0.149 HD
BRANCH  17  19
ATOM     19  C   UNL     1       0.201   6.347   4.348  0.00  0.00    +0.139 C 
BRANCH  19  20
ATOM     20  C   UNL     1       0.163   7.631   5.136  0.00  0.00    -0.030 A 
ATOM     21  C   UNL     1      -0.916   8.487   5.008  0.00  0.00    +0.007 A 
ATOM     22  C   UNL     1      -0.951   9.664   5.728  0.00  0.00    +0.024 A 
ATOM     23  C   UNL     1       0.098   9.988   6.582  0.00  0.00    +0.033 A 
ATOM     24  C   UNL     1       1.178   9.129   6.712  0.00  0.00    -0.026 A 
ATOM     25  C   UNL     1       1.203   7.949   5.987  0.00  0.00    +0.010 A 
ATOM     26  C   UNL     1       2.326   9.442   7.634  0.00  0.00    +0.038 C 
ATOM     27  C   UNL     1       2.374  10.939   7.941  0.00  0.00    +0.024 C 
ATOM     28  C   UNL     1       0.986  11.393   8.410  0.00  0.00    +0.105 C 
ATOM     29  N   UNL     1       0.046  11.188   7.299  0.00  0.00    -0.333 N 
ATOM     30  C   UNL     1      -0.928  12.224   6.948  0.00  0.00    +0.129 C 
ENDBRANCH  19  20
ENDBRANCH  17  19
ENDBRANCH   5  15
BRANCH   1  31
ATOM     31  C   UNL     1       0.237   0.042   2.554  0.00  0.00    +0.131 C 
BRANCH  31  38
ATOM     32  C   UNL     1       0.252   1.461   0.037  0.00  0.00    +0.044 C 
ATOM     33  C   UNL     1       0.312  -0.044   0.053  0.00  0.00    -0.047 A 
ATOM     34  C   UNL     1       0.380  -0.746  -1.136  0.00  0.00    +0.003 A 
ATOM     35  C   UNL     1       0.434  -2.127  -1.121  0.00  0.00    +0.000 A 
ATOM     36  C   UNL     1       0.422  -2.807   0.083  0.00  0.00    +0.000 A 
ATOM     37  C   UNL     1       0.355  -2.105   1.272  0.00  0.00    +0.004 A 
ATOM     38  C   UNL     1       0.304  -0.724   1.257  0.00  0.00    -0.036 A 
ENDBRANCH  31  38
ENDBRANCH   1  31
TORSDOF 5
