REMARK  Name = ZINC07594246
REMARK  5 active torsions:
REMARK  status: ('A' for Active; 'I' for Inactive)
REMARK    1  A    between atoms: C_5  and  C_7
REMARK    2  A    between atoms: C_7  and  N_8
REMARK    3  A    between atoms: C_10  and  C_15
REMARK    4  A    between atoms: N_17  and  C_18
REMARK    5  A    between atoms: C_22  and  N_24
REMARK                            x       y       z     vdW  Elec       q    Type
REMARK                         _______ _______ _______ _____ _____    ______ ____
ROOT
ATOM      1  N   UNL     1       2.219   9.452   0.445  0.00  0.00    -0.310 N 
ATOM      2  C   UNL     1       2.238   8.110   0.338  0.00  0.00    +0.102 A 
ATOM      3  C   UNL     1       1.059   7.399   0.241  0.00  0.00    +0.053 A 
ATOM      4  C   UNL     1      -0.175   8.093   0.251  0.00  0.00    +0.020 A 
ATOM      5  C   UNL     1      -0.170   9.447   0.366  0.00  0.00    +0.071 A 
ATOM      6  C   UNL     1       1.057  10.130   0.462  0.00  0.00    +0.252 A 
ATOM      7  O   UNL     1       1.067  11.346   0.561  0.00  0.00    -0.268 OA
ENDROOT
BRANCH   3   8
ATOM      8  C   UNL     1       1.085   5.930   0.123  0.00  0.00    +0.250 C 
ATOM      9  O   UNL     1       2.149   5.340   0.110  0.00  0.00    -0.270 OA
ATOM     10  N   UNL     1      -0.069   5.241   0.029  0.00  0.00    -0.281 N 
ATOM     11  H   UNL     1      -0.913   5.715  -0.038  0.00  0.00    +0.155 HD
BRANCH  10  12
ATOM     12  C   UNL     1      -0.051   3.842   0.028  0.00  0.00    +0.036 A 
ATOM     13  C   UNL     1      -0.990   3.134  -0.711  0.00  0.00    +0.023 A 
ATOM     14  C   UNL     1      -0.969   1.754  -0.709  0.00  0.00    +0.004 A 
ATOM     15  C   UNL     1      -0.015   1.076   0.027  0.00  0.00    +0.033 A 
ATOM     16  C   UNL     1       0.918   1.778   0.768  0.00  0.00    +0.128 A 
ATOM     17  C   UNL     1       0.906   3.159   0.767  0.00  0.00    +0.056 A 
BRANCH  16  18
ATOM     18  N   UNL     1       1.934   1.048   1.560  0.00  0.00    +0.056 N 
ATOM     19  O   UNL     1       1.948  -0.170   1.558  0.00  0.00    -0.126 OA
ATOM     20  O   UNL     1       2.756   1.665   2.213  0.00  0.00    -0.126 OA
ENDBRANCH  16  18
ENDBRANCH  10  12
ENDBRANCH   3   8
BRANCH   1  21
ATOM     21  C   UNL     1       3.483  10.185   0.547  0.00  0.00    +0.162 C 
BRANCH  21  26
ATOM     22  C   UNL     1       4.291  12.189  -2.550  0.00  0.00    +0.000 A 
ATOM     23  C   UNL     1       4.847  11.223  -3.368  0.00  0.00    +0.003 A 
ATOM     24  C   UNL     1       4.962   9.921  -2.921  0.00  0.00    +0.039 A 
ATOM     25  C   UNL     1       4.524   9.584  -1.651  0.00  0.00    +0.128 A 
ATOM     26  C   UNL     1       3.964  10.551  -0.834  0.00  0.00    +0.007 A 
ATOM     27  C   UNL     1       3.850  11.853  -1.284  0.00  0.00    +0.008 A 
ATOM     28  F   UNL     1       4.641   8.312  -1.211  0.00  0.00    -0.205 F 
ENDBRANCH  21  26
ENDBRANCH   1  21
TORSDOF 5
