REMARK  Name = ZINC32534242
REMARK  8 active torsions:
REMARK  status: ('A' for Active; 'I' for Inactive)
REMARK    1  A    between atoms: C_1  and  C_2
REMARK    2  A    between atoms: C_2  and  C_3
REMARK    3  A    between atoms: C_3  and  C_4
REMARK    4  A    between atoms: C_11  and  N_20
REMARK    5  A    between atoms: C_12  and  C_18
REMARK    6  A    between atoms: C_13  and  C_15
REMARK    7  A    between atoms: C_15  and  C_16
REMARK    8  A    between atoms: C_15  and  C_17
REMARK                            x       y       z     vdW  Elec       q    Type
REMARK                         _______ _______ _______ _____ _____    ______ ____
ROOT
ATOM      1  C   UNL     1       0.744  -1.322  -1.251  0.00  0.00    +0.044 A 
ATOM      2  C   UNL     1       0.054  -2.346  -1.776  0.00  0.00    +0.045 A 
ATOM      3  C   UNL     1       0.826  -3.519  -1.623  0.00  0.00    +0.244 A 
ATOM      4  N   UNL     1       1.935  -3.196  -1.025  0.00  0.00    -0.135 NA
ATOM      5  N   UNL     1       1.915  -1.813  -0.782  0.00  0.00    -0.278 N 
ATOM      6  H   UNL     1       2.616  -1.300  -0.352  0.00  0.00    +0.189 HD
ATOM      7  O   UNL     1       0.392  -4.730  -2.063  0.00  0.00    -0.422 OA
ATOM      8  C   UNL     1      -0.672  -4.745  -2.891  0.00  0.00    +0.200 C 
ATOM      9  C   UNL     1      -1.488  -3.692  -3.107  0.00  0.00    +0.094 C 
ATOM     10  C   UNL     1      -1.302  -2.356  -2.433  0.00  0.00    +0.074 C 
ENDROOT
BRANCH  10  11
ATOM     11  C   UNL     1      -2.390  -2.156  -1.375  0.00  0.00    -0.004 C 
ATOM     12  C   UNL     1      -3.753  -2.040  -2.060  0.00  0.00    +0.008 C 
ATOM     13  C   UNL     1      -2.399  -3.352  -0.420  0.00  0.00    +0.008 C 
ENDBRANCH  10  11
BRANCH   8  14
ATOM     14  N   UNL     1      -0.945  -5.912  -3.560  0.00  0.00    -0.328 N 
ATOM     15  H   UNL     1      -0.380  -6.689  -3.429  0.00  0.00    +0.145 HD
ATOM     16  H   UNL     1      -1.703  -5.959  -4.164  0.00  0.00    +0.145 HD
ENDBRANCH   8  14
BRANCH   9  17
ATOM     17  C   UNL     1      -2.580  -3.850  -4.019  0.00  0.00    +0.100 C 
ATOM     18  N   UNL     1      -3.447  -3.976  -4.743  0.00  0.00    -0.191 NA
ENDBRANCH   9  17
BRANCH   1  19
ATOM     19  C   UNL     1       0.299   0.117  -1.199  0.00  0.00    +0.055 C 
BRANCH  19  21
ATOM     20  C   UNL     1      -0.742   1.875   0.238  0.00  0.00    +0.004 C 
ATOM     21  C   UNL     1      -0.386   0.390   0.141  0.00  0.00    +0.003 C 
ENDBRANCH  19  21
ENDBRANCH   1  19
TORSDOF 5
