REMARK  Name = ZINC25182309
REMARK  5 active torsions:
REMARK  status: ('A' for Active; 'I' for Inactive)
REMARK    1  A    between atoms: C_1  and  C_2
REMARK    2  A    between atoms: C_2  and  C_17
REMARK    3  A    between atoms: N_3  and  N_4
REMARK    4  A    between atoms: C_7  and  C_10
REMARK    5  A    between atoms: C_21  and  N_24
REMARK                            x       y       z     vdW  Elec       q    Type
REMARK                         _______ _______ _______ _____ _____    ______ ____
ROOT
ATOM      1  N   UNL     1      -0.149   1.179  -0.959  0.00  0.00    -0.124 NA
ATOM      2  C   UNL     1       0.980   1.790  -1.475  0.00  0.00    +0.192 A 
ATOM      3  N   UNL     1       1.114   2.999  -1.991  0.00  0.00    -0.332 N 
ATOM      4  C   UNL     1       2.284   3.429  -2.440  0.00  0.00    +0.055 A 
ATOM      5  C   UNL     1       3.370   2.601  -2.379  0.00  0.00    +0.075 A 
ATOM      6  S   UNL     1       2.642   1.151  -1.630  0.00  0.00    -0.056 S 
ATOM      7  H   UNL     1       0.245   3.670  -2.054  0.00  0.00    +0.168 HD
ENDROOT
BRANCH   4   8
ATOM      8  C   UNL     1       2.412   4.792  -3.009  0.00  0.00    -0.001 A 
ATOM      9  C   UNL     1       3.645   5.239  -3.481  0.00  0.00    +0.011 A 
ATOM     10  C   UNL     1       3.758   6.507  -4.015  0.00  0.00    +0.020 A 
ATOM     11  C   UNL     1       2.652   7.338  -4.072  0.00  0.00    +0.041 A 
ATOM     12  C   UNL     1       1.427   6.900  -3.600  0.00  0.00    +0.020 A 
ATOM     13  C   UNL     1       1.302   5.632  -3.069  0.00  0.00    +0.011 A 
ATOM     14 CL   UNL     1       2.803   8.934  -4.737  0.00  0.00    -0.084 Cl
ENDBRANCH   4   8
BRANCH   1  17
ATOM     15  C   UNL     1      -0.997  -2.031   0.748  0.00  0.00    +0.068 C 
ATOM     16  C   UNL     1      -1.113  -0.672   0.107  0.00  0.00    +0.064 C 
ATOM     17  N   UNL     1      -0.073  -0.129  -0.461  0.00  0.00    -0.152 NA
BRANCH  16  18
ATOM     18  C   UNL     1      -2.350   0.015   0.123  0.00  0.00    -0.026 C 
ATOM     19  C   UNL     1      -2.692   0.770   1.192  0.00  0.00    +0.005 C 
ATOM     20  C   UNL     1      -3.991   1.442   1.220  0.00  0.00    -0.006 C 
ATOM     21  C   UNL     1      -4.958   1.059   0.388  0.00  0.00    -0.043 C 
ATOM     22  C   UNL     1      -4.736  -0.086  -0.565  0.00  0.00    -0.047 C 
ATOM     23  C   UNL     1      -3.286  -0.090  -1.054  0.00  0.00    +0.025 C 
BRANCH  22  24
ATOM     24  N   UNL     1      -5.028  -1.353   0.118  0.00  0.00    +0.382 N 
ATOM     25  H   UNL     1      -4.866  -2.190  -0.576  0.00  0.00    -0.089 HD
ATOM     26  H   UNL     1      -6.074  -1.354   0.458  0.00  0.00    -0.089 HD
ATOM     27  H   UNL     1      -4.361  -1.462   0.986  0.00  0.00    -0.089 HD
ENDBRANCH  22  24
ENDBRANCH  16  18
ENDBRANCH   1  17
TORSDOF 4
