REMARK  Name = ZINC55175186
REMARK  6 active torsions:
REMARK  status: ('A' for Active; 'I' for Inactive)
REMARK    1  A    between atoms: C_1  and  C_2
REMARK    2  A    between atoms: C_2  and  O_3
REMARK    3  A    between atoms: O_3  and  C_4
REMARK    4  A    between atoms: C_7  and  C_10
REMARK    5  A    between atoms: C_12  and  C_25
REMARK    6  A    between atoms: C_13  and  N_24
REMARK                            x       y       z     vdW  Elec       q    Type
REMARK                         _______ _______ _______ _____ _____    ______ ____
ROOT
ATOM      1  C   UNL     1       1.109  -6.040  -1.847  0.00  0.00    +0.164 C 
ATOM      2  C   UNL     1       0.426  -6.444  -3.125  0.00  0.00    +0.092 C 
ATOM      3  C   UNL     1       1.102  -6.827  -4.236  0.00  0.00    +0.104 C 
ATOM      4  N   UNL     1       2.480  -6.883  -4.269  0.00  0.00    -0.273 N 
ATOM      5  C   UNL     1       3.155  -6.807  -3.060  0.00  0.00    +0.203 A 
ATOM      6  N   UNL     1       2.523  -6.413  -1.903  0.00  0.00    -0.299 N 
ATOM      7  C   UNL     1       3.454  -6.450  -0.905  0.00  0.00    +0.071 A 
ATOM      8  C   UNL     1       3.393  -6.165   0.454  0.00  0.00    +0.028 A 
ATOM      9  C   UNL     1       4.562  -6.315   1.183  0.00  0.00    +0.002 A 
ATOM     10  C   UNL     1       5.745  -6.730   0.596  0.00  0.00    +0.002 A 
ATOM     11  C   UNL     1       5.832  -7.019  -0.754  0.00  0.00    +0.030 A 
ATOM     12  C   UNL     1       4.663  -6.875  -1.510  0.00  0.00    +0.091 A 
ATOM     13  N   UNL     1       4.410  -7.072  -2.816  0.00  0.00    -0.214 NA
ATOM     14  H   UNL     1       2.959  -6.974  -5.108  0.00  0.00    +0.156 HD
ENDROOT
BRANCH   1  18
ATOM     15  C   UNL     1       0.777  -1.810  -1.336  0.00  0.00    +0.121 A 
ATOM     16  C   UNL     1       0.243  -2.669  -0.386  0.00  0.00    +0.046 A 
ATOM     17  C   UNL     1       0.351  -4.036  -0.554  0.00  0.00    +0.009 A 
ATOM     18  C   UNL     1       0.992  -4.548  -1.667  0.00  0.00    -0.019 A 
ATOM     19  C   UNL     1       1.525  -3.694  -2.615  0.00  0.00    +0.009 A 
ATOM     20  C   UNL     1       1.414  -2.327  -2.455  0.00  0.00    +0.046 A 
BRANCH  15  21
ATOM     21  O   UNL     1       0.671  -0.465  -1.174  0.00  0.00    -0.492 OA
BRANCH  21  23
ATOM     22  C   UNL     1      -0.019   1.526   0.010  0.00  0.00    +0.048 C 
ATOM     23  C   UNL     1       0.002  -0.004   0.002  0.00  0.00    +0.225 C 
ENDBRANCH  21  23
ENDBRANCH  15  21
ENDBRANCH   1  18
BRANCH   3  24
ATOM     24  N   UNL     1       0.393  -7.168  -5.362  0.00  0.00    -0.345 N 
ATOM     25  H   UNL     1      -0.576  -7.134  -5.354  0.00  0.00    +0.144 HD
ATOM     26  H   UNL     1       0.862  -7.444  -6.165  0.00  0.00    +0.144 HD
ENDBRANCH   3  24
BRANCH   2  27
ATOM     27  C   UNL     1      -1.005  -6.426  -3.169  0.00  0.00    +0.100 C 
ATOM     28  N   UNL     1      -2.140  -6.410  -3.204  0.00  0.00    -0.191 NA
ENDBRANCH   2  27
TORSDOF 5
