REMARK  Name = ZINC22063704
REMARK  9 active torsions:
REMARK  status: ('A' for Active; 'I' for Inactive)
REMARK    1  A    between atoms: C_1  and  C_2
REMARK    2  A    between atoms: C_2  and  C_3
REMARK    3  A    between atoms: C_7  and  C_31
REMARK    4  A    between atoms: C_8  and  N_9
REMARK    5  A    between atoms: C_10  and  C_12
REMARK    6  A    between atoms: C_12  and  N_13
REMARK    7  A    between atoms: C_16  and  C_20
REMARK    8  A    between atoms: C_16  and  C_21
REMARK    9  A    between atoms: C_31  and  C_32
REMARK                            x       y       z     vdW  Elec       q    Type
REMARK                         _______ _______ _______ _____ _____    ______ ____
ROOT
ATOM      1  N   UNL     1      -4.218   1.549  -1.810  0.00  0.00    -0.215 N 
ATOM      2  C   UNL     1      -5.032   0.928  -0.933  0.00  0.00    +0.251 C 
ATOM      3  O   UNL     1      -4.897  -0.186  -0.473  0.00  0.00    -0.272 OA
ATOM      4  C   UNL     1      -6.147   1.911  -0.641  0.00  0.00    +0.135 C 
ATOM      5  N   UNL     1      -5.805   3.079  -1.470  0.00  0.00    -0.281 N 
ATOM      6  C   UNL     1      -4.665   2.773  -2.115  0.00  0.00    +0.310 C 
ATOM      7  O   UNL     1      -4.103   3.524  -2.887  0.00  0.00    -0.252 OA
ATOM      8  C   UNL     1      -6.163   2.289   0.842  0.00  0.00    +0.047 C 
ATOM      9  H   UNL     1      -6.454   3.967  -1.464  0.00  0.00    +0.152 HD
ENDROOT
BRANCH   4  10
ATOM     10  C   UNL     1      -7.477   1.337  -1.057  0.00  0.00    -0.012 A 
ATOM     11  C   UNL     1      -7.711  -0.021  -0.935  0.00  0.00    +0.010 A 
ATOM     12  C   UNL     1      -8.929  -0.551  -1.316  0.00  0.00    +0.050 A 
ATOM     13  C   UNL     1      -9.920   0.277  -1.822  0.00  0.00    +0.162 A 
ATOM     14  C   UNL     1      -9.685   1.641  -1.943  0.00  0.00    +0.162 A 
ATOM     15  C   UNL     1      -8.463   2.168  -1.555  0.00  0.00    +0.055 A 
ATOM     16  O   UNL     1     -10.645   2.473  -2.433  0.00  0.00    -0.485 OA
ATOM     17  C   UNL     1     -11.720   1.860  -3.155  0.00  0.00    +0.270 C 
ATOM     18  C   UNL     1     -12.209   0.648  -2.350  0.00  0.00    +0.270 C 
ATOM     19  O   UNL     1     -11.113  -0.261  -2.197  0.00  0.00    -0.485 OA
ENDBRANCH   4  10
BRANCH   1  20
ATOM     20  C   UNL     1      -2.999   0.956  -2.365  0.00  0.00    +0.214 C 
BRANCH  20  22
ATOM     21  N   UNL     1      -0.594   0.852  -1.796  0.00  0.00    -0.284 N 
ATOM     22  C   UNL     1      -1.827   1.295  -1.480  0.00  0.00    +0.235 C 
ATOM     23  O   UNL     1      -1.994   1.966  -0.484  0.00  0.00    -0.274 OA
ATOM     24  H   UNL     1      -0.419   0.357  -2.762  0.00  0.00    +0.155 HD
BRANCH  21  30
ATOM     25  C   UNL     1       1.283  -0.051  -0.575  0.00  0.00    -0.026 A 
ATOM     26  C   UNL     1       2.326   0.119   0.316  0.00  0.00    +0.007 A 
ATOM     27  C   UNL     1       2.552   1.357   0.889  0.00  0.00    +0.020 A 
ATOM     28  C   UNL     1       1.736   2.429   0.573  0.00  0.00    +0.046 A 
ATOM     29  C   UNL     1       0.695   2.266  -0.322  0.00  0.00    -0.008 A 
ATOM     30  C   UNL     1       0.462   1.022  -0.894  0.00  0.00    +0.041 A 
ATOM     31 CL   UNL     1       2.024   3.981   1.295  0.00  0.00    -0.083 Cl
BRANCH  25  33
ATOM     32  C   UNL     1       1.730  -1.466  -2.561  0.00  0.00    +0.009 C 
ATOM     33  C   UNL     1       1.038  -1.401  -1.199  0.00  0.00    +0.033 C 
ENDBRANCH  25  33
BRANCH  29  34
ATOM     34  C   UNL     1      -0.189   3.435  -0.672  0.00  0.00    +0.035 C 
ATOM     35  C   UNL     1      -0.724   4.072   0.612  0.00  0.00    +0.009 C 
ENDBRANCH  29  34
ENDBRANCH  21  30
ENDBRANCH  20  22
ENDBRANCH   1  20
TORSDOF 6
