REMARK  Name = ZINC44166773
REMARK  9 active torsions:
REMARK  status: ('A' for Active; 'I' for Inactive)
REMARK    1  A    between atoms: C_1  and  C_2
REMARK    2  A    between atoms: C_2  and  C_4
REMARK    3  A    between atoms: C_10  and  O_17
REMARK    4  A    between atoms: O_17  and  C_18
REMARK    5  A    between atoms: C_20  and  O_33
REMARK    6  A    between atoms: C_22  and  O_32
REMARK    7  A    between atoms: C_24  and  O_31
REMARK    8  A    between atoms: C_26  and  C_29
REMARK    9  A    between atoms: C_29  and  O_30
REMARK                            x       y       z     vdW  Elec       q    Type
REMARK                         _______ _______ _______ _____ _____    ______ ____
ROOT
ATOM      1  O   UNL     1      -2.212  -6.335   2.432  0.00  0.00    -0.461 OA
ENDROOT
BRANCH   1   7
ATOM      2  C   UNL     1      -1.293  -0.775   0.010  0.00  0.00    +0.186 C 
ATOM      3  C   UNL     1      -1.076  -2.153  -0.572  0.00  0.00    +0.002 C 
ATOM      4  C   UNL     1      -0.803  -3.176   0.229  0.00  0.00    -0.006 C 
ATOM      5  C   UNL     1      -0.676  -4.529  -0.348  0.00  0.00    +0.011 C 
ATOM      6  C   UNL     1      -1.066  -5.569   0.424  0.00  0.00    +0.046 C 
ATOM      7  C   UNL     1      -1.563  -5.333   1.782  0.00  0.00    +0.124 C 
ATOM      8  C   UNL     1      -1.395  -4.160   2.398  0.00  0.00    +0.067 C 
ATOM      9  C   UNL     1      -0.655  -3.043   1.716  0.00  0.00    +0.233 C 
ATOM     10  O   UNL     1      -1.028  -1.776   2.220  0.00  0.00    -0.452 OA
ATOM     11  C   UNL     1      -1.772  -0.968   1.437  0.00  0.00    +0.322 C 
ATOM     12  O   UNL     1      -2.770  -0.425   1.849  0.00  0.00    -0.250 OA
BRANCH   2  14
ATOM     13  C   UNL     1      -0.018   1.503   0.010  0.00  0.00    +0.087 C 
ATOM     14  C   UNL     1       0.002  -0.004   0.002  0.00  0.00    +0.148 C 
ATOM     15  O   UNL     1       1.056  -0.594  -0.011  0.00  0.00    -0.297 OA
ENDBRANCH   2  14
ENDBRANCH   1   7
BRANCH   1  16
ATOM     16  C   UNL     1      -2.678  -6.055   3.754  0.00  0.00    +0.339 C 
ATOM     17  C   UNL     1      -3.485  -7.248   4.274  0.00  0.00    +0.214 C 
ATOM     18  C   UNL     1      -2.574  -8.476   4.352  0.00  0.00    +0.180 C 
ATOM     19  C   UNL     1      -1.374  -8.152   5.247  0.00  0.00    +0.177 C 
ATOM     20  C   UNL     1      -0.648  -6.925   4.690  0.00  0.00    +0.179 C 
ATOM     21  O   UNL     1      -1.560  -5.827   4.615  0.00  0.00    -0.331 OA
BRANCH  19  22
ATOM     22  O   UNL     1      -0.481  -9.268   5.270  0.00  0.00    -0.386 OA
ATOM     23  H   UNL     1      -0.877 -10.082   5.609  0.00  0.00    +0.210 HD
ENDBRANCH  19  22
BRANCH  18  24
ATOM     24  O   UNL     1      -2.117  -8.816   3.041  0.00  0.00    -0.386 OA
ATOM     25  H   UNL     1      -2.827  -9.027   2.420  0.00  0.00    +0.210 HD
ENDBRANCH  18  24
BRANCH  17  26
ATOM     26  O   UNL     1      -3.997  -6.948   5.574  0.00  0.00    -0.383 OA
ATOM     27  H   UNL     1      -4.579  -6.176   5.599  0.00  0.00    +0.210 HD
ENDBRANCH  17  26
BRANCH  20  28
ATOM     28  C   UNL     1       0.517  -6.559   5.612  0.00  0.00    +0.190 C 
BRANCH  28  29
ATOM     29  O   UNL     1       1.264  -5.488   5.033  0.00  0.00    -0.392 OA
ATOM     30  H   UNL     1       2.020  -5.203   5.564  0.00  0.00    +0.210 HD
ENDBRANCH  28  29
ENDBRANCH  20  28
ENDBRANCH   1  16
TORSDOF 8
