REMARK  Name = ZINC14472738
REMARK  6 active torsions:
REMARK  status: ('A' for Active; 'I' for Inactive)
REMARK    1  A    between atoms: C_1  and  O_2
REMARK    2  A    between atoms: O_2  and  C_3
REMARK    3  A    between atoms: C_6  and  O_29
REMARK    4  A    between atoms: C_16  and  C_19
REMARK    5  A    between atoms: C_21  and  N_26
REMARK    6  A    between atoms: O_29  and  C_30
REMARK                            x       y       z     vdW  Elec       q    Type
REMARK                         _______ _______ _______ _____ _____    ______ ____
ROOT
ATOM      1  C   UNL     1       3.671   1.542   1.076  0.00  0.00    +0.126 A 
ATOM      2  C   UNL     1       4.582   0.725   1.723  0.00  0.00    +0.049 A 
ATOM      3  C   UNL     1       4.193  -0.523   2.173  0.00  0.00    +0.051 A 
ATOM      4  C   UNL     1       2.893  -0.950   1.977  0.00  0.00    +0.141 A 
ATOM      5  C   UNL     1       1.969  -0.127   1.326  0.00  0.00    +0.077 A 
ATOM      6  C   UNL     1       2.358   1.119   0.872  0.00  0.00    +0.026 A 
ATOM      7  C   UNL     1       1.423   2.049   0.157  0.00  0.00    +0.052 C 
ATOM      8  C   UNL     1       1.774   2.131  -1.311  0.00  0.00    -0.022 C 
ATOM      9  C   UNL     1       0.687   2.173  -2.040  0.00  0.00    -0.030 C 
ATOM     10  C   UNL     1      -0.546   2.132  -1.160  0.00  0.00    +0.033 C 
ATOM     11  C   UNL     1      -0.026   1.517   0.169  0.00  0.00    +0.029 C 
ATOM     12  C   UNL     1       0.002  -0.004   0.002  0.00  0.00    +0.106 C 
ATOM     13  N   UNL     1       0.668  -0.608   1.157  0.00  0.00    -0.334 N 
ATOM     14  H   UNL     1       0.660  -1.615   1.093  0.00  0.00    +0.147 HD
ENDROOT
BRANCH  12  15
ATOM     15  C   UNL     1      -1.409  -0.525  -0.094  0.00  0.00    -0.007 A 
ATOM     16  C   UNL     1      -1.907  -0.952  -1.310  0.00  0.00    +0.039 A 
ATOM     17  C   UNL     1      -3.199  -1.434  -1.398  0.00  0.00    +0.127 A 
ATOM     18  C   UNL     1      -3.998  -1.481  -0.270  0.00  0.00    +0.034 A 
ATOM     19  C   UNL     1      -3.503  -1.050   0.946  0.00  0.00    +0.022 A 
ATOM     20  C   UNL     1      -2.207  -0.572   1.035  0.00  0.00    +0.046 A 
ATOM     21 CL   UNL     1      -1.585  -0.029   2.562  0.00  0.00    -0.083 Cl
BRANCH  17  22
ATOM     22  N   UNL     1      -3.730  -1.896  -2.700  0.00  0.00    +0.056 N 
ATOM     23  O   UNL     1      -4.871  -2.317  -2.777  0.00  0.00    -0.126 OA
ATOM     24  O   UNL     1      -3.027  -1.855  -3.693  0.00  0.00    -0.126 OA
ENDBRANCH  17  22
ENDBRANCH  12  15
BRANCH   1  26
ATOM     25  C   UNL     1       5.417   3.143   0.876  0.00  0.00    +0.277 C 
ATOM     26  O   UNL     1       4.059   2.768   0.637  0.00  0.00    -0.495 OA
ENDBRANCH   1  26
BRANCH   4  27
ATOM     27  O   UNL     1       2.510  -2.178   2.421  0.00  0.00    -0.493 OA
ATOM     28  C   UNL     1       3.502  -2.969   3.079  0.00  0.00    +0.277 C 
ENDBRANCH   4  27
TORSDOF 4
