REMARK  Name = ZINC66617697
REMARK  7 active torsions:
REMARK  status: ('A' for Active; 'I' for Inactive)
REMARK    1  A    between atoms: C_1  and  C_2
REMARK    2  A    between atoms: C_6  and  C_25
REMARK    3  A    between atoms: C_10  and  C_12
REMARK    4  A    between atoms: C_12  and  C_13
REMARK    5  A    between atoms: C_13  and  C_15
REMARK    6  A    between atoms: C_13  and  N_16
REMARK    7  A    between atoms: C_17  and  C_19
REMARK                            x       y       z     vdW  Elec       q    Type
REMARK                         _______ _______ _______ _____ _____    ______ ____
ROOT
ATOM      1  C   UNL     1      -0.017   1.526   0.009  0.00  0.00    +0.028 C 
ATOM      2  C   UNL     1       0.003  -0.004   0.001  0.00  0.00    +0.073 C 
ATOM      3  C   UNL     1      -1.426  -0.537   0.144  0.00  0.00    +0.023 C 
ATOM      4  C   UNL     1      -1.387  -2.061   0.276  0.00  0.00    +0.016 C 
ATOM      5  C   UNL     1      -0.600  -2.447   1.530  0.00  0.00    +0.092 C 
ATOM      6  C   UNL     1       0.838  -1.935   1.403  0.00  0.00    +0.120 C 
ATOM      7  N   UNL     1       0.808  -0.492   1.130  0.00  0.00    -0.298 N 
ATOM      8  C   UNL     1       1.502   0.368   1.901  0.00  0.00    +0.218 C 
ATOM      9  O   UNL     1       1.393   1.563   1.725  0.00  0.00    -0.276 OA
ENDROOT
BRANCH   5  10
ATOM     10  C   UNL     1      -0.590  -3.946   1.677  0.00  0.00    +0.215 C 
ATOM     11  O   UNL     1      -1.157  -4.639   0.859  0.00  0.00    -0.276 OA
ATOM     12  N   UNL     1       0.048  -4.518   2.718  0.00  0.00    -0.329 N 
ATOM     13  H   UNL     1       0.501  -3.963   3.372  0.00  0.00    +0.145 HD
ATOM     14  H   UNL     1       0.054  -5.483   2.812  0.00  0.00    +0.145 HD
ENDBRANCH   5  10
BRANCH   8  15
ATOM     15  C   UNL     1       2.412  -0.154   2.982  0.00  0.00    +0.118 C 
BRANCH  15  16
ATOM     16  C   UNL     1       3.074   1.021   3.704  0.00  0.00    +0.079 C 
ATOM     17  C   UNL     1       3.900   0.497   4.880  0.00  0.00    +0.028 C 
BRANCH  16  18
ATOM     18  N   UNL     1       3.950   1.735   2.772  0.00  0.00    -0.312 N 
ATOM     19  C   UNL     1       4.239   3.035   2.980  0.00  0.00    +0.216 C 
ATOM     20  O   UNL     1       3.774   3.613   3.939  0.00  0.00    -0.276 OA
ATOM     21  H   UNL     1       4.322   1.273   2.005  0.00  0.00    +0.149 HD
BRANCH  19  22
ATOM     22  C   UNL     1       5.140   3.770   2.022  0.00  0.00    +0.075 C 
ATOM     23  C   UNL     1       6.509   3.088   1.984  0.00  0.00    +0.013 C 
ATOM     24  C   UNL     1       7.424   3.834   1.011  0.00  0.00    +0.001 C 
ATOM     25  C   UNL     1       7.588   5.283   1.474  0.00  0.00    +0.000 C 
ATOM     26  C   UNL     1       6.219   5.965   1.511  0.00  0.00    +0.001 C 
ATOM     27  C   UNL     1       5.304   5.219   2.485  0.00  0.00    +0.013 C 
ENDBRANCH  19  22
ENDBRANCH  16  18
ENDBRANCH  15  16
ENDBRANCH   8  15
TORSDOF 5
