REMARK  Name = ZINC11033427
REMARK  6 active torsions:
REMARK  status: ('A' for Active; 'I' for Inactive)
REMARK    1  A    between atoms: C_1  and  C_2
REMARK    2  A    between atoms: C_5  and  N_11
REMARK    3  A    between atoms: C_6  and  N_8
REMARK    4  A    between atoms: C_12  and  C_14
REMARK    5  A    between atoms: C_14  and  S_15
REMARK    6  A    between atoms: S_15  and  C_16
REMARK                            x       y       z     vdW  Elec       q    Type
REMARK                         _______ _______ _______ _____ _____    ______ ____
ROOT
ATOM      1  N   UNL     1       3.289   7.965   0.007  0.00  0.00    -0.283 N 
ATOM      2  C   UNL     1       2.047   7.441   0.020  0.00  0.00    +0.227 C 
ATOM      3  O   UNL     1       1.081   8.174   0.048  0.00  0.00    -0.275 OA
ATOM      4  H   UNL     1       4.062   7.381   0.066  0.00  0.00    +0.155 HD
ENDROOT
BRANCH   1   9
ATOM      5  C   UNL     1       3.997  13.579  -0.396  0.00  0.00    +0.044 C 
ATOM      6  C   UNL     1       3.809  12.088  -0.290  0.00  0.00    -0.048 A 
ATOM      7  C   UNL     1       2.658  11.500  -0.782  0.00  0.00    +0.005 A 
ATOM      8  C   UNL     1       2.483  10.134  -0.686  0.00  0.00    +0.026 A 
ATOM      9  C   UNL     1       3.464   9.349  -0.093  0.00  0.00    +0.064 A 
ATOM     10  C   UNL     1       4.616   9.943   0.406  0.00  0.00    +0.148 A 
ATOM     11  C   UNL     1       4.788  11.310   0.301  0.00  0.00    +0.038 A 
BRANCH  10  12
ATOM     12  N   UNL     1       5.661   9.112   1.044  0.00  0.00    +0.058 N 
ATOM     13  O   UNL     1       6.628   9.641   1.562  0.00  0.00    -0.126 OA
ATOM     14  O   UNL     1       5.553   7.899   1.052  0.00  0.00    -0.126 OA
ENDBRANCH  10  12
ENDBRANCH   1   9
BRANCH   2  15
ATOM     15  C   UNL     1       1.859   5.946   0.001  0.00  0.00    +0.172 C 
BRANCH  15  16
ATOM     16  S   UNL     1       0.087   5.559   0.026  0.00  0.00    -0.095 S 
BRANCH  16  17
ATOM     17  C   UNL     1       0.035   3.798   0.001  0.00  0.00    +0.116 A 
ATOM     18  C   UNL     1      -1.194   3.143   0.012  0.00  0.00    +0.073 A 
ATOM     19  C   UNL     1      -1.219   1.760  -0.014  0.00  0.00    +0.024 A 
ATOM     20  C   UNL     1      -0.011   1.075  -0.040  0.00  0.00    +0.021 A 
ATOM     21  C   UNL     1       1.171   1.789  -0.049  0.00  0.00    +0.112 A 
ATOM     22  N   UNL     1       1.166   3.108  -0.029  0.00  0.00    -0.247 NA
ATOM     23 CL   UNL     1      -2.674   4.050   0.051  0.00  0.00    -0.081 Cl
ENDBRANCH  16  17
ENDBRANCH  15  16
ENDBRANCH   2  15
TORSDOF 5
