REMARK  Name = ZINC51113374
REMARK  6 active torsions:
REMARK  status: ('A' for Active; 'I' for Inactive)
REMARK    1  A    between atoms: C_1  and  C_2
REMARK    2  A    between atoms: C_2  and  C_18
REMARK    3  A    between atoms: C_4  and  N_6
REMARK    4  A    between atoms: C_7  and  C_9
REMARK    5  A    between atoms: C_14  and  N_15
REMARK    6  A    between atoms: N_15  and  N_16
REMARK                            x       y       z     vdW  Elec       q    Type
REMARK                         _______ _______ _______ _____ _____    ______ ____
ROOT
ATOM      1  C   UNL     1      -0.220  -3.665   3.362  0.00  0.00    +0.079 A 
ATOM      2  C   UNL     1      -1.072  -4.409   2.537  0.00  0.00    +0.033 A 
ATOM      3  C   UNL     1      -1.592  -5.594   3.027  0.00  0.00    +0.037 A 
ATOM      4  C   UNL     1      -1.259  -6.007   4.306  0.00  0.00    +0.128 A 
ATOM      5  N   UNL     1      -0.456  -5.291   5.068  0.00  0.00    -0.237 NA
ATOM      6  C   UNL     1       0.074  -4.153   4.646  0.00  0.00    +0.144 A 
ATOM      7 BR   UNL     1      -2.748  -6.642   1.959  0.00  0.00    -0.049 Br
ENDROOT
BRANCH   1   9
ATOM      8  N   UNL     1       0.173  -2.001   1.615  0.00  0.00    -0.308 N 
ATOM      9  C   UNL     1       0.362  -2.396   2.890  0.00  0.00    +0.248 C 
ATOM     10  O   UNL     1       1.012  -1.704   3.651  0.00  0.00    -0.270 OA
ATOM     11  H   UNL     1      -0.345  -2.552   1.008  0.00  0.00    +0.149 HD
BRANCH   8  15
ATOM     12  C   UNL     1       0.054   1.480  -0.050  0.00  0.00    +0.013 C 
ATOM     13  C   UNL     1       0.074  -0.050  -0.040  0.00  0.00    -0.015 C 
ATOM     14  C   UNL     1       1.427  -0.739  -0.227  0.00  0.00    +0.031 C 
ATOM     15  C   UNL     1       0.752  -0.739   1.146  0.00  0.00    +0.080 C 
ATOM     16  C   UNL     1      -1.155  -0.730  -0.645  0.00  0.00    +0.013 C 
ENDBRANCH   8  15
ENDBRANCH   1   9
BRANCH   6  17
ATOM     17  N   UNL     1       0.917  -3.438   5.477  0.00  0.00    -0.267 N 
ATOM     18  H   UNL     1       1.239  -2.564   5.206  0.00  0.00    +0.167 HD
BRANCH  17  19
ATOM     19  N   UNL     1       1.296  -3.961   6.681  0.00  0.00    -0.255 NA
ATOM     20  H   UNL     1       1.729  -4.864   6.562  0.00  0.00    +0.140 HD
ATOM     21  H   UNL     1       1.908  -3.329   7.174  0.00  0.00    +0.140 HD
ENDBRANCH  17  19
ENDBRANCH   6  17
TORSDOF 4
