REMARK  Name = ZINC39690820
REMARK  6 active torsions:
REMARK  status: ('A' for Active; 'I' for Inactive)
REMARK    1  A    between atoms: C_1  and  C_2
REMARK    2  A    between atoms: C_2  and  C_4
REMARK    3  A    between atoms: C_4  and  N_5
REMARK    4  A    between atoms: C_6  and  C_8
REMARK    5  A    between atoms: C_19  and  C_21
REMARK    6  A    between atoms: C_27  and  C_29
REMARK                            x       y       z     vdW  Elec       q    Type
REMARK                         _______ _______ _______ _____ _____    ______ ____
ROOT
ATOM      1  C   UNL     1      -3.044  -1.708  -3.422  0.00  0.00    +0.100 C 
ATOM      2  C   UNL     1      -3.825  -2.664  -2.492  0.00  0.00    +0.121 C 
ATOM      3  N   UNL     1      -4.700  -3.440  -3.402  0.00  0.00    -0.299 N 
ATOM      4  C   UNL     1      -3.855  -3.700  -4.593  0.00  0.00    +0.115 C 
ATOM      5  C   UNL     1      -3.066  -2.392  -4.799  0.00  0.00    -0.004 C 
ATOM      6  C   UNL     1      -3.772  -1.504  -5.819  0.00  0.00    -0.010 C 
ATOM      7  C   UNL     1      -3.731  -2.180  -7.192  0.00  0.00    -0.082 C 
ATOM      8  N   UNL     1      -2.335  -2.400  -7.589  0.00  0.00    +0.379 N 
ATOM      9  C   UNL     1      -1.688  -3.329  -6.654  0.00  0.00    -0.082 C 
ATOM     10  C   UNL     1      -1.644  -2.701  -5.258  0.00  0.00    -0.010 C 
ATOM     11  C   UNL     1      -5.975  -3.823  -3.195  0.00  0.00    +0.236 C 
ATOM     12  O   UNL     1      -6.563  -4.460  -4.044  0.00  0.00    -0.274 OA
ATOM     13  H   UNL     1      -2.309  -2.789  -8.520  0.00  0.00    -0.086 HD
ATOM     14  H   UNL     1      -1.842  -1.520  -7.582  0.00  0.00    -0.086 HD
ENDROOT
BRANCH  11  15
ATOM     15  C   UNL     1      -6.672  -3.459  -1.909  0.00  0.00    +0.162 C 
ATOM     16  C   UNL     1      -6.251  -4.435  -0.790  0.00  0.00    +0.033 C 
ATOM     17  C   UNL     1      -7.569  -4.646   0.000  0.00  0.00    +0.021 C 
ATOM     18  C   UNL     1      -8.622  -4.609  -1.135  0.00  0.00    +0.109 C 
ATOM     19  N   UNL     1      -8.127  -3.583  -2.077  0.00  0.00    -0.283 N 
ATOM     20  C   UNL     1      -8.881  -2.879  -2.944  0.00  0.00    +0.320 C 
ATOM     21  O   UNL     1      -8.363  -2.059  -3.671  0.00  0.00    -0.266 OA
BRANCH  20  22
ATOM     22  C   UNL     1     -10.369  -3.110  -3.009  0.00  0.00    +0.470 C 
ATOM     23  F   UNL     1     -10.930  -2.269  -3.976  0.00  0.00    -0.162 F 
ATOM     24  F   UNL     1     -10.619  -4.444  -3.349  0.00  0.00    -0.162 F 
ATOM     25  F   UNL     1     -10.939  -2.832  -1.762  0.00  0.00    -0.162 F 
ENDBRANCH  20  22
ENDBRANCH  11  15
BRANCH   1  27
ATOM     26  N   UNL     1      -0.954  -0.407  -3.188  0.00  0.00    -0.311 N 
ATOM     27  C   UNL     1      -1.626  -1.548  -2.937  0.00  0.00    +0.218 C 
ATOM     28  O   UNL     1      -1.090  -2.445  -2.322  0.00  0.00    -0.275 OA
ATOM     29  H   UNL     1      -1.383   0.311  -3.679  0.00  0.00    +0.149 HD
BRANCH  26  30
ATOM     30  C   UNL     1       0.425  -0.251  -2.717  0.00  0.00    +0.134 C 
BRANCH  30  32
ATOM     31  C   UNL     1       1.542   1.302  -4.493  0.00  0.00    +0.040 C 
ATOM     32  C   UNL     1       0.944   1.104  -3.124  0.00  0.00    -0.063 C 
ATOM     33  C   UNL     1       0.876   2.110  -2.287  0.00  0.00    +0.009 C 
ENDBRANCH  30  32
ENDBRANCH  26  30
ENDBRANCH   1  27
TORSDOF 5
