REMARK  Name = ZINC03162190
REMARK  7 active torsions:
REMARK  status: ('A' for Active; 'I' for Inactive)
REMARK    1  A    between atoms: C_1  and  C_2
REMARK    2  A    between atoms: C_3  and  C_14
REMARK    3  A    between atoms: C_4  and  O_13
REMARK    4  A    between atoms: N_5  and  C_7
REMARK    5  A    between atoms: N_15  and  N_16
REMARK    6  A    between atoms: C_17  and  C_19
REMARK    7  A    between atoms: C_28  and  O_29
REMARK                            x       y       z     vdW  Elec       q    Type
REMARK                         _______ _______ _______ _____ _____    ______ ____
ROOT
ATOM      1  C   UNL     1      -5.017   5.385   0.082  0.00  0.00    +0.145 C 
ATOM      2  N   UNL     1      -4.984   4.087   0.074  0.00  0.00    -0.187 NA
ENDROOT
BRANCH   1   5
ATOM      3  C   UNL     1      -5.414   8.531   0.103  0.00  0.00    +0.068 C 
ATOM      4  C   UNL     1      -6.503   7.489   0.108  0.00  0.00    +0.073 A 
ATOM      5  C   UNL     1      -6.310   6.090   0.099  0.00  0.00    +0.079 A 
ATOM      6  C   UNL     1      -7.567   5.504   0.103  0.00  0.00    +0.225 A 
ATOM      7  N   UNL     1      -8.475   6.506   0.123  0.00  0.00    -0.200 N 
ATOM      8  N   UNL     1      -7.787   7.724   0.122  0.00  0.00    -0.168 NA
BRANCH   7   9
ATOM      9  C   UNL     1      -9.868   6.350   0.135  0.00  0.00    +0.069 A 
ATOM     10  C   UNL     1     -10.457   5.302  -0.559  0.00  0.00    +0.028 A 
ATOM     11  C   UNL     1     -11.830   5.149  -0.541  0.00  0.00    +0.002 A 
ATOM     12  C   UNL     1     -12.618   6.044   0.159  0.00  0.00    +0.000 A 
ATOM     13  C   UNL     1     -12.034   7.092   0.848  0.00  0.00    +0.002 A 
ATOM     14  C   UNL     1     -10.662   7.247   0.837  0.00  0.00    +0.028 A 
ENDBRANCH   7   9
BRANCH   6  15
ATOM     15  O   UNL     1      -7.835   4.175   0.091  0.00  0.00    -0.492 OA
ATOM     16  H   UNL     1      -7.906   3.780   0.971  0.00  0.00    +0.294 HD
ENDBRANCH   6  15
ENDBRANCH   1   5
BRANCH   2  17
ATOM     17  N   UNL     1      -3.754   3.417   0.058  0.00  0.00    -0.203 N 
ATOM     18  C   UNL     1      -3.721   2.070   0.051  0.00  0.00    +0.267 C 
ATOM     19  O   UNL     1      -4.759   1.435   0.058  0.00  0.00    -0.268 OA
ATOM     20  H   UNL     1      -2.926   3.923   0.052  0.00  0.00    +0.178 HD
BRANCH  18  21
ATOM     21  C   UNL     1      -2.425   1.364   0.034  0.00  0.00    +0.080 A 
ATOM     22  C   UNL     1      -1.245   2.091   0.031  0.00  0.00    +0.025 A 
ATOM     23  C   UNL     1      -0.017   1.415   0.010  0.00  0.00    -0.017 A 
ATOM     24  C   UNL     1       1.200   2.121   0.002  0.00  0.00    +0.008 A 
ATOM     25  C   UNL     1       2.376   1.436  -0.013  0.00  0.00    +0.001 A 
ATOM     26  C   UNL     1       2.394   0.042  -0.021  0.00  0.00    +0.001 A 
ATOM     27  C   UNL     1       1.238  -0.674  -0.013  0.00  0.00    +0.008 A 
ATOM     28  C   UNL     1       0.002  -0.004   0.002  0.00  0.00    -0.014 A 
ATOM     29  C   UNL     1      -1.208  -0.718   0.010  0.00  0.00    +0.054 A 
ATOM     30  C   UNL     1      -2.395  -0.047   0.026  0.00  0.00    +0.130 A 
BRANCH  30  31
ATOM     31  O   UNL     1      -3.560  -0.743   0.033  0.00  0.00    -0.506 OA
ATOM     32  H   UNL     1      -3.889  -0.950   0.918  0.00  0.00    +0.292 HD
ENDBRANCH  30  31
ENDBRANCH  18  21
ENDBRANCH   2  17
TORSDOF 6
