REMARK  Name = ZINC06631482
REMARK  15 active torsions:
REMARK  status: ('A' for Active; 'I' for Inactive)
REMARK    1  A    between atoms: C_1  and  C_2
REMARK    2  A    between atoms: C_2  and  O_3
REMARK    3  A    between atoms: O_3  and  C_4
REMARK    4  A    between atoms: C_9  and  N_10
REMARK    5  A    between atoms: N_10  and  C_11
REMARK    6  A    between atoms: C_11  and  C_13
REMARK    7  A    between atoms: C_11  and  C_19
REMARK    8  A    between atoms: C_16  and  C_18
REMARK    9  A    between atoms: N_21  and  C_22
REMARK   10  A    between atoms: C_22  and  C_23
REMARK   11  A    between atoms: C_22  and  C_24
REMARK   12  A    between atoms: C_22  and  C_25
REMARK   13  A    between atoms: C_26  and  C_28
REMARK   14  A    between atoms: C_29  and  N_36
REMARK   15  A    between atoms: C_30  and  C_33
REMARK                            x       y       z     vdW  Elec       q    Type
REMARK                         _______ _______ _______ _____ _____    ______ ____
ROOT
ATOM      1  N   UNL     1      -3.312  -0.094   4.071  0.00  0.00    -0.244 N 
ATOM      2  C   UNL     1      -4.644  -0.062   4.278  0.00  0.00    +0.262 C 
ATOM      3  O   UNL     1      -5.164   0.938   4.739  0.00  0.00    -0.269 OA
ENDROOT
BRANCH   1   9
ATOM      4  C   UNL     1      -2.583  -1.389   2.160  0.00  0.00    +0.142 A 
ATOM      5  C   UNL     1      -1.987  -2.527   1.641  0.00  0.00    +0.047 A 
ATOM      6  C   UNL     1      -1.531  -3.518   2.491  0.00  0.00    +0.004 A 
ATOM      7  C   UNL     1      -1.664  -3.375   3.860  0.00  0.00    +0.002 A 
ATOM      8  C   UNL     1      -2.254  -2.242   4.386  0.00  0.00    +0.027 A 
ATOM      9  C   UNL     1      -2.714  -1.243   3.540  0.00  0.00    +0.080 A 
BRANCH   4  10
ATOM     10  O   UNL     1      -3.037  -0.416   1.326  0.00  0.00    -0.490 OA
BRANCH  10  12
ATOM     11  C   UNL     1      -3.435   0.559  -0.849  0.00  0.00    +0.048 C 
ATOM     12  C   UNL     1      -2.869  -0.634  -0.076  0.00  0.00    +0.226 C 
ENDBRANCH  10  12
ENDBRANCH   4  10
ENDBRANCH   1   9
BRANCH   2  13
ATOM     13  C   UNL     1      -5.464  -1.228   3.948  0.00  0.00    +0.116 A 
ATOM     14  C   UNL     1      -6.842  -1.409   4.086  0.00  0.00    +0.076 A 
ATOM     15  C   UNL     1      -7.261  -2.668   3.655  0.00  0.00    +0.155 A 
ATOM     16  N   UNL     1      -6.371  -3.521   3.197  0.00  0.00    -0.203 NA
ATOM     17  S   UNL     1      -4.971  -2.800   3.270  0.00  0.00    +0.019 S 
BRANCH  15  18
ATOM     18  C   UNL     1      -8.686  -3.041   3.720  0.00  0.00    +0.262 C 
ATOM     19  O   UNL     1      -9.503  -2.248   4.145  0.00  0.00    -0.269 OA
ATOM     20  N   UNL     1      -9.082  -4.262   3.307  0.00  0.00    -0.324 N 
ATOM     21  H   UNL     1      -8.430  -4.894   2.968  0.00  0.00    +0.145 HD
ATOM     22  H   UNL     1     -10.020  -4.507   3.349  0.00  0.00    +0.145 HD
ENDBRANCH  15  18
BRANCH  14  23
ATOM     23  N   UNL     1      -7.700  -0.442   4.592  0.00  0.00    -0.355 N 
ATOM     24  H   UNL     1      -7.350   0.417   4.874  0.00  0.00    +0.142 HD
ATOM     25  H   UNL     1      -8.649  -0.626   4.664  0.00  0.00    +0.142 HD
ENDBRANCH  14  23
ENDBRANCH   2  13
BRANCH   1  26
ATOM     26  C   UNL     1      -2.492   1.074   4.401  0.00  0.00    +0.233 C 
BRANCH  26  27
ATOM     27  C   UNL     1      -1.796   1.567   3.158  0.00  0.00    +0.135 A 
ATOM     28  C   UNL     1      -1.616   2.855   2.815  0.00  0.00    +0.047 A 
ATOM     29  C   UNL     1      -0.917   2.858   1.587  0.00  0.00    +0.045 A 
ATOM     30  C   UNL     1      -0.718   1.572   1.248  0.00  0.00    +0.102 A 
ATOM     31  O   UNL     1      -1.250   0.794   2.205  0.00  0.00    -0.462 OA
ATOM     32  C   UNL     1      -0.013   1.086   0.008  0.00  0.00    +0.086 C 
ENDBRANCH  26  27
BRANCH  26  33
ATOM     33  C   UNL     1      -1.463   0.689   5.433  0.00  0.00    +0.242 C 
ATOM     34  O   UNL     1      -1.420  -0.448   5.852  0.00  0.00    -0.273 OA
ATOM     35  N   UNL     1      -0.591   1.609   5.891  0.00  0.00    -0.309 N 
ATOM     36  H   UNL     1      -0.626   2.519   5.556  0.00  0.00    +0.149 HD
BRANCH  35  37
ATOM     37  C   UNL     1       0.408   1.236   6.894  0.00  0.00    +0.026 C 
ATOM     38  C   UNL     1       1.301   0.126   6.336  0.00  0.00    +0.031 C 
ATOM     39  C   UNL     1       1.266   2.455   7.239  0.00  0.00    +0.031 C 
ATOM     40  C   UNL     1      -0.298   0.735   8.156  0.00  0.00    +0.031 C 
ENDBRANCH  35  37
ENDBRANCH  26  33
ENDBRANCH   1  26
TORSDOF 10
