REMARK  Name = ZINC20390666
REMARK  5 active torsions:
REMARK  status: ('A' for Active; 'I' for Inactive)
REMARK    1  A    between atoms: C_1  and  O_2
REMARK    2  A    between atoms: O_2  and  C_3
REMARK    3  A    between atoms: C_7  and  C_10
REMARK    4  A    between atoms: C_8  and  O_9
REMARK    5  A    between atoms: C_13  and  C_16
REMARK                            x       y       z     vdW  Elec       q    Type
REMARK                         _______ _______ _______ _____ _____    ______ ____
ROOT
ATOM      1  C   UNL     1       2.534   5.596   0.008  0.00  0.00    +0.129 C 
ATOM      2  C   UNL     1       2.403   6.152  -1.423  0.00  0.00    +0.086 C 
ATOM      3  C   UNL     1       3.707   6.882  -1.651  0.00  0.00    +0.068 C 
ATOM      4  N   UNL     1       4.445   6.784  -0.600  0.00  0.00    -0.191 NA
ATOM      5  N   UNL     1       3.865   6.055   0.436  0.00  0.00    -0.261 N 
ATOM      6  H   UNL     1       4.273   5.879   1.299  0.00  0.00    +0.169 HD
ENDROOT
BRANCH   3   7
ATOM      7  C   UNL     1       4.078   7.596  -2.888  0.00  0.00    -0.002 A 
ATOM      8  C   UNL     1       3.195   7.630  -3.970  0.00  0.00    +0.012 A 
ATOM      9  C   UNL     1       3.545   8.302  -5.121  0.00  0.00    +0.039 A 
ATOM     10  C   UNL     1       4.774   8.936  -5.210  0.00  0.00    +0.123 A 
ATOM     11  C   UNL     1       5.657   8.902  -4.142  0.00  0.00    +0.039 A 
ATOM     12  C   UNL     1       5.316   8.236  -2.983  0.00  0.00    +0.012 A 
ATOM     13  F   UNL     1       5.114   9.590  -6.343  0.00  0.00    -0.205 F 
ENDBRANCH   3   7
BRANCH   1  18
ATOM     14  C   UNL     1       1.186   2.059   0.002  0.00  0.00    +0.162 A 
ATOM     15  C   UNL     1       2.359   1.321  -0.008  0.00  0.00    +0.049 A 
ATOM     16  C   UNL     1       3.581   1.967  -0.021  0.00  0.00    +0.004 A 
ATOM     17  C   UNL     1       3.637   3.349  -0.015  0.00  0.00    +0.009 A 
ATOM     18  C   UNL     1       2.470   4.090   0.000  0.00  0.00    +0.020 A 
ATOM     19  C   UNL     1       1.242   3.449   0.009  0.00  0.00    +0.164 A 
BRANCH  14  21
ATOM     20  C   UNL     1       0.002  -0.004   0.002  0.00  0.00    +0.277 C 
ATOM     21  O   UNL     1      -0.017   1.425   0.010  0.00  0.00    -0.491 OA
ENDBRANCH  14  21
BRANCH  19  22
ATOM     22  O   UNL     1       0.093   4.177   0.023  0.00  0.00    -0.503 OA
ATOM     23  H   UNL     1       0.139   5.276   0.029  0.00  0.00    +0.292 HD
ENDBRANCH  19  22
ENDBRANCH   1  18
TORSDOF 4
