REMARK  Name = ZINC59876070
REMARK  13 active torsions:
REMARK  status: ('A' for Active; 'I' for Inactive)
REMARK    1  A    between atoms: C_1  and  C_2
REMARK    2  A    between atoms: C_2  and  N_3
REMARK    3  A    between atoms: N_3  and  C_4
REMARK    4  A    between atoms: N_3  and  C_6
REMARK    5  A    between atoms: C_4  and  C_5
REMARK    6  A    between atoms: C_6  and  C_8
REMARK    7  A    between atoms: C_6  and  C_28
REMARK    8  A    between atoms: C_8  and  N_9
REMARK    9  A    between atoms: C_10  and  C_12
REMARK   10  A    between atoms: C_12  and  C_13
REMARK   11  A    between atoms: C_13  and  C_14
REMARK   12  A    between atoms: C_14  and  C_15
REMARK   13  A    between atoms: C_15  and  C_16
REMARK                            x       y       z     vdW  Elec       q    Type
REMARK                         _______ _______ _______ _____ _____    ______ ____
ROOT
ATOM      1  N   UNL     1       1.388  -2.017  -3.084  0.00  0.00    -0.317 N 
ATOM      2  C   UNL     1       2.456  -2.744  -3.469  0.00  0.00    +0.213 C 
ATOM      3  O   UNL     1       3.439  -2.188  -3.911  0.00  0.00    -0.276 OA
ATOM      4  H   UNL     1       0.640  -2.450  -2.643  0.00  0.00    +0.149 HD
ENDROOT
BRANCH   1   5
ATOM      5  C   UNL     1       1.357  -0.573  -3.330  0.00  0.00    +0.093 C 
BRANCH   5   6
ATOM      6  C   UNL     1       0.046   0.007  -2.796  0.00  0.00    -0.019 C 
BRANCH   6   7
ATOM      7  C   UNL     1       0.083   1.510  -2.899  0.00  0.00    -0.041 A 
ATOM      8  C   UNL     1       1.042   2.227  -2.208  0.00  0.00    +0.003 A 
ATOM      9  C   UNL     1       1.076   3.606  -2.303  0.00  0.00    +0.000 A 
ATOM     10  C   UNL     1       0.151   4.268  -3.088  0.00  0.00    +0.001 A 
ATOM     11  C   UNL     1      -0.808   3.553  -3.780  0.00  0.00    +0.020 A 
ATOM     12  C   UNL     1      -0.839   2.172  -3.690  0.00  0.00    +0.043 A 
ATOM     13 CL   UNL     1      -2.039   1.272  -4.564  0.00  0.00    -0.083 Cl
ENDBRANCH   6   7
BRANCH   6  14
ATOM     14  N   UNL     1      -0.126  -0.383  -1.391  0.00  0.00    +0.385 N 
ATOM     15  H   UNL     1      -0.406  -1.352  -1.343  0.00  0.00    -0.081 HD
BRANCH  14  17
ATOM     16  C   UNL     1       1.257  -1.254   0.433  0.00  0.00    -0.017 C 
ATOM     17  C   UNL     1       1.143  -0.204  -0.674  0.00  0.00    -0.081 C 
ENDBRANCH  14  17
BRANCH  14  18
ATOM     18  C   UNL     1      -1.161   0.456  -0.772  0.00  0.00    -0.081 C 
ATOM     19  C   UNL     1      -2.521   0.129  -1.392  0.00  0.00    -0.017 C 
ENDBRANCH  14  18
ENDBRANCH   6  14
ENDBRANCH   5   6
ENDBRANCH   1   5
BRANCH   2  20
ATOM     20  C   UNL     1       2.428  -4.246  -3.351  0.00  0.00    +0.096 C 
BRANCH  20  21
ATOM     21  C   UNL     1       3.796  -4.813  -3.735  0.00  0.00    +0.009 C 
BRANCH  21  22
ATOM     22  C   UNL     1       3.767  -6.338  -3.615  0.00  0.00    +0.002 C 
BRANCH  22  23
ATOM     23  C   UNL     1       5.135  -6.906  -3.998  0.00  0.00    +0.016 C 
BRANCH  23  24
ATOM     24  C   UNL     1       5.106  -8.431  -3.878  0.00  0.00    +0.069 C 
ATOM     25  C   UNL     1       6.459  -9.045  -4.299  0.00  0.00    +0.108 C 
ATOM     26  C   UNL     1       6.907 -10.211  -3.412  0.00  0.00    +0.105 C 
ATOM     27  C   UNL     1       5.923 -10.534  -2.268  0.00  0.00    +0.093 C 
ATOM     28  S   UNL     1       5.000  -8.955  -2.112  0.00  0.00    -0.154 S 
ATOM     29  N   UNL     1       8.176  -9.748  -2.828  0.00  0.00    -0.294 N 
ATOM     30  C   UNL     1       8.443  -8.517  -3.285  0.00  0.00    +0.300 C 
ATOM     31  O   UNL     1       9.435  -7.891  -2.964  0.00  0.00    -0.253 OA
ATOM     32  N   UNL     1       7.520  -8.042  -4.119  0.00  0.00    -0.294 N 
ATOM     33  H   UNL     1       8.729 -10.253  -2.212  0.00  0.00    +0.151 HD
ATOM     34  H   UNL     1       7.548  -7.170  -4.542  0.00  0.00    +0.151 HD
ENDBRANCH  23  24
ENDBRANCH  22  23
ENDBRANCH  21  22
ENDBRANCH  20  21
ENDBRANCH   2  20
TORSDOF 11
