REMARK  Name = ZINC39998159
REMARK  10 active torsions:
REMARK  status: ('A' for Active; 'I' for Inactive)
REMARK    1  A    between atoms: C_1  and  C_2
REMARK    2  A    between atoms: C_2  and  C_3
REMARK    3  A    between atoms: C_3  and  S_4
REMARK    4  A    between atoms: S_4  and  C_5
REMARK    5  A    between atoms: C_8  and  N_10
REMARK    6  A    between atoms: C_11  and  C_12
REMARK    7  A    between atoms: C_11  and  O_28
REMARK    8  A    between atoms: C_12  and  C_26
REMARK    9  A    between atoms: C_13  and  C_14
REMARK   10  A    between atoms: C_17  and  C_19
REMARK                            x       y       z     vdW  Elec       q    Type
REMARK                         _______ _______ _______ _____ _____    ______ ____
ROOT
ATOM      1  C   UNL     1      -9.139  -4.650   0.066  0.00  0.00    +0.116 C 
ATOM      2  C   UNL     1     -10.352  -3.977   0.075  0.00  0.00    +0.070 C 
ENDROOT
BRANCH   2   3
ATOM      3  C   UNL     1     -11.556  -4.700   0.086  0.00  0.00    +0.130 A 
ATOM      4  C   UNL     1     -12.832  -4.156   0.090  0.00  0.00    +0.050 A 
ATOM      5  C   UNL     1     -13.727  -5.227   0.100  0.00  0.00    +0.050 A 
ATOM      6  C   UNL     1     -12.975  -6.381   0.100  0.00  0.00    +0.136 A 
ATOM      7  O   UNL     1     -11.672  -6.045   0.086  0.00  0.00    -0.455 OA
BRANCH   6   8
ATOM      8  C   UNL     1     -13.509  -7.757   0.109  0.00  0.00    +0.017 A 
ATOM      9  C   UNL     1     -14.889  -7.973   0.112  0.00  0.00    +0.012 A 
ATOM     10  C   UNL     1     -15.382  -9.261   0.120  0.00  0.00    +0.016 A 
ATOM     11  C   UNL     1     -14.512 -10.339   0.125  0.00  0.00    +0.018 A 
ATOM     12  C   UNL     1     -13.142 -10.131   0.123  0.00  0.00    +0.016 A 
ATOM     13  C   UNL     1     -12.636  -8.848   0.109  0.00  0.00    +0.012 A 
ATOM     14 BR   UNL     1     -15.196 -12.101   0.136  0.00  0.00    -0.050 Br
ENDBRANCH   6   8
ENDBRANCH   2   3
BRANCH   1  16
ATOM     15  N   UNL     1      -6.731  -4.533   0.046  0.00  0.00    -0.184 NA
ATOM     16  C   UNL     1      -7.881  -3.894   0.055  0.00  0.00    +0.233 C 
BRANCH  15  20
ATOM     17  C   UNL     1      -3.112  -2.797   0.017  0.00  0.00    +0.160 A 
ATOM     18  N   UNL     1      -4.195  -2.031   0.025  0.00  0.00    -0.133 NA
ATOM     19  N   UNL     1      -5.358  -2.519   0.034  0.00  0.00    -0.120 NA
ATOM     20  C   UNL     1      -5.566  -3.834   0.036  0.00  0.00    +0.219 A 
ATOM     21  S   UNL     1      -3.874  -4.417   0.015  0.00  0.00    -0.020 S 
BRANCH  17  22
ATOM     22  S   UNL     1      -1.409  -2.348   0.003  0.00  0.00    -0.097 S 
BRANCH  22  23
ATOM     23  C   UNL     1      -1.433  -0.534   0.013  0.00  0.00    +0.076 C 
BRANCH  23  25
ATOM     24  C   UNL     1      -0.019   1.526   0.010  0.00  0.00    +0.004 C 
ATOM     25  C   UNL     1       0.002  -0.004   0.002  0.00  0.00    +0.008 C 
ENDBRANCH  23  25
ENDBRANCH  22  23
ENDBRANCH  17  22
ENDBRANCH  15  20
BRANCH  16  26
ATOM     26  O   UNL     1      -7.905  -2.541   0.055  0.00  0.00    -0.491 OA
ATOM     27  H   UNL     1      -8.795  -2.163   0.062  0.00  0.00    +0.294 HD
ENDBRANCH  16  26
ENDBRANCH   1  16
BRANCH   1  28
ATOM     28  C   UNL     1      -9.114  -6.081   0.066  0.00  0.00    +0.105 C 
ATOM     29  N   UNL     1      -9.094  -7.217   0.066  0.00  0.00    -0.191 NA
ENDBRANCH   1  28
TORSDOF 9
