REMARK  Name = ZINC37435915
REMARK  7 active torsions:
REMARK  status: ('A' for Active; 'I' for Inactive)
REMARK    1  A    between atoms: C_1  and  C_2
REMARK    2  A    between atoms: C_2  and  C_3
REMARK    3  A    between atoms: C_2  and  C_4
REMARK    4  A    between atoms: C_4  and  C_5
REMARK    5  A    between atoms: C_5  and  C_7
REMARK    6  A    between atoms: C_5  and  N_19
REMARK    7  A    between atoms: C_13  and  C_16
REMARK                            x       y       z     vdW  Elec       q    Type
REMARK                         _______ _______ _______ _____ _____    ______ ____
ROOT
ATOM      1  C   UNL     1      -1.641  -1.302  -1.001  0.00  0.00    +0.161 C 
ENDROOT
BRANCH   1   2
ATOM      2  C   UNL     1      -3.082  -1.568  -1.353  0.00  0.00    +0.236 C 
ATOM      3  O   UNL     1      -3.588  -2.634  -1.075  0.00  0.00    -0.274 OA
ATOM      4  N   UNL     1      -3.809  -0.620  -1.978  0.00  0.00    -0.299 N 
ATOM      5  C   UNL     1      -3.185   0.638  -2.410  0.00  0.00    +0.108 C 
ATOM      6  C   UNL     1      -3.989   1.810  -1.837  0.00  0.00    +0.020 C 
ATOM      7  C   UNL     1      -5.457   1.664  -2.245  0.00  0.00    +0.018 C 
ATOM      8  C   UNL     1      -6.021   0.363  -1.669  0.00  0.00    +0.119 C 
ATOM      9  C   UNL     1      -5.239  -0.827  -2.245  0.00  0.00    +0.122 C 
BRANCH   8  10
ATOM     10  C   UNL     1      -7.475   0.236  -2.043  0.00  0.00    +0.361 C 
ATOM     11  O   UNL     1      -8.011   1.105  -2.709  0.00  0.00    -0.246 OA
ATOM     12  O   UNL     1      -8.116  -0.736  -1.681  0.00  0.00    -0.246 OA
ENDBRANCH   8  10
ENDBRANCH   1   2
BRANCH   1  13
ATOM     13  N   UNL     1      -1.048  -2.513  -0.427  0.00  0.00    -0.288 N 
ATOM     14  C   UNL     1       0.286  -2.699  -0.478  0.00  0.00    +0.298 C 
ATOM     15  O   UNL     1       1.006  -1.823  -0.918  0.00  0.00    -0.253 OA
ATOM     16  N   UNL     1       0.822  -3.856  -0.041  0.00  0.00    -0.313 N 
ATOM     17  H   UNL     1      -1.615  -3.180  -0.010  0.00  0.00    +0.151 HD
ATOM     18  H   UNL     1       0.248  -4.554   0.310  0.00  0.00    +0.146 HD
ATOM     19  H   UNL     1       1.782  -3.990  -0.078  0.00  0.00    +0.146 HD
ENDBRANCH   1  13
BRANCH   1  20
ATOM     20  C   UNL     1      -1.567  -0.165   0.019  0.00  0.00    +0.034 C 
BRANCH  20  22
ATOM     21  C   UNL     1      -1.980   0.442   2.408  0.00  0.00    +0.007 C 
ATOM     22  C   UNL     1      -2.247  -0.600   1.319  0.00  0.00    -0.015 C 
ATOM     23  C   UNL     1      -3.754  -0.723   1.089  0.00  0.00    +0.007 C 
ENDBRANCH  20  22
ENDBRANCH   1  20
TORSDOF 5
