REMARK  Name = ZINC63376178
REMARK  6 active torsions:
REMARK  status: ('A' for Active; 'I' for Inactive)
REMARK    1  A    between atoms: C_1  and  O_2
REMARK    2  A    between atoms: O_2  and  C_3
REMARK    3  A    between atoms: C_3  and  C_4
REMARK    4  A    between atoms: C_4  and  N_5
REMARK    5  A    between atoms: C_10  and  C_28
REMARK    6  A    between atoms: C_28  and  C_29
REMARK                            x       y       z     vdW  Elec       q    Type
REMARK                         _______ _______ _______ _____ _____    ______ ____
ROOT
ATOM      1  N   UNL     1       1.401  -2.532  -0.162  0.00  0.00    -0.239 N 
ATOM      2  C   UNL     1       0.862  -2.673  -1.409  0.00  0.00    +0.227 C 
ATOM      3  O   UNL     1      -0.195  -2.228  -1.804  0.00  0.00    -0.275 OA
ATOM      4  C   UNL     1       1.851  -3.493  -2.192  0.00  0.00    +0.107 C 
ATOM      5  C   UNL     1       2.179  -3.094  -3.636  0.00  0.00    +0.072 C 
ATOM      6  N   UNL     1       3.631  -3.451  -3.755  0.00  0.00    -0.295 NA
ATOM      7  C   UNL     1       4.225  -3.365  -2.384  0.00  0.00    +0.136 C 
ATOM      8  C   UNL     1       3.142  -2.878  -1.514  0.00  0.00    +0.122 C 
ATOM      9  C   UNL     1       2.742  -2.824  -0.127  0.00  0.00    +0.228 C 
ATOM     10  O   UNL     1       3.437  -3.001   0.850  0.00  0.00    -0.275 OA
ATOM     11  C   UNL     1       4.750  -4.718  -1.980  0.00  0.00    +0.005 A 
ATOM     12  C   UNL     1       4.148  -5.939  -1.769  0.00  0.00    +0.027 A 
ATOM     13  C   UNL     1       4.911  -7.031  -1.391  0.00  0.00    +0.041 A 
ATOM     14  C   UNL     1       6.279  -6.891  -1.229  0.00  0.00    +0.022 A 
ATOM     15  C   UNL     1       6.884  -5.671  -1.441  0.00  0.00    +0.025 A 
ATOM     16  C   UNL     1       6.123  -4.567  -1.821  0.00  0.00    +0.039 A 
ATOM     17  N   UNL     1       6.499  -3.250  -2.092  0.00  0.00    -0.283 N 
ATOM     18  C   UNL     1       5.448  -2.481  -2.429  0.00  0.00    +0.243 C 
ATOM     19  O   UNL     1       5.477  -1.303  -2.716  0.00  0.00    -0.273 OA
ATOM     20 CL   UNL     1       4.155  -8.570  -1.124  0.00  0.00    -0.084 Cl
ATOM     21  H   UNL     1       3.746  -4.377  -4.141  0.00  0.00    +0.124 HD
ATOM     22  H   UNL     1       7.412  -2.926  -2.042  0.00  0.00    +0.155 HD
ENDROOT
BRANCH   1  23
ATOM     23  C   UNL     1       0.633  -2.108   1.011  0.00  0.00    +0.144 C 
BRANCH  23  24
ATOM     24  C   UNL     1       0.673  -0.582   1.123  0.00  0.00    +0.179 C 
BRANCH  24  26
ATOM     25  C   UNL     1      -0.017   1.425   0.010  0.00  0.00    +0.194 C 
ATOM     26  O   UNL     1       0.002  -0.004   0.002  0.00  0.00    -0.381 OA
ENDBRANCH  24  26
ENDBRANCH  23  24
ENDBRANCH   1  23
BRANCH   5  27
ATOM     27  C   UNL     1       1.966  -1.593  -3.846  0.00  0.00    +0.052 C 
BRANCH  27  28
ATOM     28  C   UNL     1       2.177  -1.254  -5.299  0.00  0.00    -0.040 C 
ATOM     29  C   UNL     1       1.227  -1.150  -6.256  0.00  0.00    -0.001 A 
ATOM     30  C   UNL     1      -0.231  -1.317  -6.231  0.00  0.00    +0.010 A 
ATOM     31  C   UNL     1      -0.930  -1.145  -7.376  0.00  0.00    +0.001 A 
ATOM     32  C   UNL     1      -0.298  -0.814  -8.583  0.00  0.00    +0.002 A 
ATOM     33  C   UNL     1       1.037  -0.644  -8.684  0.00  0.00    +0.026 A 
ATOM     34  C   UNL     1       1.870  -0.800  -7.542  0.00  0.00    +0.043 A 
ATOM     35  N   UNL     1       3.167  -0.691  -7.387  0.00  0.00    -0.380 N 
ATOM     36  C   UNL     1       3.493  -0.955  -5.981  0.00  0.00    +0.144 C 
ATOM     37  H   UNL     1       3.804  -0.469  -8.084  0.00  0.00    +0.160 HD
ENDBRANCH  27  28
ENDBRANCH   5  27
TORSDOF 5
