REMARK  Name = ZINC45009876
REMARK  2 active torsions:
REMARK  status: ('A' for Active; 'I' for Inactive)
REMARK    1  A    between atoms: C_6  and  O_8
REMARK    2  A    between atoms: O_8  and  C_9
REMARK                            x       y       z     vdW  Elec       q    Type
REMARK                         _______ _______ _______ _____ _____    ______ ____
ROOT
ATOM      1  C   UNL     1       2.461  -2.628  -0.141  0.00  0.00    +0.228 A 
ATOM      2  C   UNL     1       2.544  -4.014  -0.265  0.00  0.00    +0.108 A 
ATOM      3  C   UNL     1       3.796  -4.592  -0.385  0.00  0.00    +0.138 A 
ATOM      4  N   UNL     1       4.871  -3.816  -0.379  0.00  0.00    -0.203 NA
ATOM      5  C   UNL     1       4.759  -2.501  -0.259  0.00  0.00    +0.217 A 
ATOM      6  N   UNL     1       3.578  -1.911  -0.147  0.00  0.00    -0.179 NA
ATOM      7  N   UNL     1       5.905  -1.724  -0.256  0.00  0.00    -0.327 N 
ATOM      8 CL   UNL     1       3.957  -6.313  -0.542  0.00  0.00    -0.062 Cl
ATOM      9  H   UNL     1       6.775  -2.143  -0.340  0.00  0.00    +0.145 HD
ATOM     10  H   UNL     1       5.837  -0.761  -0.169  0.00  0.00    +0.145 HD
ENDROOT
BRANCH   1  11
ATOM     11  O   UNL     1       1.255  -2.021  -0.022  0.00  0.00    -0.419 OA
BRANCH  11  17
ATOM     12  C   UNL     1       0.490   1.396   0.941  0.00  0.00    +0.007 A 
ATOM     13  C   UNL     1       1.175   2.058  -0.068  0.00  0.00    +0.021 A 
ATOM     14  C   UNL     1       1.857   1.323  -1.018  0.00  0.00    +0.137 A 
ATOM     15  N   UNL     1       1.863   0.004  -0.975  0.00  0.00    -0.105 N 
ATOM     16  O   UNL     1       2.573  -0.716  -1.966  0.00  0.00    -0.161 OA
ATOM     17  C   UNL     1       1.222  -0.663  -0.028  0.00  0.00    +0.240 A 
ATOM     18  C   UNL     1       0.517   0.012   0.959  0.00  0.00    +0.069 A 
ENDBRANCH  11  17
ENDBRANCH   1  11
TORSDOF 2
