REMARK  Name = ZINC42844642
REMARK  7 active torsions:
REMARK  status: ('A' for Active; 'I' for Inactive)
REMARK    1  A    between atoms: C_1  and  C_2
REMARK    2  A    between atoms: C_2  and  C_3
REMARK    3  A    between atoms: C_3  and  C_5
REMARK    4  A    between atoms: C_3  and  N_6
REMARK    5  A    between atoms: N_9  and  N_10
REMARK    6  A    between atoms: C_11  and  C_19
REMARK    7  A    between atoms: C_16  and  C_18
REMARK                            x       y       z     vdW  Elec       q    Type
REMARK                         _______ _______ _______ _____ _____    ______ ____
ROOT
ATOM      1  N   UNL     1      -0.055  -0.114  -2.441  0.00  0.00    -0.296 N 
ATOM      2  C   UNL     1       0.561   0.028  -3.631  0.00  0.00    +0.314 C 
ATOM      3  O   UNL     1       1.758  -0.163  -3.722  0.00  0.00    -0.252 OA
ATOM      4  N   UNL     1      -0.150   0.381  -4.720  0.00  0.00    -0.232 N 
ATOM      5  H   UNL     1      -1.010   0.038  -2.368  0.00  0.00    +0.151 HD
ATOM      6  H   UNL     1       0.293   0.483  -5.577  0.00  0.00    +0.171 HD
ENDROOT
BRANCH   4   7
ATOM      7  N   UNL     1      -1.495   0.595  -4.617  0.00  0.00    -0.220 NA
ATOM      8  C   UNL     1      -2.247  -0.387  -5.410  0.00  0.00    +0.073 C 
ATOM      9  C   UNL     1      -3.745  -0.209  -5.157  0.00  0.00    +0.020 C 
ATOM     10  C   UNL     1      -4.159   1.212  -5.546  0.00  0.00    +0.003 C 
ATOM     11  C   UNL     1      -3.328   2.216  -4.742  0.00  0.00    +0.020 C 
ATOM     12  C   UNL     1      -1.841   1.968  -5.007  0.00  0.00    +0.073 C 
ATOM     13  C   UNL     1      -1.549   2.164  -6.496  0.00  0.00    +0.026 C 
ATOM     14  C   UNL     1      -1.825  -1.800  -5.003  0.00  0.00    +0.026 C 
ENDBRANCH   4   7
BRANCH   1  15
ATOM     15  C   UNL     1       0.718  -0.497  -1.257  0.00  0.00    +0.071 C 
ATOM     16  C   UNL     1       0.849  -2.021  -1.205  0.00  0.00    +0.028 C 
BRANCH  15  18
ATOM     17  C   UNL     1      -0.019   1.526   0.010  0.00  0.00    +0.005 C 
ATOM     18  C   UNL     1       0.002  -0.004   0.002  0.00  0.00    +0.019 C 
ENDBRANCH  15  18
ENDBRANCH   1  15
TORSDOF 3
