REMARK  Name = ZINC39447656
REMARK  4 active torsions:
REMARK  status: ('A' for Active; 'I' for Inactive)
REMARK    1  A    between atoms: C_3  and  C_18
REMARK    2  A    between atoms: C_5  and  C_7
REMARK    3  A    between atoms: C_12  and  C_14
REMARK    4  A    between atoms: C_18  and  N_19
REMARK                            x       y       z     vdW  Elec       q    Type
REMARK                         _______ _______ _______ _____ _____    ______ ____
ROOT
ATOM      1  C   UNL     1      -0.017   1.375   0.010  0.00  0.00    +0.001 A 
ATOM      2  C   UNL     1       1.171   2.086   0.002  0.00  0.00    +0.002 A 
ATOM      3  C   UNL     1       2.383   1.421  -0.013  0.00  0.00    -0.063 A 
ATOM      4  C   UNL     1       2.416   0.041  -0.022  0.00  0.00    +0.013 A 
ATOM      5  C   UNL     1       1.223  -0.682  -0.014  0.00  0.00    +0.018 A 
ATOM      6  C   UNL     1       0.002  -0.004   0.002  0.00  0.00    +0.011 A 
ENDROOT
BRANCH   5   7
ATOM      7  C   UNL     1       1.250  -2.160  -0.023  0.00  0.00    +0.141 A 
ATOM      8  N   UNL     1       2.450  -2.807  -0.033  0.00  0.00    -0.307 N 
ATOM      9  C   UNL     1       2.483  -4.157  -0.041  0.00  0.00    +0.252 A 
ATOM     10  O   UNL     1       3.547  -4.753  -0.050  0.00  0.00    -0.268 OA
ATOM     11  C   UNL     1       1.263  -4.863  -0.038  0.00  0.00    +0.093 A 
ATOM     12  C   UNL     1       0.095  -4.159  -0.028  0.00  0.00    +0.052 A 
ATOM     13  N   UNL     1       0.116  -2.828  -0.015  0.00  0.00    -0.234 NA
ATOM     14  H   UNL     1       3.277  -2.299  -0.035  0.00  0.00    +0.170 HD
BRANCH  12  15
ATOM     15  C   UNL     1      -1.223  -4.891  -0.025  0.00  0.00    +0.038 C 
ATOM     16  C   UNL     1      -2.299  -4.217   0.843  0.00  0.00    +0.010 C 
ATOM     17  C   UNL     1      -3.303  -4.569  -0.268  0.00  0.00    +0.001 C 
ATOM     18  C   UNL     1      -2.110  -4.566  -1.238  0.00  0.00    +0.010 C 
ENDBRANCH  12  15
ENDBRANCH   5   7
BRANCH   3  19
ATOM     19  C   UNL     1       3.671   2.204  -0.022  0.00  0.00    -0.043 C 
BRANCH  19  20
ATOM     20  N   UNL     1       4.103   2.451   1.360  0.00  0.00    +0.385 N 
ATOM     21  C   UNL     1       3.118   3.309   2.033  0.00  0.00    -0.072 C 
ATOM     22  C   UNL     1       3.389   3.330   3.543  0.00  0.00    +0.039 C 
ATOM     23  C   UNL     1       4.854   3.648   3.746  0.00  0.00    +0.061 C 
ATOM     24  C   UNL     1       5.743   3.544   2.749  0.00  0.00    -0.040 C 
ATOM     25  C   UNL     1       5.421   3.111   1.350  0.00  0.00    -0.043 C 
ATOM     26  C   UNL     1       7.057   3.948   3.360  0.00  0.00    +0.197 C 
ATOM     27  N   UNL     1       6.684   4.250   4.757  0.00  0.00    -0.183 NA
ATOM     28  N   UNL     1       5.468   4.059   4.873  0.00  0.00    -0.159 NA
ATOM     29  H   UNL     1       4.171   1.572   1.852  0.00  0.00    -0.081 HD
ENDBRANCH  19  20
ENDBRANCH   3  19
TORSDOF 4
