REMARK  Name = ZINC10243368
REMARK  8 active torsions:
REMARK  status: ('A' for Active; 'I' for Inactive)
REMARK    1  A    between atoms: C_1  and  C_2
REMARK    2  A    between atoms: C_3  and  C_11
REMARK    3  A    between atoms: C_7  and  N_8
REMARK    4  A    between atoms: N_13  and  C_14
REMARK    5  A    between atoms: C_15  and  N_30
REMARK    6  A    between atoms: C_17  and  S_22
REMARK    7  A    between atoms: S_22  and  C_23
REMARK    8  A    between atoms: C_23  and  C_24
REMARK                            x       y       z     vdW  Elec       q    Type
REMARK                         _______ _______ _______ _____ _____    ______ ____
ROOT
ATOM      1  C   UNL     1       0.875  10.214  -1.082  0.00  0.00    +0.139 A 
ATOM      2  C   UNL     1       0.896   9.277  -0.054  0.00  0.00    +0.146 A 
ATOM      3  N   UNL     1       1.045   7.979  -0.343  0.00  0.00    -0.207 NA
ATOM      4  C   UNL     1       1.173   7.567  -1.587  0.00  0.00    +0.171 A 
ATOM      5  N   UNL     1       1.164   8.443  -2.630  0.00  0.00    -0.300 N 
ATOM      6  H   UNL     1       1.263   8.116  -3.538  0.00  0.00    +0.171 HD
ATOM      7  C   UNL     1       1.012   9.765  -2.404  0.00  0.00    +0.275 A 
ATOM      8  O   UNL     1       0.998  10.557  -3.334  0.00  0.00    -0.266 OA
ENDROOT
BRANCH   1  11
ATOM      9  C   UNL     1       1.652  12.467  -1.210  0.00  0.00    +0.249 C 
ATOM     10  O   UNL     1       2.565  12.099  -1.925  0.00  0.00    -0.270 OA
ATOM     11  N   UNL     1       0.719  11.585  -0.802  0.00  0.00    -0.274 N 
ATOM     12  H   UNL     1      -0.060  11.894  -0.314  0.00  0.00    +0.155 HD
BRANCH   9  15
ATOM     13  C   UNL     1       3.811  14.283  -1.853  0.00  0.00    +0.047 C 
ATOM     14  C   UNL     1       2.602  14.767  -1.095  0.00  0.00    -0.008 A 
ATOM     15  C   UNL     1       1.567  13.882  -0.790  0.00  0.00    +0.042 A 
ATOM     16  C   UNL     1       0.453  14.336  -0.082  0.00  0.00    +0.013 A 
ATOM     17  C   UNL     1       0.380  15.658   0.307  0.00  0.00    +0.003 A 
ATOM     18  C   UNL     1       1.406  16.532  -0.003  0.00  0.00    +0.033 A 
ATOM     19  C   UNL     1       2.513  16.087  -0.705  0.00  0.00    +0.130 A 
BRANCH  19  20
ATOM     20  N   UNL     1       3.607  17.029  -1.032  0.00  0.00    +0.057 N 
ATOM     21  O   UNL     1       3.584  18.165  -0.593  0.00  0.00    -0.126 OA
ATOM     22  O   UNL     1       4.529  16.669  -1.741  0.00  0.00    -0.126 OA
ENDBRANCH  19  20
ENDBRANCH   9  15
ENDBRANCH   1  11
BRANCH   2  23
ATOM     23  N   UNL     1       0.764   9.685   1.261  0.00  0.00    -0.341 N 
ATOM     24  H   UNL     1       0.779   9.030   1.976  0.00  0.00    +0.144 HD
ATOM     25  H   UNL     1       0.656  10.627   1.468  0.00  0.00    +0.144 HD
ENDBRANCH   2  23
BRANCH   4  26
ATOM     26  S   UNL     1       1.367   5.846  -1.909  0.00  0.00    -0.082 S 
BRANCH  26  27
ATOM     27  C   UNL     1       1.313   5.202  -0.218  0.00  0.00    +0.132 C 
BRANCH  27  28
ATOM     28  C   UNL     1       1.465   3.703  -0.247  0.00  0.00    +0.051 A 
ATOM     29  C   UNL     1       0.341   2.904  -0.342  0.00  0.00    +0.024 A 
ATOM     30  C   UNL     1       0.491   1.526  -0.373  0.00  0.00    +0.003 A 
ATOM     31  C   UNL     1       1.772   1.001  -0.296  0.00  0.00    +0.020 A 
ATOM     32  C   UNL     1       2.849   1.861  -0.201  0.00  0.00    +0.111 A 
ATOM     33  N   UNL     1       2.668   3.168  -0.180  0.00  0.00    -0.259 NA
ENDBRANCH  27  28
ENDBRANCH  26  27
ENDBRANCH   4  26
TORSDOF 7
