REMARK  Name = ZINC39590876
REMARK  8 active torsions:
REMARK  status: ('A' for Active; 'I' for Inactive)
REMARK    1  A    between atoms: C_3  and  N_27
REMARK    2  A    between atoms: C_6  and  C_7
REMARK    3  A    between atoms: C_7  and  O_9
REMARK    4  A    between atoms: O_9  and  C_10
REMARK    5  A    between atoms: C_10  and  C_11
REMARK    6  A    between atoms: N_16  and  C_17
REMARK    7  A    between atoms: C_28  and  C_30
REMARK    8  A    between atoms: C_30  and  C_31
REMARK                            x       y       z     vdW  Elec       q    Type
REMARK                         _______ _______ _______ _____ _____    ______ ____
ROOT
ATOM      1  C   UNL     1      -2.311  -4.234   0.346  0.00  0.00    +0.258 C 
ATOM      2  O   UNL     1      -1.189  -4.674   0.481  0.00  0.00    -0.272 OA
ATOM      3  N   UNL     1      -3.370  -5.067   0.374  0.00  0.00    -0.237 N 
ATOM      4  C   UNL     1      -3.182  -6.390   0.551  0.00  0.00    +0.306 C 
ATOM      5  O   UNL     1      -2.057  -6.832   0.686  0.00  0.00    -0.252 OA
ATOM      6  N   UNL     1      -4.240  -7.224   0.579  0.00  0.00    -0.294 N 
ATOM      7  H   UNL     1      -4.267  -4.715   0.266  0.00  0.00    +0.159 HD
ATOM      8  H   UNL     1      -5.138  -6.872   0.471  0.00  0.00    +0.151 HD
ENDROOT
BRANCH   6   9
ATOM      9  C   UNL     1      -4.036  -8.662   0.771  0.00  0.00    +0.037 C 
ATOM     10  C   UNL     1      -3.164  -9.209  -0.360  0.00  0.00    +0.029 C 
ATOM     11  C   UNL     1      -2.951 -10.710  -0.159  0.00  0.00    -0.008 C 
ATOM     12  C   UNL     1      -4.304 -11.424  -0.168  0.00  0.00    +0.007 C 
ATOM     13  C   UNL     1      -5.176 -10.876   0.964  0.00  0.00    -0.008 C 
ATOM     14  C   UNL     1      -5.390  -9.375   0.763  0.00  0.00    +0.029 C 
ATOM     15  C   UNL     1      -4.481 -11.117   2.306  0.00  0.00    +0.007 C 
ATOM     16  C   UNL     1      -3.127 -10.404   2.314  0.00  0.00    -0.008 C 
ATOM     17  C   UNL     1      -2.256 -10.951   1.182  0.00  0.00    +0.007 C 
ATOM     18  C   UNL     1      -3.341  -8.902   2.113  0.00  0.00    +0.029 C 
ENDBRANCH   6   9
BRANCH   1  19
ATOM     19  C   UNL     1      -2.521  -2.755   0.148  0.00  0.00    +0.328 C 
BRANCH  19  20
ATOM     20  O   UNL     1      -1.257  -2.089   0.156  0.00  0.00    -0.452 OA
BRANCH  20  21
ATOM     21  C   UNL     1      -1.269  -0.752  -0.011  0.00  0.00    +0.340 C 
ATOM     22  O   UNL     1      -2.324  -0.167  -0.159  0.00  0.00    -0.245 OA
BRANCH  21  28
ATOM     23  C   UNL     1      -0.012   1.390  -0.186  0.00  0.00    +0.017 A 
ATOM     24  C   UNL     1       1.172   2.090  -0.188  0.00  0.00    +0.024 A 
ATOM     25  C   UNL     1       2.380   1.419  -0.019  0.00  0.00    +0.033 A 
ATOM     26  C   UNL     1       2.394   0.039   0.153  0.00  0.00    +0.024 A 
ATOM     27  C   UNL     1       1.213  -0.668   0.156  0.00  0.00    +0.017 A 
ATOM     28  C   UNL     1      -0.002   0.002  -0.014  0.00  0.00    +0.059 A 
BRANCH  25  29
ATOM     29  N   UNL     1       3.578   2.132  -0.022  0.00  0.00    -0.285 N 
ATOM     30  C   UNL     1       3.619   3.383   0.478  0.00  0.00    +0.231 C 
ATOM     31  O   UNL     1       2.639   3.854   1.016  0.00  0.00    -0.274 OA
ATOM     32  H   UNL     1       4.382   1.728  -0.383  0.00  0.00    +0.155 HD
BRANCH  30  33
ATOM     33  C   UNL     1       4.882   4.198   0.368  0.00  0.00    +0.214 C 
BRANCH  33  34
ATOM     34  C   UNL     1       4.670   5.518   0.985  0.00  0.00    +0.072 C 
ATOM     35  N   UNL     1       4.507   6.536   1.461  0.00  0.00    -0.196 NA
ENDBRANCH  33  34
ENDBRANCH  30  33
ENDBRANCH  25  29
ENDBRANCH  21  28
ENDBRANCH  20  21
ENDBRANCH  19  20
ENDBRANCH   1  19
TORSDOF 8
