REMARK  Name = ZINC00880454
REMARK  8 active torsions:
REMARK  status: ('A' for Active; 'I' for Inactive)
REMARK    1  A    between atoms: C_1  and  C_2
REMARK    2  A    between atoms: C_5  and  C_28
REMARK    3  A    between atoms: C_9  and  C_14
REMARK    4  A    between atoms: C_14  and  N_15
REMARK    5  A    between atoms: N_15  and  C_16
REMARK    6  A    between atoms: C_16  and  C_17
REMARK    7  A    between atoms: C_17  and  O_18
REMARK    8  A    between atoms: N_21  and  C_22
REMARK                            x       y       z     vdW  Elec       q    Type
REMARK                         _______ _______ _______ _____ _____    ______ ____
ROOT
ATOM      1  C   UNL     1      -3.624   1.649   0.028  0.00  0.00    +0.150 C 
ENDROOT
BRANCH   1  10
ATOM      2  C   UNL     1      -6.760  -0.764  -3.357  0.00  0.00    +0.044 C 
ATOM      3  C   UNL     1      -6.218   0.463  -4.044  0.00  0.00    -0.041 A 
ATOM      4  C   UNL     1      -6.585   0.747  -5.330  0.00  0.00    +0.004 A 
ATOM      5  C   UNL     1      -6.091   1.874  -5.972  0.00  0.00    +0.005 A 
ATOM      6  C   UNL     1      -5.223   2.728  -5.326  0.00  0.00    -0.026 A 
ATOM      7  C   UNL     1      -4.835   2.459  -4.018  0.00  0.00    +0.052 A 
ATOM      8  C   UNL     1      -5.338   1.315  -3.370  0.00  0.00    +0.002 A 
ATOM      9  C   UNL     1      -4.924   1.040  -1.992  0.00  0.00    +0.020 A 
ATOM     10  C   UNL     1      -4.069   1.902  -1.389  0.00  0.00    +0.035 A 
ATOM     11  C   UNL     1      -3.598   3.038  -2.082  0.00  0.00    +0.254 A 
ATOM     12  O   UNL     1      -2.834   3.803  -1.519  0.00  0.00    -0.268 OA
ATOM     13  N   UNL     1      -3.969   3.296  -3.348  0.00  0.00    -0.322 N 
ATOM     14  H   UNL     1      -3.569   4.190  -3.850  0.00  0.00    +0.169 HD
ATOM     15  C   UNL     1      -4.694   3.948  -6.036  0.00  0.00    +0.046 C 
ENDBRANCH   1  10
BRANCH   1  16
ATOM     16  N   UNL     1      -2.345   0.934   0.018  0.00  0.00    -0.279 N 
ATOM     17  C   UNL     1      -1.187   1.624   0.017  0.00  0.00    +0.303 C 
ATOM     18  O   UNL     1      -1.204   2.840   0.023  0.00  0.00    -0.253 OA
ATOM     19  N   UNL     1      -0.011   0.966   0.007  0.00  0.00    -0.296 N 
ATOM     20  H   UNL     1       0.004  -0.134   0.006  0.00  0.00    +0.151 HD
BRANCH  19  21
ATOM     21  C   UNL     1       1.248   1.716  -0.001  0.00  0.00    +0.074 C 
ATOM     22  C   UNL     1       1.608   2.092  -1.439  0.00  0.00    +0.022 C 
ATOM     23  C   UNL     1       2.922   2.875  -1.448  0.00  0.00    +0.002 C 
ATOM     24  C   UNL     1       4.035   2.010  -0.853  0.00  0.00    +0.000 C 
ATOM     25  C   UNL     1       3.675   1.633   0.585  0.00  0.00    +0.002 C 
ATOM     26  C   UNL     1       2.361   0.850   0.594  0.00  0.00    +0.022 C 
ENDBRANCH  19  21
BRANCH  16  27
ATOM     27  C   UNL     1      -2.325  -0.531   0.010  0.00  0.00    +0.137 C 
BRANCH  27  28
ATOM     28  C   UNL     1      -2.312  -1.048   1.450  0.00  0.00    +0.175 C 
BRANCH  28  29
ATOM     29  O   UNL     1      -3.535  -0.691   2.096  0.00  0.00    -0.393 OA
ATOM     30  H   UNL     1      -3.708  -0.979   3.144  0.00  0.00    +0.209 HD
ENDBRANCH  28  29
ENDBRANCH  27  28
ENDBRANCH  16  27
ENDBRANCH   1  16
TORSDOF 6
