REMARK  Name = ZINC36612921
REMARK  9 active torsions:
REMARK  status: ('A' for Active; 'I' for Inactive)
REMARK    1  A    between atoms: C_1  and  C_2
REMARK    2  A    between atoms: C_8  and  N_10
REMARK    3  A    between atoms: N_10  and  C_11
REMARK    4  A    between atoms: C_11  and  C_12
REMARK    5  A    between atoms: C_14  and  O_24
REMARK    6  A    between atoms: C_15  and  O_19
REMARK    7  A    between atoms: O_19  and  C_20
REMARK    8  A    between atoms: C_20  and  C_21
REMARK    9  A    between atoms: O_24  and  C_25
REMARK                            x       y       z     vdW  Elec       q    Type
REMARK                         _______ _______ _______ _____ _____    ______ ____
ROOT
ATOM      1  C   UNL     1       4.279  -0.063   2.345  0.00  0.00    -0.047 A 
ATOM      2  C   UNL     1       4.670   0.890   3.268  0.00  0.00    +0.052 A 
ATOM      3  C   UNL     1       5.970   1.370   3.260  0.00  0.00    +0.162 A 
ATOM      4  C   UNL     1       6.879   0.892   2.321  0.00  0.00    +0.164 A 
ATOM      5  C   UNL     1       6.482  -0.062   1.399  0.00  0.00    +0.065 A 
ATOM      6  C   UNL     1       5.184  -0.542   1.415  0.00  0.00    +0.023 A 
ATOM      7 BR   UNL     1       4.646  -1.849   0.160  0.00  0.00    -0.050 Br
ENDROOT
BRANCH   3   8
ATOM      8  O   UNL     1       6.355   2.307   4.167  0.00  0.00    -0.491 OA
ATOM      9  C   UNL     1       5.368   2.752   5.100  0.00  0.00    +0.277 C 
ENDBRANCH   3   8
BRANCH   1  10
ATOM     10  C   UNL     1       2.865  -0.584   2.356  0.00  0.00    -0.045 C 
BRANCH  10  11
ATOM     11  N   UNL     1       2.120  -0.002   1.231  0.00  0.00    +0.384 N 
ATOM     12  H   UNL     1       2.567  -0.259   0.363  0.00  0.00    -0.085 HD
ATOM     13  H   UNL     1       2.109   1.003   1.319  0.00  0.00    -0.085 HD
BRANCH  11  20
ATOM     14  C   UNL     1      -0.019   1.526   0.010  0.00  0.00    +0.006 C 
ATOM     15  C   UNL     1       0.002  -0.004   0.002  0.00  0.00    -0.028 C 
ATOM     16  C   UNL     1      -1.433  -0.534   0.013  0.00  0.00    +0.002 C 
ATOM     17  C   UNL     1      -2.149  -0.040   1.272  0.00  0.00    +0.000 C 
ATOM     18  C   UNL     1      -1.409  -0.547   2.511  0.00  0.00    -0.002 C 
ATOM     19  C   UNL     1       0.026  -0.018   2.500  0.00  0.00    -0.015 C 
ATOM     20  C   UNL     1       0.742  -0.511   1.242  0.00  0.00    -0.069 C 
ENDBRANCH  11  20
ENDBRANCH  10  11
ENDBRANCH   1  10
BRANCH   4  21
ATOM     21  O   UNL     1       8.156   1.361   2.309  0.00  0.00    -0.479 OA
BRANCH  21  22
ATOM     22  C   UNL     1       9.035   0.825   1.318  0.00  0.00    +0.324 C 
BRANCH  22  23
ATOM     23  C   UNL     1      10.395   1.458   1.458  0.00  0.00    +0.248 C 
ATOM     24  O   UNL     1      10.593   2.287   2.322  0.00  0.00    -0.272 OA
ATOM     25  N   UNL     1      11.392   1.104   0.623  0.00  0.00    -0.327 N 
ATOM     26  H   UNL     1      11.234   0.442  -0.067  0.00  0.00    +0.145 HD
ATOM     27  H   UNL     1      12.268   1.512   0.713  0.00  0.00    +0.145 HD
ENDBRANCH  22  23
ENDBRANCH  21  22
ENDBRANCH   4  21
TORSDOF 7
