REMARK  Name = ZINC39336686
REMARK  5 active torsions:
REMARK  status: ('A' for Active; 'I' for Inactive)
REMARK    1  A    between atoms: C_4  and  C_7
REMARK    2  A    between atoms: C_9  and  C_19
REMARK    3  A    between atoms: N_11  and  C_13
REMARK    4  A    between atoms: N_20  and  N_21
REMARK    5  A    between atoms: C_22  and  C_28
REMARK                            x       y       z     vdW  Elec       q    Type
REMARK                         _______ _______ _______ _____ _____    ______ ____
ROOT
ATOM      1  C   UNL     1       4.153  -0.661   0.021  0.00  0.00    +0.136 C 
ATOM      2  C   UNL     1       4.232  -1.183  -1.399  0.00  0.00    +0.010 C 
ATOM      3  C   UNL     1       4.102  -2.518  -1.319  0.00  0.00    +0.100 C 
ATOM      4  N   UNL     1       3.949  -2.929  -0.021  0.00  0.00    -0.242 N 
ATOM      5  N   UNL     1       3.970  -1.871   0.846  0.00  0.00    -0.224 NA
ATOM      6  H   UNL     1       3.114  -1.821   1.377  0.00  0.00    +0.146 HD
ENDROOT
BRANCH   1  10
ATOM      7  C   UNL     1       0.815   1.968   0.461  0.00  0.00    +0.000 A 
ATOM      8  C   UNL     1       2.090   2.486   0.330  0.00  0.00    +0.000 A 
ATOM      9  C   UNL     1       3.170   1.635   0.187  0.00  0.00    +0.005 A 
ATOM     10  C   UNL     1       2.975   0.267   0.177  0.00  0.00    -0.025 A 
ATOM     11  C   UNL     1       1.701  -0.251   0.309  0.00  0.00    +0.005 A 
ATOM     12  C   UNL     1       0.620   0.599   0.450  0.00  0.00    +0.000 A 
ENDBRANCH   1  10
BRANCH   4  13
ATOM     13  C   UNL     1       3.792  -4.261   0.370  0.00  0.00    +0.049 A 
ATOM     14  C   UNL     1       3.637  -4.579   1.713  0.00  0.00    +0.025 A 
ATOM     15  C   UNL     1       3.482  -5.897   2.095  0.00  0.00    +0.002 A 
ATOM     16  C   UNL     1       3.480  -6.899   1.143  0.00  0.00    +0.000 A 
ATOM     17  C   UNL     1       3.635  -6.586  -0.196  0.00  0.00    +0.002 A 
ATOM     18  C   UNL     1       3.784  -5.270  -0.586  0.00  0.00    +0.025 A 
ENDBRANCH   4  13
BRANCH   2  19
ATOM     19  C   UNL     1       4.407  -0.415  -2.578  0.00  0.00    +0.137 C 
ATOM     20  N   UNL     1       4.456  -1.006  -3.739  0.00  0.00    -0.184 NA
BRANCH  20  21
ATOM     21  N   UNL     1       4.529  -0.242  -4.911  0.00  0.00    -0.173 N 
ATOM     22  C   UNL     1       4.703  -0.724  -6.293  0.00  0.00    +0.264 C 
ATOM     23  N   UNL     1       4.707   0.507  -7.098  0.00  0.00    -0.189 NA
ATOM     24  N   UNL     1       4.567   1.465  -6.333  0.00  0.00    -0.219 N 
ATOM     25  C   UNL     1       4.449   1.102  -5.029  0.00  0.00    +0.174 C 
ATOM     26  S   UNL     1       4.234   2.189  -3.724  0.00  0.00    -0.015 S 
ATOM     27  H   UNL     1       4.539   2.387  -6.634  0.00  0.00    +0.176 HD
BRANCH  22  28
ATOM     28  C   UNL     1       6.011  -1.458  -6.437  0.00  0.00    +0.001 A 
ATOM     29  C   UNL     1       6.559  -2.147  -5.366  0.00  0.00    +0.025 A 
ATOM     30  C   UNL     1       7.761  -2.809  -5.535  0.00  0.00    +0.083 A 
ATOM     31  N   UNL     1       8.384  -2.789  -6.697  0.00  0.00    -0.367 N 
ATOM     32  C   UNL     1       7.893  -2.144  -7.736  0.00  0.00    +0.083 A 
ATOM     33  C   UNL     1       6.692  -1.465  -7.644  0.00  0.00    +0.025 A 
ATOM     34  H   UNL     1       9.227  -3.261  -6.788  0.00  0.00    +0.165 HD
ENDBRANCH  22  28
ENDBRANCH  20  21
ENDBRANCH   2  19
TORSDOF 5
