REMARK  Name = ZINC07983139
REMARK  5 active torsions:
REMARK  status: ('A' for Active; 'I' for Inactive)
REMARK    1  A    between atoms: C_3  and  C_24
REMARK    2  A    between atoms: C_6  and  N_7
REMARK    3  A    between atoms: C_8  and  C_10
REMARK    4  A    between atoms: C_10  and  S_11
REMARK    5  A    between atoms: S_11  and  C_12
REMARK                            x       y       z     vdW  Elec       q    Type
REMARK                         _______ _______ _______ _____ _____    ______ ____
ROOT
ATOM      1  N   UNL     1      -1.198  -0.716   0.010  0.00  0.00    -0.285 N 
ATOM      2  C   UNL     1      -1.185  -2.060  -0.099  0.00  0.00    +0.227 C 
ATOM      3  O   UNL     1      -0.130  -2.657  -0.113  0.00  0.00    -0.275 OA
ATOM      4  H   UNL     1      -2.041  -0.245   0.098  0.00  0.00    +0.155 HD
ENDROOT
BRANCH   1  10
ATOM      5  C   UNL     1       0.128   1.158   0.752  0.00  0.00    +0.024 A 
ATOM      6  C   UNL     1       1.310   1.864   0.742  0.00  0.00    +0.022 A 
ATOM      7  C   UNL     1       2.385   1.413  -0.029  0.00  0.00    +0.070 A 
ATOM      8  C   UNL     1       2.255   0.245  -0.788  0.00  0.00    +0.060 A 
ATOM      9  C   UNL     1       1.068  -0.456  -0.773  0.00  0.00    +0.044 A 
ATOM     10  C   UNL     1       0.002  -0.004  -0.004  0.00  0.00    +0.035 A 
ATOM     11 CL   UNL     1       3.586  -0.320  -1.749  0.00  0.00    -0.082 Cl
BRANCH   7  12
ATOM     12  C   UNL     1       3.615   2.145  -0.043  0.00  0.00    +0.101 C 
ATOM     13  N   UNL     1       4.591   2.726  -0.054  0.00  0.00    -0.191 NA
ENDBRANCH   7  12
ENDBRANCH   1  10
BRANCH   2  14
ATOM     14  C   UNL     1      -2.482  -2.820  -0.204  0.00  0.00    +0.173 C 
BRANCH  14  15
ATOM     15  S   UNL     1      -2.134  -4.595  -0.337  0.00  0.00    -0.079 S 
BRANCH  15  16
ATOM     16  C   UNL     1      -3.729  -5.335  -0.450  0.00  0.00    +0.168 A 
ATOM     17  N   UNL     1      -3.966  -6.676  -0.562  0.00  0.00    -0.333 N 
ATOM     18  H   UNL     1      -3.298  -7.378  -0.592  0.00  0.00    +0.168 HD
ATOM     19  C   UNL     1      -5.340  -6.846  -0.623  0.00  0.00    +0.067 A 
ATOM     20  C   UNL     1      -6.167  -7.952  -0.737  0.00  0.00    +0.029 A 
ATOM     21  C   UNL     1      -7.537  -7.787  -0.773  0.00  0.00    +0.022 A 
ATOM     22  C   UNL     1      -8.093  -6.517  -0.694  0.00  0.00    +0.043 A 
ATOM     23  C   UNL     1      -7.286  -5.406  -0.580  0.00  0.00    +0.050 A 
ATOM     24  C   UNL     1      -5.897  -5.559  -0.543  0.00  0.00    +0.091 A 
ATOM     25  N   UNL     1      -4.865  -4.682  -0.434  0.00  0.00    -0.222 NA
ATOM     26 CL   UNL     1      -9.818  -6.328  -0.741  0.00  0.00    -0.083 Cl
ENDBRANCH  15  16
ENDBRANCH  14  15
ENDBRANCH   2  14
TORSDOF 5
