REMARK  Name = ZINC60099812
REMARK  11 active torsions:
REMARK  status: ('A' for Active; 'I' for Inactive)
REMARK    1  A    between atoms: C_1  and  C_2
REMARK    2  A    between atoms: C_5  and  C_27
REMARK    3  A    between atoms: C_6  and  N_8
REMARK    4  A    between atoms: C_9  and  C_11
REMARK    5  A    between atoms: C_11  and  C_13
REMARK    6  A    between atoms: C_11  and  N_14
REMARK    7  A    between atoms: N_14  and  C_15
REMARK    8  A    between atoms: C_18  and  C_26
REMARK    9  A    between atoms: C_19  and  N_21
REMARK   10  A    between atoms: N_21  and  S_22
REMARK   11  A    between atoms: S_22  and  C_25
REMARK                            x       y       z     vdW  Elec       q    Type
REMARK                         _______ _______ _______ _____ _____    ______ ____
ROOT
ATOM      1  C   UNL     1       0.280  -2.900   4.854  0.00  0.00    +0.154 C 
ATOM      2  C   UNL     1       1.543  -3.763   4.810  0.00  0.00    +0.038 C 
ENDROOT
BRANCH   1   4
ATOM      3  N   UNL     1       0.052  -2.797   2.393  0.00  0.00    -0.284 N 
ATOM      4  C   UNL     1       0.150  -2.135   3.562  0.00  0.00    +0.237 C 
ATOM      5  O   UNL     1       0.134  -0.922   3.575  0.00  0.00    -0.273 OA
ATOM      6  H   UNL     1      -0.016  -3.765   2.388  0.00  0.00    +0.155 HD
BRANCH   3  12
ATOM      7  C   UNL     1       1.264   1.227  -0.158  0.00  0.00    +0.044 C 
ATOM      8  C   UNL     1       0.628  -0.137  -0.079  0.00  0.00    -0.049 A 
ATOM      9  C   UNL     1       0.039  -0.690  -1.201  0.00  0.00    +0.004 A 
ATOM     10  C   UNL     1      -0.546  -1.941  -1.133  0.00  0.00    +0.005 A 
ATOM     11  C   UNL     1      -0.543  -2.643   0.057  0.00  0.00    -0.029 A 
ATOM     12  C   UNL     1       0.048  -2.090   1.185  0.00  0.00    +0.037 A 
ATOM     13  C   UNL     1       0.639  -0.835   1.112  0.00  0.00    +0.027 A 
ATOM     14  C   UNL     1      -1.181  -4.006   0.131  0.00  0.00    +0.045 C 
ENDBRANCH   3  12
ENDBRANCH   1   4
BRANCH   1  15
ATOM     15  N   UNL     1       0.370  -1.959   5.972  0.00  0.00    -0.333 N 
ATOM     16  H   UNL     1       0.700  -1.059   5.824  0.00  0.00    +0.147 HD
BRANCH  15  17
ATOM     17  C   UNL     1      -0.020  -2.357   7.253  0.00  0.00    +0.030 A 
ATOM     18  C   UNL     1      -0.487  -3.648   7.468  0.00  0.00    +0.023 A 
ATOM     19  C   UNL     1      -0.874  -4.043   8.734  0.00  0.00    +0.007 A 
ATOM     20  C   UNL     1      -0.796  -3.156   9.791  0.00  0.00    -0.026 A 
ATOM     21  C   UNL     1      -0.330  -1.864   9.583  0.00  0.00    +0.079 A 
ATOM     22  C   UNL     1       0.065  -1.466   8.313  0.00  0.00    +0.049 A 
ATOM     23  C   UNL     1      -1.218  -3.591  11.171  0.00  0.00    +0.046 C 
BRANCH  21  24
ATOM     24  N   UNL     1      -0.253  -0.968  10.652  0.00  0.00    -0.103 NA
BRANCH  24  25
ATOM     25  S   UNL     1       0.303   0.572  10.403  0.00  0.00    +0.059 S 
ATOM     26  O   UNL     1       1.655   0.408   9.998  0.00  0.00    -0.154 OA
ATOM     27  O   UNL     1      -0.648   1.164   9.530  0.00  0.00    -0.154 OA
ATOM     28  C   UNL     1       0.232   1.362  12.034  0.00  0.00    +0.220 C 
ENDBRANCH  24  25
ENDBRANCH  21  24
ENDBRANCH  15  17
ENDBRANCH   1  15
TORSDOF 6
