REMARK  Name = ZINC40804646
REMARK  7 active torsions:
REMARK  status: ('A' for Active; 'I' for Inactive)
REMARK    1  A    between atoms: C_1  and  C_2
REMARK    2  A    between atoms: C_5  and  C_8
REMARK    3  A    between atoms: N_10  and  N_11
REMARK    4  A    between atoms: C_18  and  C_31
REMARK    5  A    between atoms: C_19  and  C_21
REMARK    6  A    between atoms: N_23  and  N_24
REMARK    7  A    between atoms: N_24  and  C_25
REMARK                            x       y       z     vdW  Elec       q    Type
REMARK                         _______ _______ _______ _____ _____    ______ ____
ROOT
ATOM      1  N   UNL     1       0.095  -6.332   1.134  0.00  0.00    -0.184 NA
ATOM      2  C   UNL     1       0.109  -6.987   2.255  0.00  0.00    +0.070 C 
ATOM      3  C   UNL     1       0.100  -6.290   3.607  0.00  0.00    +0.058 C 
ATOM      4  C   UNL     1       1.094  -7.011   4.525  0.00  0.00    +0.014 C 
ATOM      5  C   UNL     1       0.637  -8.447   4.793  0.00  0.00    +0.075 C 
ATOM      6  C   UNL     1       0.378  -9.143   3.481  0.00  0.00    +0.115 A 
ATOM      7  C   UNL     1       0.130  -8.465   2.309  0.00  0.00    +0.042 A 
ATOM      8  C   UNL     1      -0.069  -9.419   1.304  0.00  0.00    +0.009 A 
ATOM      9  C   UNL     1       0.058 -10.640   1.905  0.00  0.00    +0.194 A 
ATOM     10  O   UNL     1       0.334 -10.447   3.218  0.00  0.00    -0.454 OA
ATOM     11  C   UNL     1      -0.364  -9.153  -0.150  0.00  0.00    +0.048 C 
ENDROOT
BRANCH   1  14
ATOM     12  C   UNL     1       0.061  -4.251  -0.021  0.00  0.00    +0.263 C 
ATOM     13  O   UNL     1       0.063  -4.853  -1.078  0.00  0.00    -0.268 OA
ATOM     14  N   UNL     1       0.076  -4.931   1.142  0.00  0.00    -0.203 N 
ATOM     15  H   UNL     1       0.073  -4.451   1.985  0.00  0.00    +0.178 HD
BRANCH  12  20
ATOM     16  C   UNL     1      -0.018   1.503   0.010  0.00  0.00    +0.044 C 
ATOM     17  C   UNL     1       0.002  -0.004   0.002  0.00  0.00    -0.050 A 
ATOM     18  C   UNL     1       0.006  -0.686  -1.202  0.00  0.00    +0.004 A 
ATOM     19  C   UNL     1       0.025  -2.066  -1.216  0.00  0.00    +0.013 A 
ATOM     20  C   UNL     1       0.041  -2.773  -0.013  0.00  0.00    +0.038 A 
ATOM     21  C   UNL     1       0.037  -2.079   1.198  0.00  0.00    +0.013 A 
ATOM     22  C   UNL     1       0.023  -0.699   1.198  0.00  0.00    +0.004 A 
ENDBRANCH  12  20
ENDBRANCH   1  14
BRANCH   9  23
ATOM     23  C   UNL     1      -0.070 -11.941   1.238  0.00  0.00    +0.296 C 
ATOM     24  O   UNL     1      -0.310 -11.993   0.046  0.00  0.00    -0.265 OA
ATOM     25  N   UNL     1       0.078 -13.079   1.946  0.00  0.00    -0.230 N 
ATOM     26  H   UNL     1       0.269 -13.037   2.896  0.00  0.00    +0.173 HD
BRANCH  25  27
ATOM     27  N   UNL     1      -0.044 -14.321   1.310  0.00  0.00    -0.264 N 
ATOM     28  H   UNL     1      -0.235 -14.362   0.359  0.00  0.00    +0.170 HD
BRANCH  27  29
ATOM     29  C   UNL     1       0.109 -15.499   2.043  0.00  0.00    +0.044 A 
ATOM     30  C   UNL     1       0.377 -15.442   3.405  0.00  0.00    +0.024 A 
ATOM     31  C   UNL     1       0.528 -16.609   4.127  0.00  0.00    +0.002 A 
ATOM     32  C   UNL     1       0.413 -17.834   3.496  0.00  0.00    +0.000 A 
ATOM     33  C   UNL     1       0.146 -17.895   2.140  0.00  0.00    +0.002 A 
ATOM     34  C   UNL     1      -0.012 -16.732   1.413  0.00  0.00    +0.024 A 
ENDBRANCH  27  29
ENDBRANCH  25  27
ENDBRANCH   9  23
TORSDOF 5
