REMARK  Name = ZINC66100766
REMARK  6 active torsions:
REMARK  status: ('A' for Active; 'I' for Inactive)
REMARK    1  A    between atoms: C_1  and  C_2
REMARK    2  A    between atoms: C_4  and  S_8
REMARK    3  A    between atoms: N_6  and  C_7
REMARK    4  A    between atoms: S_8  and  N_11
REMARK    5  A    between atoms: N_11  and  C_12
REMARK    6  A    between atoms: C_12  and  C_13
REMARK                            x       y       z     vdW  Elec       q    Type
REMARK                         _______ _______ _______ _____ _____    ______ ____
ROOT
ATOM      1  C   UNL     1      -0.901  -1.976  -5.352  0.00  0.00    -0.016 A 
ATOM      2  C   UNL     1      -0.413  -2.783  -6.372  0.00  0.00    +0.009 A 
ATOM      3  C   UNL     1      -1.077  -2.787  -7.585  0.00  0.00    +0.042 A 
ATOM      4  C   UNL     1      -2.204  -1.988  -7.743  0.00  0.00    +0.099 A 
ATOM      5  N   UNL     1      -2.639  -1.232  -6.746  0.00  0.00    -0.349 N 
ATOM      6  C   UNL     1      -2.029  -1.212  -5.576  0.00  0.00    +0.089 A 
ATOM      7  N   UNL     1      -2.881  -1.982  -8.957  0.00  0.00    -0.312 N 
ATOM      8  C   UNL     1      -2.358  -2.704 -10.128  0.00  0.00    +0.111 C 
ATOM      9  C   UNL     1      -3.350  -3.812 -10.478  0.00  0.00    +0.054 C 
ATOM     10  C   UNL     1      -4.759  -3.281 -10.505  0.00  0.00    -0.041 A 
ATOM     11  C   UNL     1      -5.711  -4.014 -11.203  0.00  0.00    +0.004 A 
ATOM     12  C   UNL     1      -7.022  -3.589 -11.260  0.00  0.00    +0.000 A 
ATOM     13  C   UNL     1      -7.395  -2.424 -10.616  0.00  0.00    +0.000 A 
ATOM     14  C   UNL     1      -6.451  -1.692  -9.925  0.00  0.00    +0.005 A 
ATOM     15  C   UNL     1      -5.130  -2.116  -9.873  0.00  0.00    -0.027 A 
ATOM     16  C   UNL     1      -4.147  -1.261  -9.121  0.00  0.00    +0.141 C 
ATOM     17  H   UNL     1      -3.427  -0.682  -6.878  0.00  0.00    +0.167 HD
ENDROOT
BRANCH   1  18
ATOM     18  C   UNL     1      -0.210  -1.939  -4.014  0.00  0.00    +0.142 C 
BRANCH  18  19
ATOM     19  N   UNL     1      -0.779  -2.970  -3.142  0.00  0.00    -0.184 NA
ATOM     20  H   UNL     1      -1.621  -3.392  -3.375  0.00  0.00    +0.148 HD
BRANCH  19  21
ATOM     21  S   UNL     1       0.015  -3.416  -1.759  0.00  0.00    +0.077 S 
ATOM     22  O   UNL     1       1.366  -3.658  -2.127  0.00  0.00    -0.152 OA
ATOM     23  O   UNL     1      -0.791  -4.401  -1.127  0.00  0.00    -0.152 OA
BRANCH  21  27
ATOM     24  C   UNL     1       0.050   1.543  -0.027  0.00  0.00    +0.086 C 
ATOM     25  C   UNL     1       0.041   0.036  -0.020  0.00  0.00    +0.109 A 
ATOM     26  N   UNL     1       0.032  -0.730  -1.076  0.00  0.00    -0.213 NA
ATOM     27  C   UNL     1       0.027  -2.015  -0.691  0.00  0.00    +0.211 A 
ATOM     28  C   UNL     1       0.033  -2.046   0.655  0.00  0.00    +0.135 A 
ATOM     29  N   UNL     1       0.047  -0.746   1.082  0.00  0.00    -0.336 N 
ATOM     30  C   UNL     1       0.063  -0.287   2.473  0.00  0.00    +0.150 C 
ENDBRANCH  21  27
ENDBRANCH  19  21
ENDBRANCH  18  19
ENDBRANCH   1  18
TORSDOF 4
