REMARK  Name = ZINC67182937
REMARK  3 active torsions:
REMARK  status: ('A' for Active; 'I' for Inactive)
REMARK    1  A    between atoms: C_8  and  N_15
REMARK    2  A    between atoms: C_9  and  N_12
REMARK    3  A    between atoms: N_15  and  C_16
REMARK                            x       y       z     vdW  Elec       q    Type
REMARK                         _______ _______ _______ _____ _____    ______ ____
ROOT
ATOM      1  C   UNL     1       0.222   1.557  -0.048  0.00  0.00    +0.005 A 
ATOM      2  C   UNL     1       1.489   2.159  -0.055  0.00  0.00    +0.018 A 
ATOM      3  C   UNL     1       2.604   1.395  -0.051  0.00  0.00    +0.096 A 
ATOM      4  N   UNL     1       2.517   0.034  -0.040  0.00  0.00    -0.266 N 
ATOM      5  C   UNL     1       1.296  -0.581  -0.032  0.00  0.00    +0.142 A 
ATOM      6  C   UNL     1       0.123   0.199  -0.036  0.00  0.00    +0.047 A 
ATOM      7  N   UNL     1       1.199  -1.908  -0.020  0.00  0.00    -0.212 NA
ATOM      8  C   UNL     1       2.283  -2.679  -0.015  0.00  0.00    +0.157 A 
ATOM      9  C   UNL     1       3.548  -2.094  -0.024  0.00  0.00    +0.230 A 
ATOM     10  C   UNL     1       3.646  -0.705  -0.036  0.00  0.00    +0.291 A 
ATOM     11  O   UNL     1       4.741  -0.162  -0.043  0.00  0.00    -0.265 OA
ENDROOT
BRANCH   9  12
ATOM     12  N   UNL     1       4.766  -2.936  -0.019  0.00  0.00    +0.065 N 
ATOM     13  O   UNL     1       4.671  -4.138  -0.106  0.00  0.00    -0.126 OA
ATOM     14  O   UNL     1       5.856  -2.421   0.073  0.00  0.00    -0.126 OA
ENDBRANCH   9  12
BRANCH   8  15
ATOM     15  N   UNL     1       2.156  -4.055  -0.003  0.00  0.00    -0.320 N 
ATOM     16  H   UNL     1       2.943  -4.616  -0.084  0.00  0.00    +0.148 HD
BRANCH  15  17
ATOM     17  C   UNL     1       0.832  -4.667   0.134  0.00  0.00    +0.104 C 
ATOM     18  C   UNL     1       0.859  -6.034  -0.527  0.00  0.00    +0.038 C 
ATOM     19  C   UNL     1      -0.539  -6.664  -0.435  0.00  0.00    +0.076 C 
ATOM     20  S   UNL     1      -0.798  -7.139   1.300  0.00  0.00    -0.122 S 
ATOM     21  C   UNL     1      -0.242  -5.723   2.196  0.00  0.00    +0.048 A 
ATOM     22  C   UNL     1       0.471  -4.708   1.589  0.00  0.00    -0.011 A 
ATOM     23  C   UNL     1       0.891  -3.630   2.366  0.00  0.00    +0.007 A 
ATOM     24  C   UNL     1       0.599  -3.567   3.711  0.00  0.00    +0.003 A 
ATOM     25  C   UNL     1      -0.122  -4.582   4.313  0.00  0.00    +0.039 A 
ATOM     26  C   UNL     1      -0.542  -5.652   3.558  0.00  0.00    +0.137 A 
ATOM     27  F   UNL     1      -1.245  -6.647   4.142  0.00  0.00    -0.204 F 
ENDBRANCH  15  17
ENDBRANCH   8  15
TORSDOF 3
