REMARK  Name = ZINC02628848
REMARK  8 active torsions:
REMARK  status: ('A' for Active; 'I' for Inactive)
REMARK    1  A    between atoms: C_1  and  C_2
REMARK    2  A    between atoms: C_4  and  C_9
REMARK    3  A    between atoms: C_5  and  C_8
REMARK    4  A    between atoms: N_6  and  C_7
REMARK    5  A    between atoms: C_9  and  C_11
REMARK    6  A    between atoms: C_11  and  S_12
REMARK    7  A    between atoms: S_12  and  C_13
REMARK    8  A    between atoms: C_17  and  N_19
REMARK                            x       y       z     vdW  Elec       q    Type
REMARK                         _______ _______ _______ _____ _____    ______ ____
ROOT
ATOM      1  S   UNL     1      -3.737   6.396   0.073  0.00  0.00    -0.078 S 
ENDROOT
BRANCH   1   2
ATOM      2  C   UNL     1      -5.446   5.965   0.087  0.00  0.00    +0.192 A 
ATOM      3  N   UNL     1      -5.789   4.686   0.077  0.00  0.00    -0.207 NA
ATOM      4  C   UNL     1      -7.070   4.324   0.093  0.00  0.00    +0.122 A 
ATOM      5  C   UNL     1      -8.053   5.309   0.108  0.00  0.00    +0.086 A 
ATOM      6  C   UNL     1      -7.654   6.643   0.112  0.00  0.00    +0.122 A 
ATOM      7  N   UNL     1      -6.354   6.930   0.101  0.00  0.00    -0.207 NA
ATOM      8  N   UNL     1      -7.421   2.982   0.089  0.00  0.00    -0.343 N 
ATOM      9  H   UNL     1      -8.356   2.726   0.097  0.00  0.00    +0.144 HD
ATOM     10  H   UNL     1      -6.731   2.301   0.079  0.00  0.00    +0.144 HD
BRANCH   6  11
ATOM     11  N   UNL     1      -8.597   7.658   0.127  0.00  0.00    -0.343 N 
ATOM     12  H   UNL     1      -8.312   8.585   0.130  0.00  0.00    +0.144 HD
ATOM     13  H   UNL     1      -9.543   7.441   0.135  0.00  0.00    +0.144 HD
ENDBRANCH   6  11
ENDBRANCH   1   2
BRANCH   1  14
ATOM     14  C   UNL     1      -2.998   4.744   0.057  0.00  0.00    +0.157 C 
BRANCH  14  15
ATOM     15  C   UNL     1      -1.496   4.866   0.043  0.00  0.00    +0.175 C 
ATOM     16  O   UNL     1      -0.976   5.963   0.044  0.00  0.00    -0.291 OA
BRANCH  15  20
ATOM     17  C   UNL     1       0.002  -0.004   0.002  0.00  0.00    +0.063 C 
ATOM     18  C   UNL     1      -0.018   1.503   0.010  0.00  0.00    +0.016 A 
ATOM     19  C   UNL     1      -1.124   2.266   0.019  0.00  0.00    +0.034 A 
ATOM     20  C   UNL     1      -0.663   3.661   0.028  0.00  0.00    +0.039 A 
ATOM     21  C   UNL     1       0.718   3.603   0.015  0.00  0.00    +0.026 A 
ATOM     22  N   UNL     1       1.083   2.309   0.004  0.00  0.00    -0.351 N 
ATOM     23  C   UNL     1       2.468   1.831  -0.012  0.00  0.00    +0.149 C 
ATOM     24  C   UNL     1       1.653   4.785   0.012  0.00  0.00    +0.064 C 
ENDBRANCH  15  20
ENDBRANCH  14  15
ENDBRANCH   1  14
TORSDOF 5
