REMARK  Name = ZINC14152018
REMARK  8 active torsions:
REMARK  status: ('A' for Active; 'I' for Inactive)
REMARK    1  A    between atoms: C_1  and  C_2
REMARK    2  A    between atoms: C_4  and  C_24
REMARK    3  A    between atoms: C_8  and  N_23
REMARK    4  A    between atoms: C_9  and  C_11
REMARK    5  A    between atoms: C_11  and  O_13
REMARK    6  A    between atoms: O_13  and  C_14
REMARK    7  A    between atoms: C_14  and  C_15
REMARK    8  A    between atoms: C_19  and  C_21
REMARK                            x       y       z     vdW  Elec       q    Type
REMARK                         _______ _______ _______ _____ _____    ______ ____
ROOT
ATOM      1  C   UNL     1      -1.696   1.372   0.766  0.00  0.00    +0.044 C 
ATOM      2  C   UNL     1      -1.521  -0.123   0.688  0.00  0.00    -0.037 A 
ATOM      3  C   UNL     1      -2.240  -0.864  -0.221  0.00  0.00    +0.025 A 
ATOM      4  C   UNL     1      -2.078  -2.239  -0.290  0.00  0.00    +0.014 A 
ATOM      5  N   UNL     1      -1.231  -2.853   0.513  0.00  0.00    -0.353 N 
ATOM      6  C   UNL     1      -0.520  -2.189   1.399  0.00  0.00    +0.088 A 
ATOM      7  C   UNL     1      -0.609  -0.786   1.546  0.00  0.00    +0.030 A 
ATOM      8  C   UNL     1       0.254  -0.216   2.569  0.00  0.00    +0.055 A 
ATOM      9  C   UNL     1       1.067  -1.067   3.287  0.00  0.00    +0.119 A 
ATOM     10  S   UNL     1       0.683  -2.671   2.612  0.00  0.00    -0.062 S 
ATOM     11  C   UNL     1      -2.873  -3.037  -1.291  0.00  0.00    +0.063 C 
ATOM     12  H   UNL     1      -1.131  -3.816   0.450  0.00  0.00    +0.166 HD
ENDROOT
BRANCH   8  13
ATOM     13  N   UNL     1       0.258   1.149   2.816  0.00  0.00    -0.356 N 
ATOM     14  H   UNL     1       0.106   1.774   2.090  0.00  0.00    +0.142 HD
ATOM     15  H   UNL     1       0.414   1.479   3.715  0.00  0.00    +0.142 HD
ENDBRANCH   8  13
BRANCH   9  16
ATOM     16  C   UNL     1       1.979  -0.745   4.319  0.00  0.00    +0.348 C 
ATOM     17  O   UNL     1       2.116   0.412   4.672  0.00  0.00    -0.244 OA
BRANCH  16  18
ATOM     18  O   UNL     1       2.697  -1.721   4.914  0.00  0.00    -0.456 OA
BRANCH  18  19
ATOM     19  C   UNL     1       3.599  -1.324   5.949  0.00  0.00    +0.268 C 
BRANCH  19  20
ATOM     20  C   UNL     1       4.308  -2.539   6.491  0.00  0.00    -0.009 A 
ATOM     21  C   UNL     1       3.760  -3.243   7.548  0.00  0.00    +0.007 A 
ATOM     22  C   UNL     1       4.404  -4.360   8.052  0.00  0.00    +0.002 A 
ATOM     23  C   UNL     1       5.597  -4.778   7.502  0.00  0.00    +0.019 A 
ATOM     24  C   UNL     1       6.156  -4.073   6.434  0.00  0.00    +0.052 A 
ATOM     25  C   UNL     1       5.498  -2.950   5.927  0.00  0.00    +0.025 A 
BRANCH  24  26
ATOM     26  C   UNL     1       7.394  -4.501   5.858  0.00  0.00    +0.099 C 
ATOM     27  N   UNL     1       8.377  -4.841   5.401  0.00  0.00    -0.191 NA
ENDBRANCH  24  26
ENDBRANCH  19  20
ENDBRANCH  18  19
ENDBRANCH  16  18
ENDBRANCH   9  16
TORSDOF 6
