REMARK  Name = ZINC36031948
REMARK  15 active torsions:
REMARK  status: ('A' for Active; 'I' for Inactive)
REMARK    1  A    between atoms: C_1  and  C_2
REMARK    2  A    between atoms: C_2  and  O_3
REMARK    3  A    between atoms: O_3  and  C_4
REMARK    4  A    between atoms: C_6  and  C_14
REMARK    5  A    between atoms: C_8  and  N_11
REMARK    6  A    between atoms: C_9  and  O_10
REMARK    7  A    between atoms: C_17  and  C_28
REMARK    8  A    between atoms: C_23  and  N_27
REMARK    9  A    between atoms: C_24  and  C_25
REMARK   10  A    between atoms: C_30  and  O_38
REMARK   11  A    between atoms: C_31  and  O_36
REMARK   12  A    between atoms: C_32  and  O_34
REMARK   13  A    between atoms: O_34  and  C_35
REMARK   14  A    between atoms: O_36  and  C_37
REMARK   15  A    between atoms: O_38  and  C_39
REMARK                            x       y       z     vdW  Elec       q    Type
REMARK                         _______ _______ _______ _____ _____    ______ ____
ROOT
ATOM      1  C   UNL     1      -0.550  -5.100  -0.234  0.00  0.00    +0.102 C 
ATOM      2  C   UNL     1      -1.829  -5.813   0.123  0.00  0.00    +0.054 A 
ATOM      3  C   UNL     1      -3.116  -5.293   0.286  0.00  0.00    +0.101 A 
ATOM      4  N   UNL     1      -3.921  -6.291   0.600  0.00  0.00    -0.171 NA
ATOM      5  N   UNL     1      -3.164  -7.472   0.643  0.00  0.00    -0.246 N 
ATOM      6  H   UNL     1      -3.501  -8.358   0.849  0.00  0.00    +0.192 HD
ATOM      7  C   UNL     1      -1.885  -7.158   0.348  0.00  0.00    +0.223 A 
ATOM      8  O   UNL     1      -0.795  -7.961   0.265  0.00  0.00    -0.423 OA
ATOM      9  C   UNL     1       0.312  -7.453  -0.315  0.00  0.00    +0.200 C 
ATOM     10  C   UNL     1       0.489  -6.138  -0.576  0.00  0.00    +0.098 C 
ENDROOT
BRANCH   1  13
ATOM     11  C   UNL     1       0.495  -2.154   1.887  0.00  0.00    +0.164 A 
ATOM     12  C   UNL     1       0.065  -2.910   0.809  0.00  0.00    +0.054 A 
ATOM     13  C   UNL     1      -0.082  -4.279   0.940  0.00  0.00    -0.029 A 
ATOM     14  C   UNL     1       0.201  -4.896   2.144  0.00  0.00    +0.041 A 
ATOM     15  C   UNL     1       0.631  -4.147   3.224  0.00  0.00    +0.171 A 
ATOM     16  C   UNL     1       0.785  -2.776   3.098  0.00  0.00    +0.189 A 
BRANCH  15  17
ATOM     17  N   UNL     1       0.932  -4.811   4.512  0.00  0.00    +0.060 N 
ATOM     18  O   UNL     1       0.802  -6.008   4.620  0.00  0.00    -0.126 OA
ATOM     19  O   UNL     1       1.308  -4.156   5.456  0.00  0.00    -0.126 OA
ENDBRANCH  15  17
BRANCH  16  20
ATOM     20  O   UNL     1       1.214  -2.038   4.158  0.00  0.00    -0.502 OA
ATOM     21  H   UNL     1       0.500  -1.710   4.723  0.00  0.00    +0.292 HD
ENDBRANCH  16  20
BRANCH  11  22
ATOM     22  O   UNL     1       0.640  -0.808   1.761  0.00  0.00    -0.488 OA
BRANCH  22  24
ATOM     23  C   UNL     1       0.350   1.299   0.613  0.00  0.00    +0.048 C 
ATOM     24  C   UNL     1       0.211  -0.222   0.530  0.00  0.00    +0.226 C 
ENDBRANCH  22  24
ENDBRANCH  11  22
ENDBRANCH   1  13
BRANCH   3  25
ATOM     25  C   UNL     1      -3.509  -3.870   0.134  0.00  0.00    +0.010 A 
ATOM     26  C   UNL     1      -3.000  -3.115  -0.921  0.00  0.00    +0.059 A 
ATOM     27  C   UNL     1      -3.367  -1.788  -1.062  0.00  0.00    +0.166 A 
ATOM     28  C   UNL     1      -4.242  -1.207  -0.150  0.00  0.00    +0.204 A 
ATOM     29  C   UNL     1      -4.749  -1.958   0.904  0.00  0.00    +0.166 A 
ATOM     30  C   UNL     1      -4.389  -3.288   1.043  0.00  0.00    +0.059 A 
BRANCH  29  31
ATOM     31  O   UNL     1      -5.604  -1.389   1.795  0.00  0.00    -0.491 OA
ATOM     32  C   UNL     1      -6.087  -2.219   2.853  0.00  0.00    +0.277 C 
ENDBRANCH  29  31
BRANCH  28  33
ATOM     33  O   UNL     1      -4.601   0.098  -0.289  0.00  0.00    -0.488 OA
ATOM     34  C   UNL     1      -5.759   0.371  -1.080  0.00  0.00    +0.277 C 
ENDBRANCH  28  33
BRANCH  27  35
ATOM     35  O   UNL     1      -2.871  -1.051  -2.092  0.00  0.00    -0.491 OA
ATOM     36  C   UNL     1      -2.046  -1.733  -3.039  0.00  0.00    +0.277 C 
ENDBRANCH  27  35
ENDBRANCH   3  25
BRANCH   9  37
ATOM     37  N   UNL     1       1.318  -8.322  -0.659  0.00  0.00    -0.328 N 
ATOM     38  H   UNL     1       1.220  -9.271  -0.484  0.00  0.00    +0.145 HD
ATOM     39  H   UNL     1       2.126  -7.986  -1.077  0.00  0.00    +0.145 HD
ENDBRANCH   9  37
BRANCH  10  40
ATOM     40  C   UNL     1       1.707  -5.716  -1.200  0.00  0.00    +0.101 C 
ATOM     41  N   UNL     1       2.673  -5.380  -1.695  0.00  0.00    -0.191 NA
ENDBRANCH  10  40
TORSDOF 11
