REMARK  Name = ZINC00630978
REMARK  5 active torsions:
REMARK  status: ('A' for Active; 'I' for Inactive)
REMARK    1  A    between atoms: C_1  and  N_2
REMARK    2  A    between atoms: N_2  and  C_3
REMARK    3  A    between atoms: N_2  and  C_4
REMARK    4  A    between atoms: C_7  and  C_10
REMARK    5  A    between atoms: C_15  and  C_20
REMARK                            x       y       z     vdW  Elec       q    Type
REMARK                         _______ _______ _______ _____ _____    ______ ____
ROOT
ATOM      1  C   UNL     1       3.813   1.944   0.397  0.00  0.00    +0.136 C 
ATOM      2  C   UNL     1       2.403   1.404   0.376  0.00  0.00    +0.036 C 
ATOM      3  C   UNL     1       1.996   0.243   0.914  0.00  0.00    +0.017 C 
ATOM      4  C   UNL     1       0.534  -0.168   0.841  0.00  0.00    +0.059 C 
ATOM      5  C   UNL     1      -0.089   0.354  -0.453  0.00  0.00    +0.032 C 
ATOM      6  C   UNL     1       0.033   1.883  -0.445  0.00  0.00    +0.088 C 
ATOM      7  C   UNL     1       1.478   2.246  -0.286  0.00  0.00    +0.163 C 
ATOM      8  O   UNL     1       1.870   3.302  -0.743  0.00  0.00    -0.292 OA
ATOM      9  N   UNL     1       2.802  -0.643   1.551  0.00  0.00    -0.316 N 
ATOM     10  C   UNL     1       3.740  -0.306   2.521  0.00  0.00    +0.052 A 
ATOM     11  C   UNL     1       3.663  -0.779   3.819  0.00  0.00    +0.025 A 
ATOM     12  C   UNL     1       4.687  -0.495   4.707  0.00  0.00    +0.002 A 
ATOM     13  C   UNL     1       5.775   0.255   4.300  0.00  0.00    +0.002 A 
ATOM     14  C   UNL     1       5.843   0.747   3.008  0.00  0.00    +0.025 A 
ATOM     15  C   UNL     1       4.812   0.479   2.122  0.00  0.00    +0.049 A 
ATOM     16  N   UNL     1       4.814   0.990   0.825  0.00  0.00    -0.331 N 
ATOM     17  H   UNL     1       2.718  -1.580   1.313  0.00  0.00    +0.152 HD
ATOM     18  H   UNL     1       5.497   0.702   0.200  0.00  0.00    +0.147 HD
ENDROOT
BRANCH   1  22
ATOM     19  C   UNL     1       3.937   5.312   3.025  0.00  0.00    +0.029 A 
ATOM     20  C   UNL     1       4.198   5.476   1.671  0.00  0.00    +0.023 A 
ATOM     21  C   UNL     1       4.157   4.386   0.824  0.00  0.00    +0.007 A 
ATOM     22  C   UNL     1       3.857   3.132   1.323  0.00  0.00    -0.023 A 
ATOM     23  C   UNL     1       3.591   2.966   2.670  0.00  0.00    +0.007 A 
ATOM     24  C   UNL     1       3.635   4.051   3.523  0.00  0.00    +0.023 A 
BRANCH  19  26
ATOM     25  C   UNL     1       4.296   7.742   3.357  0.00  0.00    +0.129 C 
ATOM     26  N   UNL     1       3.978   6.413   3.884  0.00  0.00    -0.336 N 
ATOM     27  C   UNL     1       3.702   6.238   5.312  0.00  0.00    +0.129 C 
ENDBRANCH  19  26
ENDBRANCH   1  22
BRANCH   5  28
ATOM     28  C   UNL     1      -1.541  -0.043  -0.518  0.00  0.00    -0.044 A 
ATOM     29  C   UNL     1      -2.410   0.347   0.484  0.00  0.00    +0.004 A 
ATOM     30  C   UNL     1      -3.743  -0.013   0.422  0.00  0.00    +0.000 A 
ATOM     31  C   UNL     1      -4.206  -0.770  -0.638  0.00  0.00    +0.000 A 
ATOM     32  C   UNL     1      -3.336  -1.164  -1.637  0.00  0.00    +0.000 A 
ATOM     33  C   UNL     1      -2.004  -0.800  -1.578  0.00  0.00    +0.004 A 
ENDBRANCH   5  28
TORSDOF 3
