REMARK  Name = ZINC65138275
REMARK  4 active torsions:
REMARK  status: ('A' for Active; 'I' for Inactive)
REMARK    1  A    between atoms: C_1  and  C_2
REMARK    2  A    between atoms: C_2  and  N_3
REMARK    3  A    between atoms: C_7  and  C_13
REMARK    4  A    between atoms: C_16  and  C_19
REMARK                            x       y       z     vdW  Elec       q    Type
REMARK                         _______ _______ _______ _____ _____    ______ ____
ROOT
ATOM      1  C   UNL     1       6.021  -1.759   2.503  0.00  0.00    +0.168 C 
ATOM      2  N   UNL     1       6.338  -2.184   3.682  0.00  0.00    -0.067 NA
ATOM      3  O   UNL     1       7.727  -2.437   3.773  0.00  0.00    -0.367 OA
ATOM      4  C   UNL     1       8.285  -2.119   2.488  0.00  0.00    +0.322 C 
ATOM      5  N   UNL     1       7.133  -1.683   1.683  0.00  0.00    -0.287 N 
ATOM      6  H   UNL     1       7.150  -1.397   0.757  0.00  0.00    +0.151 HD
ENDROOT
BRANCH   1  11
ATOM      7  N   UNL     1       0.711  -0.489   1.189  0.00  0.00    -0.274 N 
ATOM      8  C   UNL     1       2.077  -0.740   1.286  0.00  0.00    +0.090 A 
ATOM      9  C   UNL     1       3.129  -0.631   0.388  0.00  0.00    +0.030 A 
ATOM     10  C   UNL     1       4.408  -0.960   0.780  0.00  0.00    +0.013 A 
ATOM     11  C   UNL     1       4.647  -1.405   2.083  0.00  0.00    +0.022 A 
ATOM     12  C   UNL     1       3.591  -1.517   2.986  0.00  0.00    +0.060 A 
ATOM     13  C   UNL     1       2.309  -1.184   2.590  0.00  0.00    +0.158 A 
ATOM     14  O   UNL     1       1.114  -1.191   3.231  0.00  0.00    -0.407 OA
ATOM     15  C   UNL     1       0.160  -0.768   2.387  0.00  0.00    +0.421 A 
ATOM     16  O   UNL     1      -1.020  -0.657   2.660  0.00  0.00    -0.223 OA
BRANCH   7  18
ATOM     17  C   UNL     1      -0.019   1.526   0.010  0.00  0.00    +0.027 C 
ATOM     18  C   UNL     1       0.002  -0.004   0.002  0.00  0.00    +0.125 C 
ENDBRANCH   7  18
ENDBRANCH   1  11
BRANCH   4  19
ATOM     19  C   UNL     1       8.931  -3.358   1.865  0.00  0.00    +0.217 C 
ATOM     20  C   UNL     1      10.018  -3.900   2.758  0.00  0.00    -0.015 C 
ATOM     21  C   UNL     1       9.613  -5.133   3.083  0.00  0.00    +0.065 C 
ATOM     22  C   UNL     1      10.414  -6.053   3.978  0.00  0.00    +0.057 C 
ATOM     23  C   UNL     1      11.852  -5.530   4.052  0.00  0.00    +0.006 C 
ATOM     24  C   UNL     1      11.842  -4.040   4.404  0.00  0.00    +0.005 C 
ATOM     25  C   UNL     1      11.288  -3.244   3.213  0.00  0.00    +0.035 C 
ATOM     26  N   UNL     1       8.423  -5.398   2.499  0.00  0.00    -0.158 NA
ATOM     27  N   UNL     1       7.969  -4.476   1.806  0.00  0.00    -0.174 NA
ENDBRANCH   4  19
TORSDOF 3
