REMARK  Name = ZINC26492891
REMARK  7 active torsions:
REMARK  status: ('A' for Active; 'I' for Inactive)
REMARK    1  A    between atoms: C_1  and  C_2
REMARK    2  A    between atoms: C_2  and  C_4
REMARK    3  A    between atoms: C_2  and  S_18
REMARK    4  A    between atoms: N_6  and  C_7
REMARK    5  A    between atoms: S_18  and  C_19
REMARK    6  A    between atoms: C_22  and  C_26
REMARK    7  A    between atoms: C_23  and  N_25
REMARK                            x       y       z     vdW  Elec       q    Type
REMARK                         _______ _______ _______ _____ _____    ______ ____
ROOT
ATOM      1  C   UNL     1       2.336   5.693   1.318  0.00  0.00    +0.029 C 
ATOM      2  C   UNL     1       1.712   6.207   0.019  0.00  0.00    +0.137 C 
ENDROOT
BRANCH   2   3
ATOM      3  C   UNL     1       1.947   7.691  -0.099  0.00  0.00    +0.227 C 
ATOM      4  O   UNL     1       1.099   8.471   0.278  0.00  0.00    -0.275 OA
ATOM      5  N   UNL     1       3.100   8.150  -0.624  0.00  0.00    -0.307 N 
ATOM      6  H   UNL     1       3.870   7.442  -0.965  0.00  0.00    +0.149 HD
BRANCH   5   7
ATOM      7  C   UNL     1       3.329   9.593  -0.738  0.00  0.00    +0.110 C 
ATOM      8  C   UNL     1       4.332   9.861  -1.863  0.00  0.00    +0.068 C 
ATOM      9  C   UNL     1       4.777  11.326  -1.771  0.00  0.00    +0.231 C 
ATOM     10  O   UNL     1       5.484  11.506  -0.543  0.00  0.00    -0.492 OA
ATOM     11  C   UNL     1       4.908  11.039   0.595  0.00  0.00    +0.125 A 
ATOM     12  C   UNL     1       3.874  10.119   0.565  0.00  0.00    +0.014 A 
ATOM     13  C   UNL     1       3.321   9.667   1.750  0.00  0.00    +0.009 A 
ATOM     14  C   UNL     1       3.793  10.130   2.963  0.00  0.00    +0.001 A 
ATOM     15  C   UNL     1       4.824  11.051   2.996  0.00  0.00    +0.004 A 
ATOM     16  C   UNL     1       5.381  11.505   1.817  0.00  0.00    +0.046 A 
ENDBRANCH   5   7
ENDBRANCH   2   3
BRANCH   2  17
ATOM     17  S   UNL     1      -0.068   5.878   0.034  0.00  0.00    -0.074 S 
BRANCH  17  18
ATOM     18  C   UNL     1      -0.054   4.116   0.025  0.00  0.00    +0.191 A 
ATOM     19  N   UNL     1       1.113   3.482   0.010  0.00  0.00    -0.229 NA
ATOM     20  C   UNL     1       1.173   2.163   0.003  0.00  0.00    +0.136 A 
ATOM     21  C   UNL     1      -0.017   1.428   0.010  0.00  0.00    +0.109 A 
ATOM     22  C   UNL     1      -1.238   2.137   0.019  0.00  0.00    +0.138 A 
ATOM     23  N   UNL     1      -1.208   3.464   0.032  0.00  0.00    -0.206 NA
BRANCH  22  24
ATOM     24  N   UNL     1      -2.442   1.462   0.021  0.00  0.00    -0.342 N 
ATOM     25  H   UNL     1      -3.388   2.024   0.029  0.00  0.00    +0.144 HD
ATOM     26  H   UNL     1      -2.456   0.362   0.015  0.00  0.00    +0.144 HD
ENDBRANCH  22  24
BRANCH  21  27
ATOM     27  C   UNL     1       0.002  -0.004   0.002  0.00  0.00    +0.104 C 
ATOM     28  N   UNL     1       0.018  -1.140  -0.004  0.00  0.00    -0.191 NA
ENDBRANCH  21  27
ENDBRANCH  17  18
ENDBRANCH   2  17
TORSDOF 6
