REMARK  Name = ZINC22862458
REMARK  4 active torsions:
REMARK  status: ('A' for Active; 'I' for Inactive)
REMARK    1  A    between atoms: C_1  and  C_2
REMARK    2  A    between atoms: C_5  and  C_23
REMARK    3  A    between atoms: C_6  and  N_8
REMARK    4  A    between atoms: C_9  and  C_11
REMARK                            x       y       z     vdW  Elec       q    Type
REMARK                         _______ _______ _______ _____ _____    ______ ____
ROOT
ATOM      1  C   UNL     1      -2.449   1.102   0.140  0.00  0.00    +0.039 A 
ATOM      2  C   UNL     1      -2.557  -0.288   0.241  0.00  0.00    +0.014 A 
ATOM      3  C   UNL     1      -3.796  -0.878   0.361  0.00  0.00    +0.017 A 
ATOM      4  C   UNL     1      -4.940  -0.089   0.370  0.00  0.00    +0.029 A 
ATOM      5  C   UNL     1      -4.840   1.300   0.264  0.00  0.00    +0.048 A 
ATOM      6  C   UNL     1      -3.600   1.896   0.149  0.00  0.00    +0.037 A 
ATOM      7  N   UNL     1      -6.008   2.078   0.280  0.00  0.00    -0.285 N 
ATOM      8  C   UNL     1      -6.920   1.909   1.244  0.00  0.00    +0.218 C 
ATOM      9  O   UNL     1      -8.004   2.445   1.139  0.00  0.00    -0.275 OA
ATOM     10  C   UNL     1      -6.629   1.069   2.453  0.00  0.00    +0.107 C 
ATOM     11  C   UNL     1      -7.048  -0.390   2.207  0.00  0.00    +0.083 C 
ATOM     12  S   UNL     1      -6.536  -0.827   0.512  0.00  0.00    -0.123 S 
ATOM     13  H   UNL     1      -6.177   2.832  -0.503  0.00  0.00    +0.155 HD
ENDROOT
BRANCH   1  15
ATOM     14  N   UNL     1      -0.011   0.966   0.007  0.00  0.00    -0.281 N 
ATOM     15  C   UNL     1      -1.121   1.731   0.017  0.00  0.00    +0.248 C 
ATOM     16  O   UNL     1      -1.026   2.940  -0.076  0.00  0.00    -0.270 OA
ATOM     17  H   UNL     1      -0.099  -0.131   0.021  0.00  0.00    +0.155 HD
BRANCH  14  23
ATOM     18  C   UNL     1       2.904   4.623  -1.507  0.00  0.00    +0.044 C 
ATOM     19  C   UNL     1       2.693   3.340  -0.746  0.00  0.00    -0.049 A 
ATOM     20  C   UNL     1       3.750   2.753  -0.074  0.00  0.00    +0.004 A 
ATOM     21  C   UNL     1       3.562   1.575   0.624  0.00  0.00    +0.005 A 
ATOM     22  C   UNL     1       2.314   0.983   0.658  0.00  0.00    -0.029 A 
ATOM     23  C   UNL     1       1.252   1.566  -0.020  0.00  0.00    +0.037 A 
ATOM     24  C   UNL     1       1.445   2.749  -0.721  0.00  0.00    +0.027 A 
ATOM     25  C   UNL     1       2.108  -0.297   1.425  0.00  0.00    +0.045 C 
ENDBRANCH  14  23
ENDBRANCH   1  15
TORSDOF 2
