REMARK  Name = ZINC04899127
REMARK  8 active torsions:
REMARK  status: ('A' for Active; 'I' for Inactive)
REMARK    1  A    between atoms: C_1  and  O_2
REMARK    2  A    between atoms: O_2  and  C_3
REMARK    3  A    between atoms: C_6  and  C_9
REMARK    4  A    between atoms: C_9  and  C_11
REMARK    5  A    between atoms: C_13  and  C_25
REMARK    6  A    between atoms: C_19  and  C_20
REMARK    7  A    between atoms: C_19  and  O_24
REMARK    8  A    between atoms: C_28  and  O_31
REMARK                            x       y       z     vdW  Elec       q    Type
REMARK                         _______ _______ _______ _____ _____    ______ ____
ROOT
ATOM      1  C   UNL     1      -4.965  -4.551  -0.385  0.00  0.00    +0.144 C 
ATOM      2  C   UNL     1      -6.373  -4.743  -0.958  0.00  0.00    +0.120 C 
ATOM      3  N   UNL     1      -7.316  -3.913  -0.205  0.00  0.00    -0.292 N 
ATOM      4  C   UNL     1      -7.101  -3.607   1.083  0.00  0.00    +0.302 C 
ATOM      5  O   UNL     1      -7.921  -2.923   1.665  0.00  0.00    -0.253 OA
ATOM      6  N   UNL     1      -6.019  -4.026   1.755  0.00  0.00    -0.264 N 
ATOM      7  C   UNL     1      -4.997  -4.864   1.115  0.00  0.00    +0.243 C 
ATOM      8  H   UNL     1      -8.111  -3.577  -0.647  0.00  0.00    +0.151 HD
ATOM      9  H   UNL     1      -5.907  -3.770   2.684  0.00  0.00    +0.153 HD
ENDROOT
BRANCH   2  10
ATOM     10  C   UNL     1      -6.387  -4.335  -2.408  0.00  0.00    -0.026 A 
ATOM     11  C   UNL     1      -6.562  -3.006  -2.749  0.00  0.00    +0.009 A 
ATOM     12  C   UNL     1      -6.575  -2.629  -4.078  0.00  0.00    +0.046 A 
ATOM     13  C   UNL     1      -6.413  -3.585  -5.071  0.00  0.00    +0.117 A 
ATOM     14  C   UNL     1      -6.237  -4.917  -4.726  0.00  0.00    +0.046 A 
ATOM     15  C   UNL     1      -6.220  -5.288  -3.395  0.00  0.00    +0.009 A 
BRANCH  13  16
ATOM     16  O   UNL     1      -6.426  -3.216  -6.379  0.00  0.00    -0.507 OA
ATOM     17  H   UNL     1      -5.555  -2.988  -6.732  0.00  0.00    +0.292 HD
ENDBRANCH  13  16
ENDBRANCH   2  10
BRANCH   7  18
ATOM     18  C   UNL     1      -3.627  -4.570   1.728  0.00  0.00    +0.436 C 
ATOM     19  F   UNL     1      -3.371  -3.196   1.661  0.00  0.00    -0.166 F 
ATOM     20  F   UNL     1      -3.617  -4.981   3.066  0.00  0.00    -0.166 F 
ATOM     21  F   UNL     1      -2.640  -5.264   1.020  0.00  0.00    -0.166 F 
ENDBRANCH   7  18
BRANCH   1  22
ATOM     22  C   UNL     1      -4.524  -3.126  -0.594  0.00  0.00    +0.173 C 
ATOM     23  O   UNL     1      -5.112  -2.221  -0.041  0.00  0.00    -0.292 OA
BRANCH  22  27
ATOM     24  C   UNL     1      -1.227  -2.279  -3.115  0.00  0.00    +0.120 A 
ATOM     25  C   UNL     1      -1.972  -1.236  -2.574  0.00  0.00    +0.046 A 
ATOM     26  C   UNL     1      -3.040  -1.505  -1.757  0.00  0.00    +0.015 A 
ATOM     27  C   UNL     1      -3.381  -2.832  -1.469  0.00  0.00    +0.018 A 
ATOM     28  C   UNL     1      -2.628  -3.878  -2.016  0.00  0.00    +0.015 A 
ATOM     29  C   UNL     1      -1.565  -3.599  -2.836  0.00  0.00    +0.046 A 
BRANCH  24  31
ATOM     30  C   UNL     1       0.121  -0.630  -4.168  0.00  0.00    +0.277 C 
ATOM     31  O   UNL     1      -0.171  -2.007  -3.922  0.00  0.00    -0.495 OA
ENDBRANCH  24  31
ENDBRANCH  22  27
ENDBRANCH   1  22
BRANCH   7  32
ATOM     32  O   UNL     1      -5.323  -6.243   1.308  0.00  0.00    -0.364 OA
ATOM     33  H   UNL     1      -5.361  -6.511   2.236  0.00  0.00    +0.212 HD
ENDBRANCH   7  32
TORSDOF 7
