REMARK  Name = ZINC09668071
REMARK  0 active torsions:
REMARK  status: ('A' for Active; 'I' for Inactive)
REMARK                            x       y       z     vdW  Elec       q    Type
REMARK                         _______ _______ _______ _____ _____    ______ ____
ROOT
ATOM      1  C   UNL     1      -0.016   1.359   0.009  0.00  0.00    +0.002 A 
ATOM      2  C   UNL     1       1.168   2.089   0.002  0.00  0.00    +0.002 A 
ATOM      3  C   UNL     1       2.377   1.459  -0.015  0.00  0.00    +0.030 A 
ATOM      4  C   UNL     1       2.433   0.057  -0.026  0.00  0.00    +0.091 A 
ATOM      5  C   UNL     1       1.228  -0.686  -0.013  0.00  0.00    +0.091 A 
ATOM      6  C   UNL     1       0.002  -0.004   0.002  0.00  0.00    +0.030 A 
ATOM      7  N   UNL     1       1.272  -2.026  -0.014  0.00  0.00    -0.228 NA
ATOM      8  C   UNL     1       2.434  -2.655  -0.032  0.00  0.00    +0.157 A 
ATOM      9  C   UNL     1       3.635  -1.907  -0.062  0.00  0.00    +0.143 A 
ATOM     10  N   UNL     1       3.608  -0.589  -0.050  0.00  0.00    -0.235 NA
ATOM     11  S   UNL     1       5.183  -2.748  -0.124  0.00  0.00    -0.058 S 
ATOM     12  C   UNL     1       4.748  -4.385  -0.606  0.00  0.00    +0.119 A 
ATOM     13  C   UNL     1       3.460  -4.821  -0.506  0.00  0.00    +0.123 A 
ATOM     14  N   UNL     1       3.175  -6.107  -0.905  0.00  0.00    -0.315 N 
ATOM     15  C   UNL     1       4.156  -6.917  -1.381  0.00  0.00    +0.195 A 
ATOM     16  N   UNL     1       5.402  -6.504  -1.476  0.00  0.00    -0.176 NA
ATOM     17  C   UNL     1       5.740  -5.260  -1.104  0.00  0.00    +0.290 A 
ATOM     18  O   UNL     1       6.901  -4.885  -1.195  0.00  0.00    -0.264 OA
ATOM     19  N   UNL     1       3.842  -8.193  -1.770  0.00  0.00    -0.329 N 
ATOM     20  N   UNL     1       2.449  -4.035  -0.021  0.00  0.00    -0.283 N 
ATOM     21  H   UNL     1       2.927  -8.509  -1.704  0.00  0.00    +0.145 HD
ATOM     22  H   UNL     1       4.534  -8.781  -2.112  0.00  0.00    +0.145 HD
ATOM     23  H   UNL     1       1.680  -4.485   0.363  0.00  0.00    +0.155 HD
ATOM     24  H   UNL     1       2.265  -6.438  -0.845  0.00  0.00    +0.170 HD
ENDROOT
TORSDOF 0
