REMARK  Name = ZINC01235331
REMARK  3 active torsions:
REMARK  status: ('A' for Active; 'I' for Inactive)
REMARK    1  A    between atoms: C_4  and  C_7
REMARK    2  A    between atoms: C_19  and  C_21
REMARK    3  A    between atoms: C_22  and  C_23
REMARK                            x       y       z     vdW  Elec       q    Type
REMARK                         _______ _______ _______ _____ _____    ______ ____
ROOT
ATOM      1  C   UNL     1       3.711  -0.707  -0.038  0.00  0.00    +0.140 C 
ATOM      2  C   UNL     1       4.018  -1.187  -1.461  0.00  0.00    +0.127 C 
ATOM      3  C   UNL     1       3.202  -2.403  -1.801  0.00  0.00    +0.241 C 
ATOM      4  O   UNL     1       2.831  -2.563  -2.949  0.00  0.00    -0.274 OA
ATOM      5  N   UNL     1       2.875  -3.309  -0.887  0.00  0.00    -0.148 NA
ATOM      6  C   UNL     1       3.224  -3.098   0.382  0.00  0.00    +0.222 C 
ATOM      7  N   UNL     1       3.632  -1.884   0.831  0.00  0.00    -0.184 N 
ATOM      8  N   UNL     1       3.926  -2.010   2.185  0.00  0.00    -0.143 NA
ATOM      9  C   UNL     1       3.682  -3.242   2.539  0.00  0.00    +0.229 C 
ATOM     10  N   UNL     1       3.230  -3.940   1.438  0.00  0.00    -0.149 NA
ATOM     11  N   UNL     1       3.849  -3.765   3.815  0.00  0.00    -0.252 N 
ATOM     12  C   UNL     1       3.561  -5.059   4.056  0.00  0.00    +0.243 C 
ATOM     13  O   UNL     1       3.153  -5.771   3.156  0.00  0.00    -0.270 OA
ATOM     14  H   UNL     1       4.174  -3.199   4.532  0.00  0.00    +0.158 HD
ENDROOT
BRANCH   1  18
ATOM     15  C   UNL     1      -0.017   1.378   0.010  0.00  0.00    +0.000 A 
ATOM     16  C   UNL     1       1.171   2.086   0.002  0.00  0.00    +0.000 A 
ATOM     17  C   UNL     1       2.377   1.411  -0.013  0.00  0.00    +0.005 A 
ATOM     18  C   UNL     1       2.396   0.029  -0.020  0.00  0.00    -0.025 A 
ATOM     19  C   UNL     1       1.208  -0.679  -0.012  0.00  0.00    +0.005 A 
ATOM     20  C   UNL     1       0.002  -0.004   0.002  0.00  0.00    +0.000 A 
ENDBRANCH   1  18
BRANCH  12  21
ATOM     21  C   UNL     1       3.732  -5.592   5.356  0.00  0.00    +0.071 C 
ATOM     22  C   UNL     1       3.442  -6.894   5.599  0.00  0.00    +0.051 C 
BRANCH  22  23
ATOM     23  C   UNL     1       3.612  -7.427   6.899  0.00  0.00    +0.128 A 
ATOM     24  C   UNL     1       3.363  -8.728   7.284  0.00  0.00    +0.049 A 
ATOM     25  C   UNL     1       3.669  -8.806   8.651  0.00  0.00    +0.042 A 
ATOM     26  C   UNL     1       4.084  -7.579   9.039  0.00  0.00    +0.195 A 
ATOM     27  O   UNL     1       4.054  -6.755   7.983  0.00  0.00    -0.464 OA
ENDBRANCH  22  23
ENDBRANCH  12  21
TORSDOF 3
