REMARK  Name = ZINC51999769
REMARK  6 active torsions:
REMARK  status: ('A' for Active; 'I' for Inactive)
REMARK    1  A    between atoms: C_1  and  C_2
REMARK    2  A    between atoms: C_3  and  N_18
REMARK    3  A    between atoms: C_4  and  N_8
REMARK    4  A    between atoms: N_5  and  C_7
REMARK    5  A    between atoms: N_8  and  C_9
REMARK    6  A    between atoms: C_15  and  O_17
REMARK                            x       y       z     vdW  Elec       q    Type
REMARK                         _______ _______ _______ _____ _____    ______ ____
ROOT
ATOM      1  C   UNL     1       0.685   1.084   1.020  0.00  0.00    +0.069 C 
ATOM      2  C   UNL     1       0.165  -0.203   0.435  0.00  0.00    +0.082 A 
ATOM      3  C   UNL     1       0.847  -1.025  -0.469  0.00  0.00    +0.087 A 
ATOM      4  C   UNL     1       0.042  -2.089  -0.755  0.00  0.00    +0.138 A 
ATOM      5  N   UNL     1      -1.109  -1.931  -0.047  0.00  0.00    -0.252 N 
ATOM      6  N   UNL     1      -1.000  -0.745   0.691  0.00  0.00    -0.173 NA
ATOM      7  C   UNL     1      -2.257  -2.841  -0.052  0.00  0.00    +0.174 C 
ENDROOT
BRANCH   3   8
ATOM      8  N   UNL     1       2.139  -0.794  -0.994  0.00  0.00    -0.354 N 
ATOM      9  H   UNL     1       2.636  -0.004  -0.729  0.00  0.00    +0.142 HD
ATOM     10  H   UNL     1       2.529  -1.426  -1.619  0.00  0.00    +0.142 HD
ENDBRANCH   3   8
BRANCH   4  11
ATOM     11  N   UNL     1       0.344  -3.146  -1.617  0.00  0.00    -0.322 N 
ATOM     12  H   UNL     1       0.412  -2.989  -2.572  0.00  0.00    +0.148 HD
BRANCH  11  13
ATOM     13  C   UNL     1       0.556  -4.492  -1.079  0.00  0.00    +0.100 C 
ATOM     14  C   UNL     1       2.017  -4.645  -0.649  0.00  0.00    +0.025 C 
ATOM     15  C   UNL     1       2.239  -6.050  -0.087  0.00  0.00    +0.002 C 
ATOM     16  C   UNL     1       1.913  -7.087  -1.164  0.00  0.00    +0.003 C 
ATOM     17  C   UNL     1       0.452  -6.934  -1.594  0.00  0.00    +0.033 C 
ATOM     18  C   UNL     1       0.230  -5.529  -2.156  0.00  0.00    +0.135 C 
BRANCH  18  19
ATOM     19  O   UNL     1      -1.134  -5.386  -2.557  0.00  0.00    -0.390 OA
ATOM     20  H   UNL     1      -1.411  -6.013  -3.239  0.00  0.00    +0.210 HD
ENDBRANCH  18  19
ENDBRANCH  11  13
ENDBRANCH   4  11
TORSDOF 4
