REMARK  Name = ZINC52565400
REMARK  9 active torsions:
REMARK  status: ('A' for Active; 'I' for Inactive)
REMARK    1  A    between atoms: C_5  and  O_7
REMARK    2  A    between atoms: O_7  and  C_8
REMARK    3  A    between atoms: C_8  and  C_9
REMARK    4  A    between atoms: C_10  and  C_26
REMARK    5  A    between atoms: C_11  and  C_17
REMARK    6  A    between atoms: C_26  and  O_28
REMARK    7  A    between atoms: O_28  and  C_29
REMARK    8  A    between atoms: C_29  and  C_30
REMARK    9  A    between atoms: C_34  and  C_36
REMARK                            x       y       z     vdW  Elec       q    Type
REMARK                         _______ _______ _______ _____ _____    ______ ____
ROOT
ATOM      1  C   UNL     1       0.031  -4.233  -0.075  0.00  0.00    +0.061 C 
ATOM      2  C   UNL     1      -0.103  -4.921   1.079  0.00  0.00    +0.081 C 
ATOM      3  C   UNL     1       0.313  -6.378   1.084  0.00  0.00    +0.142 C 
ATOM      4  N   UNL     1       0.834  -6.927  -0.179  0.00  0.00    -0.288 N 
ATOM      5  C   UNL     1       0.908  -6.113  -1.250  0.00  0.00    +0.304 C 
ATOM      6  O   UNL     1       1.337  -6.557  -2.298  0.00  0.00    -0.252 OA
ATOM      7  N   UNL     1       0.520  -4.832  -1.200  0.00  0.00    -0.269 N 
ATOM      8  H   UNL     1       1.117  -7.853  -0.239  0.00  0.00    +0.151 HD
ATOM      9  H   UNL     1       0.595  -4.299  -2.007  0.00  0.00    +0.156 HD
ENDROOT
BRANCH   3  10
ATOM     10  C   UNL     1       1.375  -6.554   2.139  0.00  0.00    -0.017 C 
ATOM     11  C   UNL     1       1.322  -7.365   3.218  0.00  0.00    +0.004 A 
ATOM     12  C   UNL     1       0.317  -8.299   3.741  0.00  0.00    +0.030 A 
ATOM     13  C   UNL     1       0.591  -8.973   4.881  0.00  0.00    +0.111 A 
ATOM     14  N   UNL     1       1.726  -8.835   5.557  0.00  0.00    -0.261 NA
ATOM     15  C   UNL     1       2.701  -8.043   5.208  0.00  0.00    +0.136 A 
ATOM     16  C   UNL     1       2.580  -7.229   3.991  0.00  0.00    +0.061 A 
ATOM     17  N   UNL     1       3.376  -6.370   3.413  0.00  0.00    -0.379 N 
ATOM     18  C   UNL     1       2.720  -5.864   2.201  0.00  0.00    +0.147 C 
ATOM     19  H   UNL     1       4.256  -6.113   3.730  0.00  0.00    +0.160 HD
ENDBRANCH   3  10
BRANCH   2  20
ATOM     20  C   UNL     1      -0.615  -4.303   2.244  0.00  0.00    +0.339 C 
ATOM     21  O   UNL     1      -1.771  -4.492   2.575  0.00  0.00    -0.245 OA
BRANCH  20  22
ATOM     22  O   UNL     1       0.178  -3.505   2.988  0.00  0.00    -0.457 OA
BRANCH  22  23
ATOM     23  C   UNL     1      -0.405  -2.913   4.152  0.00  0.00    +0.268 C 
BRANCH  23  24
ATOM     24  C   UNL     1       0.624  -2.062   4.851  0.00  0.00    -0.009 A 
ATOM     25  C   UNL     1       1.439  -2.620   5.819  0.00  0.00    +0.007 A 
ATOM     26  C   UNL     1       2.386  -1.845   6.466  0.00  0.00    +0.002 A 
ATOM     27  C   UNL     1       2.522  -0.509   6.148  0.00  0.00    +0.019 A 
ATOM     28  C   UNL     1       1.703   0.060   5.172  0.00  0.00    +0.052 A 
ATOM     29  C   UNL     1       0.753  -0.729   4.520  0.00  0.00    +0.025 A 
BRANCH  28  30
ATOM     30  C   UNL     1       1.839   1.446   4.837  0.00  0.00    +0.099 C 
ATOM     31  N   UNL     1       1.947   2.545   4.572  0.00  0.00    -0.191 NA
ENDBRANCH  28  30
ENDBRANCH  23  24
ENDBRANCH  22  23
ENDBRANCH  20  22
ENDBRANCH   2  20
BRANCH   1  32
ATOM     32  C   UNL     1      -0.372  -2.781  -0.123  0.00  0.00    +0.280 C 
BRANCH  32  33
ATOM     33  O   UNL     1       0.783  -1.975  -0.361  0.00  0.00    -0.485 OA
BRANCH  33  38
ATOM     34  C   UNL     1      -0.870   1.266  -0.355  0.00  0.00    +0.004 A 
ATOM     35  C   UNL     1       0.205   2.105  -0.583  0.00  0.00    +0.002 A 
ATOM     36  C   UNL     1       1.474   1.579  -0.737  0.00  0.00    +0.023 A 
ATOM     37  C   UNL     1       1.671   0.213  -0.663  0.00  0.00    +0.083 A 
ATOM     38  C   UNL     1       0.593  -0.631  -0.434  0.00  0.00    +0.139 A 
ATOM     39  C   UNL     1      -0.679  -0.100  -0.281  0.00  0.00    +0.047 A 
ATOM     40 CL   UNL     1       3.265  -0.447  -0.857  0.00  0.00    -0.080 Cl
ENDBRANCH  33  38
ENDBRANCH  32  33
ENDBRANCH   1  32
TORSDOF 9
