REMARK  Name = ZINC00251946
REMARK  6 active torsions:
REMARK  status: ('A' for Active; 'I' for Inactive)
REMARK    1  A    between atoms: N_9  and  C_10
REMARK    2  A    between atoms: C_10  and  C_11
REMARK    3  A    between atoms: N_13  and  N_14
REMARK    4  A    between atoms: C_15  and  C_16
REMARK    5  A    between atoms: C_19  and  O_23
REMARK    6  A    between atoms: C_21  and  O_22
REMARK                            x       y       z     vdW  Elec       q    Type
REMARK                         _______ _______ _______ _____ _____    ______ ____
ROOT
ATOM      1  C   UNL     1      -4.183   3.729  -1.361  0.00  0.00    +0.254 C 
ATOM      2  O   UNL     1      -3.415   3.871  -2.289  0.00  0.00    -0.272 OA
ATOM      3  N   UNL     1      -5.489   3.497  -1.596  0.00  0.00    -0.205 N 
ATOM      4  H   UNL     1      -6.103   3.383  -0.853  0.00  0.00    +0.177 HD
ENDROOT
BRANCH   3   5
ATOM      5  N   UNL     1      -5.962   3.421  -2.913  0.00  0.00    -0.188 NA
ATOM      6  C   UNL     1      -7.220   3.199  -3.139  0.00  0.00    +0.142 C 
BRANCH   6   7
ATOM      7  C   UNL     1      -7.717   3.119  -4.524  0.00  0.00    +0.036 A 
ATOM      8  C   UNL     1      -9.071   2.879  -4.771  0.00  0.00    +0.016 A 
ATOM      9  C   UNL     1      -9.531   2.805  -6.067  0.00  0.00    +0.046 A 
ATOM     10  C   UNL     1      -8.653   2.970  -7.132  0.00  0.00    +0.120 A 
ATOM     11  C   UNL     1      -7.306   3.208  -6.897  0.00  0.00    +0.091 A 
ATOM     12  C   UNL     1      -6.833   3.289  -5.599  0.00  0.00    +0.129 A 
BRANCH  12  13
ATOM     13  O   UNL     1      -5.516   3.527  -5.368  0.00  0.00    -0.506 OA
ATOM     14  H   UNL     1      -4.976   2.728  -5.308  0.00  0.00    +0.292 HD
ENDBRANCH  12  13
BRANCH  10  15
ATOM     15  O   UNL     1      -9.114   2.897  -8.407  0.00  0.00    -0.507 OA
ATOM     16  H   UNL     1      -9.403   3.745  -8.770  0.00  0.00    +0.292 HD
ENDBRANCH  10  15
ENDBRANCH   6   7
ENDBRANCH   3   5
BRANCH   1  17
ATOM     17  C   UNL     1      -3.675   3.810   0.056  0.00  0.00    +0.243 C 
BRANCH  17  26
ATOM     18  C   UNL     1       1.184   1.781   0.000  0.00  0.00    +0.002 A 
ATOM     19  C   UNL     1      -0.013   1.076   0.008  0.00  0.00    +0.002 A 
ATOM     20  C   UNL     1      -1.209   1.737   0.017  0.00  0.00    +0.029 A 
ATOM     21  C   UNL     1      -1.230   3.127   0.030  0.00  0.00    +0.090 A 
ATOM     22  C   UNL     1      -0.022   3.847   0.022  0.00  0.00    +0.113 A 
ATOM     23  C   UNL     1       1.191   3.145   0.007  0.00  0.00    +0.032 A 
ATOM     24  N   UNL     1      -0.328   5.160   0.032  0.00  0.00    -0.129 NA
ATOM     25  N   UNL     1      -1.604   5.321   0.044  0.00  0.00    -0.064 NA
ATOM     26  N   UNL     1      -2.233   4.067   0.044  0.00  0.00    -0.235 N 
ENDBRANCH  17  26
ENDBRANCH   1  17
TORSDOF 6
