REMARK  Name = ZINC04805538
REMARK  9 active torsions:
REMARK  status: ('A' for Active; 'I' for Inactive)
REMARK    1  A    between atoms: C_1  and  C_2
REMARK    2  A    between atoms: C_2  and  C_3
REMARK    3  A    between atoms: C_3  and  C_5
REMARK    4  A    between atoms: C_3  and  N_6
REMARK    5  A    between atoms: C_7  and  C_9
REMARK    6  A    between atoms: C_12  and  C_14
REMARK    7  A    between atoms: C_14  and  S_15
REMARK    8  A    between atoms: S_15  and  C_16
REMARK    9  A    between atoms: C_19  and  C_25
REMARK                            x       y       z     vdW  Elec       q    Type
REMARK                         _______ _______ _______ _____ _____    ______ ____
ROOT
ATOM      1  C   UNL     1       1.244   2.094   0.001  0.00  0.00    +0.189 A 
ATOM      2  C   UNL     1       1.368   3.454   0.002  0.00  0.00    +0.055 A 
ATOM      3  C   UNL     1       2.743   3.734  -0.005  0.00  0.00    +0.046 A 
ATOM      4  C   UNL     1       3.390   2.547  -0.017  0.00  0.00    +0.116 A 
ATOM      5  O   UNL     1       2.483   1.562  -0.014  0.00  0.00    -0.454 OA
ENDROOT
BRANCH   1   7
ATOM      6  N   UNL     1       0.002  -0.004   0.002  0.00  0.00    -0.306 N 
ATOM      7  C   UNL     1      -0.016   1.344   0.009  0.00  0.00    +0.280 C 
ATOM      8  O   UNL     1      -1.078   1.938   0.018  0.00  0.00    -0.267 OA
ATOM      9  H   UNL     1       0.849  -0.478  -0.009  0.00  0.00    +0.149 HD
BRANCH   6  10
ATOM     10  C   UNL     1      -1.256  -0.754   0.010  0.00  0.00    +0.070 C 
ATOM     11  C   UNL     1      -1.773  -0.899  -1.423  0.00  0.00    +0.028 C 
BRANCH  10  13
ATOM     12  C   UNL     1      -0.624  -2.000   2.081  0.00  0.00    +0.005 C 
ATOM     13  C   UNL     1      -1.020  -2.141   0.610  0.00  0.00    +0.018 C 
ENDBRANCH  10  13
ENDBRANCH   6  10
ENDBRANCH   1   7
BRANCH   4  14
ATOM     14  C   UNL     1       4.886   2.364  -0.033  0.00  0.00    +0.153 C 
BRANCH  14  15
ATOM     15  S   UNL     1       5.502   2.280   1.667  0.00  0.00    -0.059 S 
BRANCH  15  16
ATOM     16  C   UNL     1       7.224   2.070   1.359  0.00  0.00    +0.258 A 
ATOM     17  N   UNL     1       8.143   1.958   2.284  0.00  0.00    -0.203 NA
ATOM     18  C   UNL     1       9.354   1.807   1.680  0.00  0.00    +0.113 A 
ATOM     19  C   UNL     1      10.655   1.644   2.157  0.00  0.00    -0.021 A 
ATOM     20  C   UNL     1      11.699   1.520   1.266  0.00  0.00    +0.005 A 
ATOM     21  C   UNL     1      11.464   1.557  -0.100  0.00  0.00    +0.004 A 
ATOM     22  C   UNL     1      10.181   1.716  -0.585  0.00  0.00    +0.048 A 
ATOM     23  C   UNL     1       9.120   1.842   0.297  0.00  0.00    +0.156 A 
ATOM     24  O   UNL     1       7.787   2.007   0.139  0.00  0.00    -0.431 OA
ATOM     25  C   UNL     1      10.918   1.605   3.640  0.00  0.00    +0.046 C 
ENDBRANCH  15  16
ENDBRANCH  14  15
ENDBRANCH   4  14
TORSDOF 6
