REMARK  Name = ZINC39539241
REMARK  9 active torsions:
REMARK  status: ('A' for Active; 'I' for Inactive)
REMARK    1  A    between atoms: C_1  and  C_2
REMARK    2  A    between atoms: C_2  and  N_3
REMARK    3  A    between atoms: N_14  and  N_15
REMARK    4  A    between atoms: C_16  and  C_18
REMARK    5  A    between atoms: C_18  and  N_19
REMARK    6  A    between atoms: C_20  and  C_22
REMARK    7  A    between atoms: C_22  and  C_23
REMARK    8  A    between atoms: C_22  and  C_24
REMARK    9  A    between atoms: C_22  and  C_25
REMARK                            x       y       z     vdW  Elec       q    Type
REMARK                         _______ _______ _______ _____ _____    ______ ____
ROOT
ATOM      1  N   UNL     1       0.711  -0.489   1.189  0.00  0.00    -0.280 N 
ATOM      2  C   UNL     1       2.048  -0.689   1.137  0.00  0.00    +0.263 A 
ATOM      3  O   UNL     1       2.679  -0.473   0.119  0.00  0.00    -0.267 OA
ATOM      4  C   UNL     1       2.710  -1.177   2.355  0.00  0.00    +0.065 A 
ATOM      5  C   UNL     1       4.083  -1.413   2.403  0.00  0.00    +0.015 A 
ATOM      6  C   UNL     1       4.648  -1.867   3.563  0.00  0.00    +0.001 A 
ATOM      7  C   UNL     1       3.869  -2.093   4.691  0.00  0.00    +0.002 A 
ATOM      8  C   UNL     1       2.521  -1.869   4.671  0.00  0.00    +0.028 A 
ATOM      9  C   UNL     1       1.914  -1.406   3.500  0.00  0.00    +0.080 A 
ATOM     10  N   UNL     1       0.583  -1.170   3.436  0.00  0.00    -0.214 NA
ATOM     11  C   UNL     1       0.018  -0.731   2.339  0.00  0.00    +0.216 A 
ATOM     12  N   UNL     1      -1.336  -0.507   2.346  0.00  0.00    -0.234 N 
ATOM     13  H   UNL     1      -1.779  -0.185   1.545  0.00  0.00    +0.173 HD
ENDROOT
BRANCH  12  14
ATOM     14  N   UNL     1      -2.080  -0.744   3.509  0.00  0.00    -0.233 N 
ATOM     15  C   UNL     1      -3.410  -0.525   3.515  0.00  0.00    +0.246 C 
ATOM     16  O   UNL     1      -3.963  -0.123   2.514  0.00  0.00    -0.273 OA
ATOM     17  H   UNL     1      -1.638  -1.066   4.310  0.00  0.00    +0.173 HD
BRANCH  15  18
ATOM     18  C   UNL     1      -4.209  -0.780   4.767  0.00  0.00    +0.201 C 
BRANCH  18  19
ATOM     19  N   UNL     1      -5.619  -0.468   4.518  0.00  0.00    -0.306 N 
ATOM     20  C   UNL     1      -6.527  -0.622   5.502  0.00  0.00    +0.219 C 
ATOM     21  O   UNL     1      -6.178  -1.019   6.593  0.00  0.00    -0.275 OA
ATOM     22  H   UNL     1      -5.899  -0.151   3.645  0.00  0.00    +0.149 HD
BRANCH  20  23
ATOM     23  C   UNL     1      -7.977  -0.301   5.245  0.00  0.00    +0.039 C 
ATOM     24  C   UNL     1      -8.789  -0.560   6.516  0.00  0.00    +0.020 C 
ATOM     25  C   UNL     1      -8.111   1.169   4.845  0.00  0.00    +0.020 C 
ATOM     26  C   UNL     1      -8.503  -1.188   4.114  0.00  0.00    +0.020 C 
ENDBRANCH  20  23
ENDBRANCH  18  19
ENDBRANCH  15  18
ENDBRANCH  12  14
BRANCH   1  28
ATOM     27  C   UNL     1      -0.019   1.526   0.010  0.00  0.00    +0.027 C 
ATOM     28  C   UNL     1       0.002  -0.004   0.002  0.00  0.00    +0.125 C 
ENDBRANCH   1  28
TORSDOF 5
