REMARK  Name = ZINC14244290
REMARK  11 active torsions:
REMARK  status: ('A' for Active; 'I' for Inactive)
REMARK    1  A    between atoms: C_1  and  C_2
REMARK    2  A    between atoms: C_2  and  C_3
REMARK    3  A    between atoms: C_6  and  C_9
REMARK    4  A    between atoms: C_9  and  C_11
REMARK    5  A    between atoms: C_9  and  N_59
REMARK    6  A    between atoms: C_11  and  C_12
REMARK    7  A    between atoms: C_11  and  C_13
REMARK    8  A    between atoms: C_14  and  C_15
REMARK    9  A    between atoms: C_14  and  N_59
REMARK   10  A    between atoms: N_17  and  C_18
REMARK   11  A    between atoms: C_27  and  C_29
REMARK                            x       y       z     vdW  Elec       q    Type
REMARK                         _______ _______ _______ _____ _____    ______ ____
ROOT
ATOM      1  C   UNL     1       0.268   3.133   4.119  0.00  0.00    +0.016 C 
ENDROOT
BRANCH   1   2
ATOM      2  C   UNL     1      -0.474   3.788   5.256  0.00  0.00    +0.200 C 
ATOM      3  O   UNL     1      -1.210   3.129   5.959  0.00  0.00    -0.278 OA
ATOM      4  N   UNL     1      -0.318   5.106   5.491  0.00  0.00    -0.287 N 
ATOM      5  H   UNL     1       0.214   5.647   4.887  0.00  0.00    +0.155 HD
BRANCH   4   6
ATOM      6  C   UNL     1      -0.925   5.694   6.608  0.00  0.00    +0.034 A 
ATOM      7  C   UNL     1      -0.281   6.715   7.295  0.00  0.00    +0.025 A 
ATOM      8  C   UNL     1      -0.878   7.294   8.393  0.00  0.00    +0.025 A 
ATOM      9  C   UNL     1      -2.134   6.860   8.825  0.00  0.00    +0.040 A 
ATOM     10  C   UNL     1      -2.770   5.841   8.135  0.00  0.00    -0.023 A 
ATOM     11  C   UNL     1      -2.175   5.264   7.030  0.00  0.00    +0.028 A 
ATOM     12  C   UNL     1      -4.099   5.565   8.802  0.00  0.00    +0.056 C 
ATOM     13  C   UNL     1      -4.159   6.557   9.975  0.00  0.00    +0.118 C 
ATOM     14  N   UNL     1      -2.903   7.310   9.905  0.00  0.00    -0.271 N 
ATOM     15  C   UNL     1      -2.542   8.291  10.756  0.00  0.00    +0.217 C 
ATOM     16  O   UNL     1      -1.526   8.923  10.557  0.00  0.00    -0.276 OA
ATOM     17  C   UNL     1      -3.401   8.603  11.954  0.00  0.00    +0.109 C 
ENDBRANCH   4   6
ENDBRANCH   1   2
BRANCH   1  18
ATOM     18  N   UNL     1      -0.076   1.699   4.080  0.00  0.00    +0.389 N 
ATOM     19  H   UNL     1       0.257   1.248   4.941  0.00  0.00    -0.084 HD
ATOM     20  H   UNL     1      -1.095   1.597   4.012  0.00  0.00    -0.084 HD
BRANCH  18  21
ATOM     21  C   UNL     1       0.558   1.052   2.916  0.00  0.00    -0.038 C 
BRANCH  21  25
ATOM     22  C   UNL     1       4.471  -0.287   3.984  0.00  0.00    -0.048 A 
ATOM     23  C   UNL     1       4.248   0.276   2.741  0.00  0.00    +0.004 A 
ATOM     24  C   UNL     1       2.982   0.709   2.395  0.00  0.00    +0.002 A 
ATOM     25  C   UNL     1       1.938   0.580   3.292  0.00  0.00    -0.061 A 
ATOM     26  C   UNL     1       2.162   0.022   4.537  0.00  0.00    +0.002 A 
ATOM     27  C   UNL     1       3.427  -0.416   4.881  0.00  0.00    +0.004 A 
BRANCH  22  29
ATOM     28  C   UNL     1       6.618   0.387   5.025  0.00  0.00    +0.009 C 
ATOM     29  C   UNL     1       5.852  -0.759   4.361  0.00  0.00    +0.032 C 
ENDBRANCH  22  29
ENDBRANCH  21  25
BRANCH  21  30
ATOM     30  C   UNL     1      -0.291  -0.145   2.483  0.00  0.00    -0.027 C 
ATOM     31  C   UNL     1       0.408  -0.878   1.337  0.00  0.00    +0.006 C 
ATOM     32  C   UNL     1      -1.663   0.345   2.014  0.00  0.00    +0.006 C 
ENDBRANCH  21  30
ENDBRANCH  18  21
ENDBRANCH   1  18
TORSDOF 7
