REMARK  Name = ZINC39469835
REMARK  7 active torsions:
REMARK  status: ('A' for Active; 'I' for Inactive)
REMARK    1  A    between atoms: C_1  and  C_2
REMARK    2  A    between atoms: C_2  and  C_3
REMARK    3  A    between atoms: C_2  and  S_4
REMARK    4  A    between atoms: S_4  and  P_7
REMARK    5  A    between atoms: C_15  and  O_32
REMARK    6  A    between atoms: C_16  and  C_25
REMARK    7  A    between atoms: C_30  and  O_31
REMARK                            x       y       z     vdW  Elec       q    Type
REMARK                         _______ _______ _______ _____ _____    ______ ____
ROOT
ATOM      1  P   UNL     1      -2.582   0.150  -1.747  0.00  0.00    +0.419 P 
ATOM      2  O   UNL     1      -2.597   1.629  -1.699  0.00  0.00    -0.246 OA
ATOM      3  N   UNL     1      -4.114  -0.436  -1.928  0.00  0.00    -0.161 NA
ATOM      4  N   UNL     1      -4.258  -1.716  -2.423  0.00  0.00    -0.228 NA
ATOM      5  C   UNL     1      -5.702  -1.973  -2.559  0.00  0.00    +0.111 C 
ATOM      6  C   UNL     1      -5.962  -3.386  -3.061  0.00  0.00    +0.038 C 
ATOM      7  C   UNL     1      -5.431  -4.402  -2.086  0.00  0.00    +0.024 C 
ATOM      8  C   UNL     1      -5.161  -5.639  -2.507  0.00  0.00    +0.121 C 
ATOM      9  C   UNL     1      -5.401  -5.991  -3.926  0.00  0.00    +0.023 C 
ATOM     10  C   UNL     1      -5.459  -5.018  -4.849  0.00  0.00    -0.011 C 
ATOM     11  C   UNL     1      -5.269  -3.586  -4.412  0.00  0.00    +0.022 C 
ATOM     12  C   UNL     1      -3.776  -3.301  -4.241  0.00  0.00    +0.031 C 
ATOM     13  C   UNL     1      -3.556  -1.884  -3.699  0.00  0.00    +0.100 C 
ATOM     14  C   UNL     1      -2.043  -1.693  -3.538  0.00  0.00    +0.191 C 
ATOM     15  O   UNL     1      -1.771  -0.364  -3.060  0.00  0.00    -0.299 OA
ATOM     16  H   UNL     1      -4.888   0.101  -1.695  0.00  0.00    +0.152 HD
ENDROOT
BRANCH   9  17
ATOM     17  C   UNL     1      -5.577  -7.409  -4.324  0.00  0.00    +0.027 A 
ATOM     18  C   UNL     1      -4.547  -8.085  -4.975  0.00  0.00    +0.012 A 
ATOM     19  C   UNL     1      -4.716  -9.405  -5.344  0.00  0.00    +0.001 A 
ATOM     20  C   UNL     1      -5.904 -10.059  -5.070  0.00  0.00    +0.004 A 
ATOM     21  C   UNL     1      -6.932  -9.397  -4.425  0.00  0.00    +0.046 A 
ATOM     22  C   UNL     1      -6.774  -8.074  -4.043  0.00  0.00    +0.125 A 
BRANCH  22  23
ATOM     23  O   UNL     1      -7.781  -7.424  -3.404  0.00  0.00    -0.506 OA
ATOM     24  H   UNL     1      -8.400  -6.976  -3.997  0.00  0.00    +0.292 HD
ENDBRANCH  22  23
ENDBRANCH   9  17
BRANCH   1  25
ATOM     25  S   UNL     1      -1.700  -0.632   0.015  0.00  0.00    +0.058 S 
ATOM     26  O   UNL     1      -1.703  -2.041  -0.172  0.00  0.00    -0.164 OA
ATOM     27  O   UNL     1      -2.431  -0.041   1.080  0.00  0.00    -0.164 OA
BRANCH  25  29
ATOM     28  C   UNL     1      -0.019   1.526   0.010  0.00  0.00    +0.032 C 
ATOM     29  C   UNL     1       0.002  -0.004   0.002  0.00  0.00    +0.136 C 
ATOM     30  C   UNL     1       0.742  -0.511   1.242  0.00  0.00    +0.032 C 
ENDBRANCH  25  29
ENDBRANCH   1  25
BRANCH   8  31
ATOM     31  O   UNL     1      -4.670  -6.567  -1.644  0.00  0.00    -0.506 OA
ATOM     32  H   UNL     1      -4.549  -6.239  -0.742  0.00  0.00    +0.292 HD
ENDBRANCH   8  31
TORSDOF 5
