REMARK  Name = ZINC39673991
REMARK  6 active torsions:
REMARK  status: ('A' for Active; 'I' for Inactive)
REMARK    1  A    between atoms: C_1  and  C_2
REMARK    2  A    between atoms: C_4  and  C_12
REMARK    3  A    between atoms: C_12  and  C_13
REMARK    4  A    between atoms: C_13  and  N_14
REMARK    5  A    between atoms: C_15  and  C_17
REMARK    6  A    between atoms: C_28  and  C_30
REMARK                            x       y       z     vdW  Elec       q    Type
REMARK                         _______ _______ _______ _____ _____    ______ ____
ROOT
ATOM      1  C   UNL     1      -5.891   3.294   4.055  0.00  0.00    +0.100 C 
ATOM      2  C   UNL     1      -5.144   2.182   4.824  0.00  0.00    +0.121 C 
ATOM      3  N   UNL     1      -4.382   2.899   5.874  0.00  0.00    -0.296 N 
ATOM      4  C   UNL     1      -5.305   3.964   6.336  0.00  0.00    +0.115 C 
ATOM      5  C   UNL     1      -5.998   4.460   5.052  0.00  0.00    -0.004 C 
ATOM      6  C   UNL     1      -7.462   4.783   5.332  0.00  0.00    -0.010 C 
ATOM      7  C   UNL     1      -7.543   5.983   6.280  0.00  0.00    -0.082 C 
ATOM      8  N   UNL     1      -6.875   7.138   5.668  0.00  0.00    +0.379 N 
ATOM      9  C   UNL     1      -5.447   6.853   5.487  0.00  0.00    -0.082 C 
ATOM     10  C   UNL     1      -5.277   5.689   4.506  0.00  0.00    -0.010 C 
ATOM     11  C   UNL     1      -3.134   2.641   6.310  0.00  0.00    +0.247 C 
ATOM     12  O   UNL     1      -2.452   1.809   5.744  0.00  0.00    -0.270 OA
ATOM     13  H   UNL     1      -7.295   7.331   4.771  0.00  0.00    -0.086 HD
ATOM     14  H   UNL     1      -6.982   7.944   6.267  0.00  0.00    -0.086 HD
ENDROOT
BRANCH  11  15
ATOM     15  C   UNL     1      -2.593   3.370   7.477  0.00  0.00    +0.037 A 
ATOM     16  C   UNL     1      -3.459   3.982   8.384  0.00  0.00    +0.013 A 
ATOM     17  C   UNL     1      -2.949   4.661   9.471  0.00  0.00    +0.001 A 
ATOM     18  C   UNL     1      -1.580   4.736   9.663  0.00  0.00    +0.000 A 
ATOM     19  C   UNL     1      -0.716   4.131   8.768  0.00  0.00    +0.001 A 
ATOM     20  C   UNL     1      -1.214   3.445   7.680  0.00  0.00    +0.013 A 
ENDBRANCH  11  15
BRANCH   1  22
ATOM     21  N   UNL     1      -5.730   4.286   1.795  0.00  0.00    -0.315 N 
ATOM     22  C   UNL     1      -5.103   3.712   2.841  0.00  0.00    +0.218 C 
ATOM     23  O   UNL     1      -3.904   3.532   2.804  0.00  0.00    -0.275 OA
ATOM     24  H   UNL     1      -6.689   4.429   1.823  0.00  0.00    +0.149 HD
BRANCH  21  25
ATOM     25  C   UNL     1      -4.963   4.692   0.614  0.00  0.00    +0.109 C 
BRANCH  25  26
ATOM     26  C   UNL     1      -5.908   5.311  -0.418  0.00  0.00    +0.056 C 
BRANCH  26  30
ATOM     27  C   UNL     1      -5.321   3.556  -2.911  0.00  0.00    +0.063 C 
ATOM     28  C   UNL     1      -4.861   4.978  -2.715  0.00  0.00    +0.017 A 
ATOM     29  H   UNL     1      -3.800   5.358  -4.466  0.00  0.00    +0.166 HD
ATOM     30  C   UNL     1      -5.119   5.729  -1.633  0.00  0.00    -0.018 A 
ATOM     31  C   UNL     1      -4.490   7.033  -1.857  0.00  0.00    +0.003 A 
ATOM     32  C   UNL     1      -4.407   8.211  -1.113  0.00  0.00    +0.010 A 
ATOM     33  C   UNL     1      -3.726   9.284  -1.615  0.00  0.00    +0.001 A 
ATOM     34  C   UNL     1      -3.116   9.213  -2.859  0.00  0.00    +0.002 A 
ATOM     35  C   UNL     1      -3.186   8.060  -3.611  0.00  0.00    +0.026 A 
ATOM     36  C   UNL     1      -3.874   6.955  -3.119  0.00  0.00    +0.047 A 
ATOM     37  N   UNL     1      -4.113   5.692  -3.611  0.00  0.00    -0.358 N 
ENDBRANCH  26  30
ENDBRANCH  25  26
ENDBRANCH  21  25
ENDBRANCH   1  22
TORSDOF 5
