REMARK  Name = ZINC13694920
REMARK  5 active torsions:
REMARK  status: ('A' for Active; 'I' for Inactive)
REMARK    1  A    between atoms: C_1  and  C_2
REMARK    2  A    between atoms: C_4  and  C_11
REMARK    3  A    between atoms: C_7  and  N_8
REMARK    4  A    between atoms: N_13  and  C_14
REMARK    5  A    between atoms: C_23  and  C_25
REMARK                            x       y       z     vdW  Elec       q    Type
REMARK                         _______ _______ _______ _____ _____    ______ ____
ROOT
ATOM      1  C   UNL     1      -3.784   3.515   1.339  0.00  0.00    +0.035 A 
ATOM      2  C   UNL     1      -3.514   3.874   0.024  0.00  0.00    +0.024 A 
ATOM      3  C   UNL     1      -2.497   3.241  -0.664  0.00  0.00    +0.007 A 
ATOM      4  C   UNL     1      -1.750   2.254  -0.049  0.00  0.00    -0.024 A 
ATOM      5  C   UNL     1      -2.009   1.887   1.262  0.00  0.00    +0.042 A 
ATOM      6  C   UNL     1      -3.036   2.527   1.957  0.00  0.00    +0.047 A 
ATOM      7  N   UNL     1      -1.144   0.875   1.696  0.00  0.00    -0.266 N 
ATOM      8  C   UNL     1      -0.221   0.510   0.617  0.00  0.00    +0.119 C 
ATOM      9  C   UNL     1      -0.601   1.417  -0.565  0.00  0.00    +0.056 C 
ATOM     10  C   UNL     1      -1.157   0.318   2.923  0.00  0.00    +0.257 C 
ATOM     11  O   UNL     1      -1.965   0.691   3.752  0.00  0.00    -0.269 OA
ENDROOT
BRANCH  10  12
ATOM     12  C   UNL     1      -0.196  -0.737   3.259  0.00  0.00    +0.074 A 
ATOM     13  C   UNL     1      -0.043  -1.433   4.448  0.00  0.00    +0.021 A 
ATOM     14  C   UNL     1       0.948  -2.382   4.494  0.00  0.00    +0.008 A 
ATOM     15  C   UNL     1       1.717  -2.592   3.393  0.00  0.00    +0.046 A 
ATOM     16  S   UNL     1       1.074  -1.467   2.241  0.00  0.00    -0.092 S 
ENDBRANCH  10  12
BRANCH   1  19
ATOM     17  C   UNL     1      -5.917   4.567   1.388  0.00  0.00    +0.248 C 
ATOM     18  O   UNL     1      -6.062   4.302   0.210  0.00  0.00    -0.270 OA
ATOM     19  N   UNL     1      -4.812   4.153   2.040  0.00  0.00    -0.281 N 
ATOM     20  H   UNL     1      -4.731   4.298   2.996  0.00  0.00    +0.155 HD
BRANCH  17  24
ATOM     21  C   UNL     1     -10.295   6.961   1.382  0.00  0.00    +0.046 C 
ATOM     22  C   UNL     1      -9.058   6.496   2.107  0.00  0.00    -0.020 A 
ATOM     23  C   UNL     1      -8.096   5.773   1.432  0.00  0.00    +0.018 A 
ATOM     24  C   UNL     1      -6.951   5.343   2.104  0.00  0.00    +0.037 A 
ATOM     25  C   UNL     1      -6.790   5.643   3.458  0.00  0.00    +0.015 A 
ATOM     26  C   UNL     1      -7.757   6.371   4.120  0.00  0.00    +0.034 A 
ATOM     27  C   UNL     1      -8.890   6.795   3.447  0.00  0.00    +0.129 A 
BRANCH  27  28
ATOM     28  N   UNL     1      -9.926   7.571   4.164  0.00  0.00    +0.057 N 
ATOM     29  O   UNL     1      -9.600   8.386   5.009  0.00  0.00    -0.126 OA
ATOM     30  O   UNL     1     -11.104   7.395   3.910  0.00  0.00    -0.126 OA
ENDBRANCH  27  28
ENDBRANCH  17  24
ENDBRANCH   1  19
TORSDOF 4
