REMARK  Name = ZINC59104482
REMARK  4 active torsions:
REMARK  status: ('A' for Active; 'I' for Inactive)
REMARK    1  A    between atoms: C_3  and  N_17
REMARK    2  A    between atoms: C_6  and  C_7
REMARK    3  A    between atoms: C_21  and  C_22
REMARK    4  A    between atoms: C_27  and  N_28
REMARK                            x       y       z     vdW  Elec       q    Type
REMARK                         _______ _______ _______ _____ _____    ______ ____
ROOT
ATOM      1  N   UNL     1       4.048   1.416   0.410  0.00  0.00    -0.188 N 
ATOM      2  C   UNL     1       4.837   1.382  -0.685  0.00  0.00    +0.264 C 
ATOM      3  O   UNL     1       4.703   0.517  -1.531  0.00  0.00    -0.269 OA
ATOM      4  C   UNL     1       5.868   2.430  -0.823  0.00  0.00    +0.102 C 
ATOM      5  C   UNL     1       6.720   2.470  -1.915  0.00  0.00    +0.028 C 
ATOM      6  C   UNL     1       5.950   3.431   0.253  0.00  0.00    +0.276 C 
ATOM      7  O   UNL     1       6.864   4.423   0.204  0.00  0.00    -0.268 OA
ATOM      8  N   UNL     1       5.108   3.336   1.267  0.00  0.00    -0.123 NA
ATOM      9  C   UNL     1       4.193   2.373   1.339  0.00  0.00    +0.340 C 
ATOM     10  O   UNL     1       3.449   2.355   2.303  0.00  0.00    -0.250 OA
ENDROOT
BRANCH   5  11
ATOM     11  C   UNL     1       6.481   1.593  -3.060  0.00  0.00    +0.010 A 
ATOM     12  C   UNL     1       5.196   1.496  -3.617  0.00  0.00    +0.059 A 
ATOM     13  C   UNL     1       4.977   0.667  -4.697  0.00  0.00    +0.167 A 
ATOM     14  C   UNL     1       6.034  -0.074  -5.236  0.00  0.00    +0.168 A 
ATOM     15  C   UNL     1       7.306   0.022  -4.685  0.00  0.00    +0.082 A 
ATOM     16  C   UNL     1       7.536   0.850  -3.610  0.00  0.00    +0.137 A 
ATOM     17  O   UNL     1       5.560  -0.804  -6.284  0.00  0.00    -0.453 OA
ATOM     18  C   UNL     1       4.129  -0.822  -6.128  0.00  0.00    +0.466 C 
ATOM     19  O   UNL     1       3.847   0.395  -5.413  0.00  0.00    -0.453 OA
BRANCH  16  20
ATOM     20  N   UNL     1       8.895   0.951  -3.031  0.00  0.00    +0.057 N 
ATOM     21  O   UNL     1       9.780   0.236  -3.438  0.00  0.00    -0.126 OA
ATOM     22  O   UNL     1       9.119   1.750  -2.152  0.00  0.00    -0.126 OA
ENDBRANCH  16  20
ENDBRANCH   5  11
BRANCH   1  25
ATOM     23  C   UNL     1       0.743  -0.180   0.661  0.00  0.00    +0.006 A 
ATOM     24  C   UNL     1       1.717   0.786   0.497  0.00  0.00    +0.024 A 
ATOM     25  C   UNL     1       3.058   0.438   0.576  0.00  0.00    +0.046 A 
ATOM     26  C   UNL     1       3.417  -0.881   0.820  0.00  0.00    +0.024 A 
ATOM     27  C   UNL     1       2.439  -1.842   0.983  0.00  0.00    +0.006 A 
ATOM     28  C   UNL     1       1.104  -1.493   0.904  0.00  0.00    -0.041 A 
BRANCH  28  29
ATOM     29  C   UNL     1       0.039  -2.544   1.083  0.00  0.00    -0.003 C 
ATOM     30  C   UNL     1      -0.817  -2.623  -0.183  0.00  0.00    +0.015 C 
ATOM     31  C   UNL     1      -1.898  -3.691  -0.001  0.00  0.00    -0.010 C 
ATOM     32  C   UNL     1      -1.237  -5.047   0.253  0.00  0.00    +0.007 C 
ATOM     33  C   UNL     1      -0.381  -4.968   1.518  0.00  0.00    -0.010 C 
ATOM     34  C   UNL     1       0.700  -3.901   1.336  0.00  0.00    +0.015 C 
ATOM     35  C   UNL     1      -1.265  -4.601   2.711  0.00  0.00    +0.007 C 
ATOM     36  C   UNL     1      -1.926  -3.244   2.457  0.00  0.00    -0.010 C 
ATOM     37  C   UNL     1      -2.783  -3.323   1.192  0.00  0.00    +0.007 C 
ATOM     38  C   UNL     1      -0.845  -2.177   2.276  0.00  0.00    +0.015 C 
ENDBRANCH  28  29
ENDBRANCH   1  25
TORSDOF 4
