REMARK  Name = ZINC59476428
REMARK  8 active torsions:
REMARK  status: ('A' for Active; 'I' for Inactive)
REMARK    1  A    between atoms: C_1  and  C_2
REMARK    2  A    between atoms: C_5  and  C_9
REMARK    3  A    between atoms: C_6  and  C_8
REMARK    4  A    between atoms: C_13  and  N_18
REMARK    5  A    between atoms: C_19  and  C_20
REMARK    6  A    between atoms: C_24  and  O_27
REMARK    7  A    between atoms: C_25  and  O_26
REMARK    8  A    between atoms: O_27  and  C_28
REMARK                            x       y       z     vdW  Elec       q    Type
REMARK                         _______ _______ _______ _____ _____    ______ ____
ROOT
ATOM      1  C   UNL     1       0.461  -4.208   0.225  0.00  0.00    +0.229 A 
ATOM      2  N   UNL     1       0.590  -5.032  -0.784  0.00  0.00    -0.209 NA
ATOM      3  C   UNL     1       0.785  -6.286  -0.302  0.00  0.00    +0.112 A 
ATOM      4  C   UNL     1       0.978  -7.529  -0.906  0.00  0.00    +0.059 A 
ATOM      5  C   UNL     1       1.154  -8.658  -0.113  0.00  0.00    +0.066 A 
ATOM      6  C   UNL     1       1.136  -8.546   1.284  0.00  0.00    +0.031 A 
ATOM      7  C   UNL     1       0.945  -7.321   1.880  0.00  0.00    +0.050 A 
ATOM      8  C   UNL     1       0.769  -6.186   1.100  0.00  0.00    +0.156 A 
ATOM      9  O   UNL     1       0.572  -4.880   1.386  0.00  0.00    -0.435 OA
ENDROOT
BRANCH   1  14
ATOM     10  C   UNL     1      -0.422   1.459  -0.238  0.00  0.00    +0.044 C 
ATOM     11  C   UNL     1      -0.191  -0.025  -0.117  0.00  0.00    -0.050 A 
ATOM     12  C   UNL     1       0.791  -0.633  -0.879  0.00  0.00    +0.004 A 
ATOM     13  C   UNL     1       1.008  -1.992  -0.773  0.00  0.00    +0.014 A 
ATOM     14  C   UNL     1       0.235  -2.752   0.106  0.00  0.00    +0.040 A 
ATOM     15  C   UNL     1      -0.753  -2.132   0.872  0.00  0.00    -0.038 A 
ATOM     16  C   UNL     1      -0.956  -0.772   0.760  0.00  0.00    +0.007 A 
ATOM     17  C   UNL     1      -1.593  -2.945   1.823  0.00  0.00    +0.044 C 
ENDBRANCH   1  14
BRANCH   5  18
ATOM     18  N   UNL     1       1.343  -9.881  -0.698  0.00  0.00    -0.255 NA
ATOM     19  C   UNL     1       2.275 -10.678  -0.255  0.00  0.00    +0.123 C 
BRANCH  19  20
ATOM     20  C   UNL     1       2.479 -11.992  -0.883  0.00  0.00    +0.040 A 
ATOM     21  C   UNL     1       3.474 -12.853  -0.407  0.00  0.00    +0.033 A 
ATOM     22  C   UNL     1       3.662 -14.084  -0.999  0.00  0.00    +0.045 A 
ATOM     23  C   UNL     1       2.869 -14.474  -2.067  0.00  0.00    +0.069 A 
ATOM     24  C   UNL     1       1.880 -13.633  -2.549  0.00  0.00    +0.163 A 
ATOM     25  C   UNL     1       1.674 -12.391  -1.959  0.00  0.00    +0.167 A 
ATOM     26 CL   UNL     1       4.897 -15.149  -0.406  0.00  0.00    -0.083 Cl
BRANCH  25  27
ATOM     27  O   UNL     1       0.701 -11.566  -2.426  0.00  0.00    -0.503 OA
ATOM     28  H   UNL     1       0.996 -10.967  -3.126  0.00  0.00    +0.292 HD
ENDBRANCH  25  27
BRANCH  24  29
ATOM     29  O   UNL     1       1.106 -14.024  -3.597  0.00  0.00    -0.491 OA
ATOM     30  C   UNL     1       1.368 -15.315  -4.152  0.00  0.00    +0.277 C 
ENDBRANCH  24  29
ENDBRANCH  19  20
ENDBRANCH   5  18
TORSDOF 5
