REMARK  Name = ZINC48257058
REMARK  10 active torsions:
REMARK  status: ('A' for Active; 'I' for Inactive)
REMARK    1  A    between atoms: C_1  and  C_2
REMARK    2  A    between atoms: C_2  and  C_3
REMARK    3  A    between atoms: N_5  and  C_6
REMARK    4  A    between atoms: C_9  and  C_26
REMARK    5  A    between atoms: C_10  and  N_12
REMARK    6  A    between atoms: N_15  and  C_16
REMARK    7  A    between atoms: C_16  and  C_17
REMARK    8  A    between atoms: C_17  and  C_18
REMARK    9  A    between atoms: C_17  and  C_19
REMARK   10  A    between atoms: C_17  and  N_20
REMARK                            x       y       z     vdW  Elec       q    Type
REMARK                         _______ _______ _______ _____ _____    ______ ____
ROOT
ATOM      1  N   UNL     1       2.334  -5.669   3.873  0.00  0.00    -0.269 N 
ATOM      2  C   UNL     1       1.977  -6.450   2.834  0.00  0.00    +0.304 C 
ATOM      3  O   UNL     1       1.420  -5.962   1.870  0.00  0.00    -0.253 OA
ATOM      4  N   UNL     1       2.239  -7.772   2.865  0.00  0.00    -0.300 N 
ATOM      5  H   UNL     1       2.721  -6.066   4.668  0.00  0.00    +0.156 HD
ATOM      6  H   UNL     1       2.683  -8.161   3.634  0.00  0.00    +0.150 HD
ENDROOT
BRANCH   1  11
ATOM      7  C   UNL     1       0.873  -2.392   3.049  0.00  0.00    +0.035 A 
ATOM      8  C   UNL     1       1.776  -1.540   3.673  0.00  0.00    +0.024 A 
ATOM      9  C   UNL     1       2.858  -2.060   4.358  0.00  0.00    +0.007 A 
ATOM     10  C   UNL     1       3.044  -3.427   4.426  0.00  0.00    -0.029 A 
ATOM     11  C   UNL     1       2.144  -4.284   3.804  0.00  0.00    +0.039 A 
ATOM     12  C   UNL     1       1.054  -3.765   3.120  0.00  0.00    +0.047 A 
ATOM     13  C   UNL     1       4.225  -3.990   5.173  0.00  0.00    +0.045 C 
BRANCH   7  16
ATOM     14  C   UNL     1      -0.095  -0.709   1.674  0.00  0.00    +0.217 C 
ATOM     15  O   UNL     1       0.944  -0.086   1.725  0.00  0.00    -0.275 OA
ATOM     16  N   UNL     1      -0.222  -1.864   2.356  0.00  0.00    -0.285 N 
ATOM     17  H   UNL     1      -1.073  -2.330   2.366  0.00  0.00    +0.155 HD
BRANCH  14  19
ATOM     18  C   UNL     1      -0.841   1.126   0.181  0.00  0.00    +0.013 C 
ATOM     19  C   UNL     1      -1.244  -0.191   0.847  0.00  0.00    +0.093 C 
ENDBRANCH  14  19
ENDBRANCH   7  16
ENDBRANCH   1  11
BRANCH   4  20
ATOM     20  C   UNL     1       1.851  -8.621   1.735  0.00  0.00    +0.093 C 
BRANCH  20  21
ATOM     21  C   UNL     1       2.149 -10.084   2.071  0.00  0.00    -0.055 C 
ATOM     22  C   UNL     1       1.261 -10.531   3.234  0.00  0.00    -0.008 C 
ATOM     23  C   UNL     1       1.866 -10.956   0.847  0.00  0.00    -0.008 C 
BRANCH  21  24
ATOM     24  N   UNL     1       3.561 -10.220   2.454  0.00  0.00    +0.384 N 
ATOM     25  C   UNL     1       4.411  -9.690   1.381  0.00  0.00    -0.078 C 
ATOM     26  C   UNL     1       5.879  -9.755   1.808  0.00  0.00    -0.019 C 
ATOM     27  C   UNL     1       6.258 -11.212   2.088  0.00  0.00    -0.004 C 
ATOM     28  C   UNL     1       5.318 -11.778   3.156  0.00  0.00    -0.019 C 
ATOM     29  C   UNL     1       3.870 -11.637   2.679  0.00  0.00    -0.078 C 
ATOM     30  H   UNL     1       3.731  -9.701   3.302  0.00  0.00    -0.081 HD
ENDBRANCH  21  24
ENDBRANCH  20  21
ENDBRANCH   4  20
TORSDOF 6
