REMARK  Name = ZINC12121849
REMARK  8 active torsions:
REMARK  status: ('A' for Active; 'I' for Inactive)
REMARK    1  A    between atoms: C_1  and  C_2
REMARK    2  A    between atoms: C_2  and  C_3
REMARK    3  A    between atoms: C_2  and  C_4
REMARK    4  A    between atoms: C_4  and  C_5
REMARK    5  A    between atoms: C_5  and  C_6
REMARK    6  A    between atoms: C_6  and  C_13
REMARK    7  A    between atoms: C_18  and  C_19
REMARK    8  A    between atoms: C_18  and  N_54
REMARK                            x       y       z     vdW  Elec       q    Type
REMARK                         _______ _______ _______ _____ _____    ______ ____
ROOT
ATOM      1  C   UNL     1       0.863  -0.523  -1.151  0.00  0.00    +0.018 C 
ATOM      2  C   UNL     1       0.362   0.071  -2.471  0.00  0.00    -0.013 C 
ATOM      3  C   UNL     1       1.187  -0.500  -3.627  0.00  0.00    -0.078 C 
ATOM      4  C   UNL     1       1.579  -2.558  -2.409  0.00  0.00    -0.078 C 
ATOM      5  C   UNL     1       0.765  -2.050  -1.216  0.00  0.00    -0.013 C 
ATOM      6  N   UNL     1       1.031  -1.970  -3.650  0.00  0.00    +0.382 N 
ATOM      7  H   UNL     1       0.032  -2.198  -3.713  0.00  0.00    -0.081 HD
ENDROOT
BRANCH   1   8
ATOM      8  C   UNL     1       0.002  -0.004   0.002  0.00  0.00    +0.115 C 
ATOM      9  C   UNL     1      -1.406  -0.556  -0.094  0.00  0.00    +0.244 C 
ATOM     10  O   UNL     1      -2.199  -0.388  -0.996  0.00  0.00    -0.273 OA
ATOM     11  N   UNL     1      -1.594  -1.273   1.032  0.00  0.00    -0.238 N 
ATOM     12  C   UNL     1      -0.511  -1.251   1.817  0.00  0.00    +0.307 C 
ATOM     13  O   UNL     1      -0.440  -1.825   2.886  0.00  0.00    -0.252 OA
ATOM     14  N   UNL     1       0.490  -0.523   1.292  0.00  0.00    -0.285 N 
ATOM     15  H   UNL     1      -2.413  -1.747   1.246  0.00  0.00    +0.159 HD
ATOM     16  H   UNL     1       1.364  -0.370   1.685  0.00  0.00    +0.151 HD
BRANCH   8  17
ATOM     17  C   UNL     1      -0.019   1.526   0.010  0.00  0.00    +0.036 C 
BRANCH  17  18
ATOM     18  C   UNL     1      -0.735   2.019   1.269  0.00  0.00    +0.005 C 
BRANCH  18  20
ATOM     19  C   UNL     1      -1.601   4.054   0.107  0.00  0.00    +0.007 C 
ATOM     20  C   UNL     1      -0.756   3.549   1.278  0.00  0.00    -0.017 C 
ATOM     21  C   UNL     1      -1.359   4.044   2.594  0.00  0.00    +0.007 C 
ENDBRANCH  18  20
ENDBRANCH  17  18
ENDBRANCH   8  17
ENDBRANCH   1   8
BRANCH   6  22
ATOM     22  C   UNL     1       1.727  -2.533  -4.825  0.00  0.00    -0.043 C 
BRANCH  22  23
ATOM     23  C   UNL     1       1.009  -2.088  -6.073  0.00  0.00    -0.061 A 
ATOM     24  C   UNL     1      -0.026  -2.850  -6.584  0.00  0.00    +0.002 A 
ATOM     25  C   UNL     1      -0.688  -2.441  -7.726  0.00  0.00    +0.003 A 
ATOM     26  C   UNL     1      -0.310  -1.275  -8.364  0.00  0.00    +0.038 A 
ATOM     27  C   UNL     1       0.729  -0.514  -7.857  0.00  0.00    +0.124 A 
ATOM     28  C   UNL     1       1.389  -0.922  -6.710  0.00  0.00    +0.040 A 
ATOM     29  F   UNL     1       1.099   0.625  -8.481  0.00  0.00    -0.205 F 
ENDBRANCH  22  23
ENDBRANCH   6  22
TORSDOF 6
