REMARK  Name = ZINC18053659
REMARK  8 active torsions:
REMARK  status: ('A' for Active; 'I' for Inactive)
REMARK    1  A    between atoms: C_1  and  C_2
REMARK    2  A    between atoms: C_2  and  O_3
REMARK    3  A    between atoms: O_3  and  C_4
REMARK    4  A    between atoms: C_6  and  C_21
REMARK    5  A    between atoms: C_9  and  O_10
REMARK    6  A    between atoms: O_10  and  C_11
REMARK    7  A    between atoms: C_11  and  C_12
REMARK    8  A    between atoms: N_14  and  C_15
REMARK                            x       y       z     vdW  Elec       q    Type
REMARK                         _______ _______ _______ _____ _____    ______ ____
ROOT
ATOM      1  C   UNL     1       0.783  -1.812  -1.333  0.00  0.00    +0.162 A 
ATOM      2  C   UNL     1       0.256  -2.670  -0.381  0.00  0.00    +0.056 A 
ATOM      3  C   UNL     1       0.372  -4.037  -0.543  0.00  0.00    -0.003 A 
ATOM      4  C   UNL     1       1.015  -4.553  -1.654  0.00  0.00    +0.011 A 
ATOM      5  C   UNL     1       1.544  -3.702  -2.607  0.00  0.00    +0.050 A 
ATOM      6  C   UNL     1       1.425  -2.330  -2.453  0.00  0.00    +0.163 A 
ENDROOT
BRANCH   3   7
ATOM      7  C   UNL     1      -0.202  -4.969   0.493  0.00  0.00    +0.209 C 
ATOM      8  N   UNL     1       0.711  -6.109   0.699  0.00  0.00    -0.294 N 
ATOM      9  C   UNL     1       0.664  -7.151  -0.216  0.00  0.00    +0.159 C 
ATOM     10  N   UNL     1      -0.594  -7.696  -0.472  0.00  0.00    -0.259 N 
ATOM     11  C   UNL     1      -1.650  -6.789  -0.435  0.00  0.00    +0.205 A 
ATOM     12  N   UNL     1      -1.487  -5.500   0.025  0.00  0.00    -0.288 N 
ATOM     13  C   UNL     1      -2.703  -4.884  -0.055  0.00  0.00    +0.072 A 
ATOM     14  C   UNL     1      -3.138  -3.605   0.270  0.00  0.00    +0.028 A 
ATOM     15  C   UNL     1      -4.475  -3.318   0.049  0.00  0.00    +0.002 A 
ATOM     16  C   UNL     1      -5.351  -4.255  -0.471  0.00  0.00    +0.002 A 
ATOM     17  C   UNL     1      -4.944  -5.535  -0.802  0.00  0.00    +0.030 A 
ATOM     18  C   UNL     1      -3.596  -5.848  -0.588  0.00  0.00    +0.091 A 
ATOM     19  N   UNL     1      -2.890  -6.980  -0.797  0.00  0.00    -0.214 NA
ATOM     20  N   UNL     1       1.738  -7.596  -0.804  0.00  0.00    -0.375 N 
ATOM     21  H   UNL     1       1.324  -6.130   1.451  0.00  0.00    +0.151 HD
ATOM     22  H   UNL     1       2.600  -7.198  -0.607  0.00  0.00    +0.158 HD
ATOM     23  H   UNL     1      -0.724  -8.638  -0.663  0.00  0.00    +0.158 HD
ATOM     24  H   UNL     1       1.675  -8.326  -1.440  0.00  0.00    +0.158 HD
ENDBRANCH   3   7
BRANCH   1  25
ATOM     25  O   UNL     1       0.668  -0.466  -1.175  0.00  0.00    -0.489 OA
BRANCH  25  27
ATOM     26  C   UNL     1      -0.034   1.525   0.002  0.00  0.00    +0.048 C 
ATOM     27  C   UNL     1      -0.003  -0.005  -0.001  0.00  0.00    +0.226 C 
ENDBRANCH  25  27
ENDBRANCH   1  25
BRANCH   6  28
ATOM     28  O   UNL     1       1.939  -1.492  -3.393  0.00  0.00    -0.479 OA
BRANCH  28  29
ATOM     29  C   UNL     1       2.584  -2.095  -4.517  0.00  0.00    +0.325 C 
BRANCH  29  30
ATOM     30  C   UNL     1       3.087  -1.019  -5.444  0.00  0.00    +0.255 C 
ATOM     31  O   UNL     1       2.910   0.149  -5.170  0.00  0.00    -0.272 OA
ATOM     32  N   UNL     1       3.733  -1.355  -6.578  0.00  0.00    -0.283 N 
ATOM     33  H   UNL     1       3.934  -2.285  -6.765  0.00  0.00    +0.155 HD
BRANCH  32  34
ATOM     34  C   UNL     1       4.114  -0.361  -7.487  0.00  0.00    +0.033 A 
ATOM     35  C   UNL     1       4.082  -0.616  -8.851  0.00  0.00    +0.023 A 
ATOM     36  C   UNL     1       4.460   0.367  -9.745  0.00  0.00    +0.002 A 
ATOM     37  C   UNL     1       4.869   1.604  -9.283  0.00  0.00    +0.000 A 
ATOM     38  C   UNL     1       4.902   1.861  -7.924  0.00  0.00    +0.002 A 
ATOM     39  C   UNL     1       4.520   0.885  -7.025  0.00  0.00    +0.023 A 
ENDBRANCH  32  34
ENDBRANCH  29  30
ENDBRANCH  28  29
ENDBRANCH   6  28
TORSDOF 7
