REMARK  Name = ZINC61189964
REMARK  5 active torsions:
REMARK  status: ('A' for Active; 'I' for Inactive)
REMARK    1  A    between atoms: C_1  and  N_2
REMARK    2  A    between atoms: C_10  and  C_12
REMARK    3  A    between atoms: C_13  and  C_14
REMARK    4  A    between atoms: N_20  and  C_22
REMARK    5  A    between atoms: C_22  and  C_23
REMARK                            x       y       z     vdW  Elec       q    Type
REMARK                         _______ _______ _______ _____ _____    ______ ____
ROOT
ATOM      1  C   UNL     1       7.285  -2.770  -0.995  0.00  0.00    +0.242 C 
ATOM      2  O   UNL     1       7.346  -3.963  -0.758  0.00  0.00    -0.270 OA
ATOM      3  N   UNL     1       8.393  -2.102  -1.373  0.00  0.00    -0.265 N 
ATOM      4  C   UNL     1       9.613  -2.779  -1.494  0.00  0.00    +0.147 A 
ATOM      5  C   UNL     1       9.823  -4.147  -1.259  0.00  0.00    +0.065 A 
ATOM      6  C   UNL     1      11.131  -4.410  -1.483  0.00  0.00    +0.111 A 
ATOM      7  N   UNL     1      11.729  -3.256  -1.847  0.00  0.00    -0.261 N 
ATOM      8  N   UNL     1      10.758  -2.247  -1.853  0.00  0.00    -0.156 NA
ATOM      9  H   UNL     1       8.345  -1.151  -1.562  0.00  0.00    +0.157 HD
ENDROOT
BRANCH   1  11
ATOM     10  C   UNL     1       4.903  -2.733  -0.490  0.00  0.00    +0.013 C 
ATOM     11  C   UNL     1       6.012  -2.063  -0.869  0.00  0.00    +0.068 C 
BRANCH  10  21
ATOM     12  C   UNL     1      -0.018   1.461   0.010  0.00  0.00    +0.129 C 
ATOM     13  N   UNL     1       0.002  -0.004   0.002  0.00  0.00    -0.333 N 
ATOM     14  C   UNL     1      -1.248  -0.767   0.114  0.00  0.00    +0.105 C 
ATOM     15  C   UNL     1      -1.017  -1.901   1.122  0.00  0.00    +0.024 C 
ATOM     16  C   UNL     1       0.057  -2.839   0.571  0.00  0.00    +0.038 C 
ATOM     17  C   UNL     1       1.276  -2.057   0.155  0.00  0.00    -0.026 A 
ATOM     18  C   UNL     1       1.207  -0.695  -0.118  0.00  0.00    +0.033 A 
ATOM     19  C   UNL     1       2.348   0.004  -0.511  0.00  0.00    +0.024 A 
ATOM     20  C   UNL     1       3.551  -0.651  -0.635  0.00  0.00    +0.010 A 
ATOM     21  C   UNL     1       3.623  -2.023  -0.363  0.00  0.00    -0.025 A 
ATOM     22  C   UNL     1       2.472  -2.715   0.041  0.00  0.00    +0.013 A 
ENDBRANCH  10  21
ENDBRANCH   1  11
BRANCH   7  23
ATOM     23  C   UNL     1      13.145  -3.089  -2.182  0.00  0.00    +0.238 C 
BRANCH  23  24
ATOM     24  C   UNL     1      13.268  -2.467  -3.549  0.00  0.00    +0.232 C 
ATOM     25  O   UNL     1      12.270  -2.190  -4.181  0.00  0.00    -0.274 OA
ATOM     26  N   UNL     1      14.486  -2.218  -4.070  0.00  0.00    -0.328 N 
ATOM     27  H   UNL     1      15.284  -2.439  -3.564  0.00  0.00    +0.145 HD
ATOM     28  H   UNL     1      14.565  -1.817  -4.949  0.00  0.00    +0.145 HD
ENDBRANCH  23  24
ENDBRANCH   7  23
TORSDOF 4
