REMARK  Name = ZINC32601748
REMARK  7 active torsions:
REMARK  status: ('A' for Active; 'I' for Inactive)
REMARK    1  A    between atoms: C_1  and  C_2
REMARK    2  A    between atoms: C_4  and  S_10
REMARK    3  A    between atoms: S_10  and  N_13
REMARK    4  A    between atoms: N_13  and  C_14
REMARK    5  A    between atoms: C_14  and  C_15
REMARK    6  A    between atoms: C_14  and  C_16
REMARK    7  A    between atoms: C_14  and  C_17
REMARK                            x       y       z     vdW  Elec       q    Type
REMARK                         _______ _______ _______ _____ _____    ______ ____
ROOT
ATOM      1  C   UNL     1       0.617  -1.412   0.679  0.00  0.00    +0.045 C 
ATOM      2  C   UNL     1       0.849   0.059   0.455  0.00  0.00    -0.030 A 
ATOM      3  C   UNL     1       2.138   0.545   0.331  0.00  0.00    +0.034 A 
ATOM      4  C   UNL     1       2.352   1.894   0.125  0.00  0.00    +0.124 A 
ATOM      5  C   UNL     1       1.276   2.761   0.043  0.00  0.00    +0.069 A 
ATOM      6  C   UNL     1      -0.013   2.276   0.167  0.00  0.00    +0.042 A 
ATOM      7  C   UNL     1      -0.227   0.925   0.373  0.00  0.00    +0.045 A 
ATOM      8 CL   UNL     1      -1.845   0.316   0.528  0.00  0.00    -0.083 Cl
ATOM      9 CL   UNL     1       1.545   4.456  -0.216  0.00  0.00    -0.081 Cl
ENDROOT
BRANCH   4  10
ATOM     10  S   UNL     1       3.995   2.512  -0.033  0.00  0.00    +0.060 S 
ATOM     11  O   UNL     1       4.099   3.620   0.850  0.00  0.00    -0.153 OA
ATOM     12  O   UNL     1       4.861   1.388   0.049  0.00  0.00    -0.153 OA
BRANCH  10  13
ATOM     13  N   UNL     1       4.146   3.114  -1.569  0.00  0.00    -0.185 NA
ATOM     14  H   UNL     1       4.479   4.153  -1.708  0.00  0.00    +0.149 HD
BRANCH  13  15
ATOM     15  C   UNL     1       4.050   2.214  -2.721  0.00  0.00    +0.032 C 
ATOM     16  C   UNL     1       2.636   1.637  -2.802  0.00  0.00    +0.029 C 
ATOM     17  C   UNL     1       4.358   2.992  -4.002  0.00  0.00    +0.029 C 
ATOM     18  C   UNL     1       5.058   1.074  -2.563  0.00  0.00    +0.029 C 
ENDBRANCH  13  15
ENDBRANCH  10  13
ENDBRANCH   4  10
TORSDOF 3
