REMARK  Name = ZINC39448864
REMARK  7 active torsions:
REMARK  status: ('A' for Active; 'I' for Inactive)
REMARK    1  A    between atoms: C_1  and  C_2
REMARK    2  A    between atoms: C_2  and  O_3
REMARK    3  A    between atoms: O_3  and  C_4
REMARK    4  A    between atoms: C_7  and  C_10
REMARK    5  A    between atoms: C_15  and  S_17
REMARK    6  A    between atoms: S_17  and  C_18
REMARK    7  A    between atoms: C_18  and  C_19
REMARK                            x       y       z     vdW  Elec       q    Type
REMARK                         _______ _______ _______ _____ _____    ______ ____
ROOT
ATOM      1  C   UNL     1      -2.001  -6.092  -0.011  0.00  0.00    +0.200 C 
ATOM      2  N   UNL     1      -0.881  -6.720  -0.722  0.00  0.00    -0.336 N 
ATOM      3  C   UNL     1      -0.970  -6.977  -2.000  0.00  0.00    +0.190 C 
ATOM      4  N   UNL     1      -2.089  -6.725  -2.700  0.00  0.00    -0.195 NA
ATOM      5  C   UNL     1      -3.225  -6.444  -2.087  0.00  0.00    +0.159 C 
ATOM      6  N   UNL     1      -3.247  -6.441  -0.711  0.00  0.00    -0.300 N 
ATOM      7  N   UNL     1       0.117  -7.525  -2.650  0.00  0.00    -0.329 N 
ATOM      8  H   UNL     1       0.932  -7.713  -2.158  0.00  0.00    +0.145 HD
ATOM      9  H   UNL     1       0.066  -7.722  -3.598  0.00  0.00    +0.145 HD
ATOM     10  H   UNL     1      -4.054  -6.661  -0.220  0.00  0.00    +0.150 HD
ATOM     11  H   UNL     1      -0.069  -6.944  -0.240  0.00  0.00    +0.164 HD
ENDROOT
BRANCH   1  15
ATOM     12  C   UNL     1      -1.498  -1.848   0.006  0.00  0.00    +0.121 A 
ATOM     13  C   UNL     1      -0.388  -2.679  -0.003  0.00  0.00    +0.046 A 
ATOM     14  C   UNL     1      -0.553  -4.051  -0.008  0.00  0.00    +0.011 A 
ATOM     15  C   UNL     1      -1.823  -4.596  -0.005  0.00  0.00    -0.007 A 
ATOM     16  C   UNL     1      -2.932  -3.769   0.004  0.00  0.00    +0.011 A 
ATOM     17  C   UNL     1      -2.772  -2.397   0.016  0.00  0.00    +0.046 A 
BRANCH  12  18
ATOM     18  O   UNL     1      -1.339  -0.499   0.012  0.00  0.00    -0.492 OA
BRANCH  18  20
ATOM     19  C   UNL     1      -0.019   1.526   0.010  0.00  0.00    +0.048 C 
ATOM     20  C   UNL     1       0.002  -0.004   0.002  0.00  0.00    +0.225 C 
ENDBRANCH  18  20
ENDBRANCH  12  18
ENDBRANCH   1  15
BRANCH   5  21
ATOM     21  S   UNL     1      -4.680  -6.080  -3.011  0.00  0.00    -0.081 S 
BRANCH  21  22
ATOM     22  C   UNL     1      -4.146  -6.210  -4.740  0.00  0.00    +0.173 C 
BRANCH  22  23
ATOM     23  C   UNL     1      -5.312  -5.918  -5.649  0.00  0.00    +0.234 C 
ATOM     24  O   UNL     1      -6.397  -5.649  -5.177  0.00  0.00    -0.274 OA
ATOM     25  N   UNL     1      -5.150  -5.956  -6.986  0.00  0.00    -0.239 N 
ATOM     26  C   UNL     1      -3.908  -6.269  -7.556  0.00  0.00    +0.044 A 
ATOM     27  C   UNL     1      -3.316  -7.477  -7.202  0.00  0.00    +0.024 A 
ATOM     28  C   UNL     1      -2.112  -7.856  -7.758  0.00  0.00    +0.002 A 
ATOM     29  C   UNL     1      -1.501  -7.020  -8.676  0.00  0.00    +0.000 A 
ATOM     30  C   UNL     1      -2.080  -5.819  -9.014  0.00  0.00    +0.005 A 
ATOM     31  C   UNL     1      -3.289  -5.408  -8.448  0.00  0.00    -0.025 A 
ATOM     32  C   UNL     1      -3.742  -4.026  -8.861  0.00  0.00    +0.042 C 
ATOM     33  C   UNL     1      -5.018  -3.580  -8.168  0.00  0.00    +0.042 C 
ATOM     34  C   UNL     1      -6.176  -4.482  -8.511  0.00  0.00    -0.025 A 
ATOM     35  C   UNL     1      -6.219  -5.688  -7.852  0.00  0.00    +0.044 A 
ATOM     36  C   UNL     1      -7.262  -6.575  -8.056  0.00  0.00    +0.024 A 
ATOM     37  C   UNL     1      -8.255  -6.236  -8.961  0.00  0.00    +0.002 A 
ATOM     38  C   UNL     1      -8.199  -5.035  -9.645  0.00  0.00    +0.000 A 
ATOM     39  C   UNL     1      -7.147  -4.137  -9.421  0.00  0.00    +0.005 A 
ENDBRANCH  22  23
ENDBRANCH  21  22
ENDBRANCH   5  21
TORSDOF 6
