REMARK  Name = ZINC15225680
REMARK  6 active torsions:
REMARK  status: ('A' for Active; 'I' for Inactive)
REMARK    1  A    between atoms: C_1  and  C_2
REMARK    2  A    between atoms: C_2  and  C_4
REMARK    3  A    between atoms: C_2  and  O_10
REMARK    4  A    between atoms: O_10  and  C_11
REMARK    5  A    between atoms: C_11  and  C_13
REMARK    6  A    between atoms: C_27  and  C_28
REMARK                            x       y       z     vdW  Elec       q    Type
REMARK                         _______ _______ _______ _____ _____    ______ ____
ROOT
ATOM      1  C   UNL     1      -3.642  -1.069  -2.119  0.00  0.00    +0.073 A 
ATOM      2  C   UNL     1      -4.800  -0.214  -1.857  0.00  0.00    +0.015 A 
ATOM      3  C   UNL     1      -4.702   1.181  -1.889  0.00  0.00    +0.011 A 
ATOM      4  C   UNL     1      -5.807   1.940  -1.640  0.00  0.00    +0.001 A 
ATOM      5  C   UNL     1      -7.033   1.345  -1.354  0.00  0.00    +0.002 A 
ATOM      6  C   UNL     1      -7.163  -0.010  -1.314  0.00  0.00    +0.028 A 
ATOM      7  C   UNL     1      -6.045  -0.826  -1.566  0.00  0.00    +0.072 A 
ATOM      8  N   UNL     1      -6.141  -2.155  -1.532  0.00  0.00    -0.247 NA
ATOM      9  C   UNL     1      -5.109  -2.951  -1.765  0.00  0.00    +0.072 A 
ATOM     10  C   UNL     1      -3.833  -2.444  -2.074  0.00  0.00    -0.007 A 
ATOM     11  C   UNL     1      -2.666  -3.348  -2.360  0.00  0.00    +0.038 C 
ATOM     12  C   UNL     1      -2.879  -4.733  -1.756  0.00  0.00    +0.009 C 
ATOM     13  C   UNL     1      -4.215  -5.302  -2.250  0.00  0.00    +0.037 C 
ATOM     14  C   UNL     1      -5.312  -4.413  -1.699  0.00  0.00    -0.021 C 
ATOM     15  C   UNL     1      -6.444  -4.937  -1.181  0.00  0.00    +0.020 C 
ENDROOT
BRANCH  15  16
ATOM     16  C   UNL     1      -6.718  -6.367  -1.321  0.00  0.00    +0.013 A 
ATOM     17  C   UNL     1      -7.732  -7.123  -0.751  0.00  0.00    +0.015 A 
ATOM     18  C   UNL     1      -7.783  -8.466  -1.036  0.00  0.00    +0.008 A 
ATOM     19  C   UNL     1      -6.847  -9.008  -1.860  0.00  0.00    +0.046 A 
ATOM     20  S   UNL     1      -5.840  -7.594  -2.276  0.00  0.00    -0.097 S 
ENDBRANCH  15  16
BRANCH   1  21
ATOM     21  C   UNL     1      -2.317  -0.491  -2.426  0.00  0.00    +0.341 C 
ATOM     22  O   UNL     1      -2.010  -0.253  -3.577  0.00  0.00    -0.245 OA
BRANCH  21  23
ATOM     23  O   UNL     1      -1.450  -0.227  -1.429  0.00  0.00    -0.449 OA
BRANCH  23  25
ATOM     24  C   UNL     1      -0.287   1.859  -1.803  0.00  0.00    +0.062 C 
ATOM     25  C   UNL     1      -0.188   0.332  -1.798  0.00  0.00    +0.259 C 
BRANCH  25  26
ATOM     26  C   UNL     1       0.862  -0.100  -0.807  0.00  0.00    +0.261 C 
ATOM     27  O   UNL     1       0.544  -0.740   0.172  0.00  0.00    -0.271 OA
ATOM     28  N   UNL     1       2.154   0.225  -1.010  0.00  0.00    -0.237 N 
ATOM     29  C   UNL     1       3.093  -0.161  -0.123  0.00  0.00    +0.303 C 
ATOM     30  O   UNL     1       2.775  -0.803   0.859  0.00  0.00    -0.253 OA
ATOM     31  N   UNL     1       4.386   0.163  -0.326  0.00  0.00    -0.313 N 
ATOM     32  H   UNL     1       2.409   0.737  -1.794  0.00  0.00    +0.159 HD
ATOM     33  H   UNL     1       4.640   0.675  -1.110  0.00  0.00    +0.146 HD
ATOM     34  H   UNL     1       5.061  -0.115   0.312  0.00  0.00    +0.146 HD
ENDBRANCH  25  26
ENDBRANCH  23  25
ENDBRANCH  21  23
ENDBRANCH   1  21
TORSDOF 5
