REMARK  Name = ZINC40346837
REMARK  9 active torsions:
REMARK  status: ('A' for Active; 'I' for Inactive)
REMARK    1  A    between atoms: C_1  and  C_2
REMARK    2  A    between atoms: C_2  and  C_3
REMARK    3  A    between atoms: C_2  and  N_4
REMARK    4  A    between atoms: C_5  and  C_7
REMARK    5  A    between atoms: C_7  and  N_8
REMARK    6  A    between atoms: N_8  and  C_9
REMARK    7  A    between atoms: N_8  and  S_10
REMARK    8  A    between atoms: S_10  and  C_13
REMARK    9  A    between atoms: C_14  and  N_21
REMARK                            x       y       z     vdW  Elec       q    Type
REMARK                         _______ _______ _______ _____ _____    ______ ____
ROOT
ATOM      1  S   UNL     1      -3.737  -3.890  -3.341  0.00  0.00    +0.064 S 
ATOM      2  O   UNL     1      -4.158  -5.208  -3.664  0.00  0.00    -0.153 OA
ATOM      3  O   UNL     1      -4.403  -2.736  -3.833  0.00  0.00    -0.153 OA
ENDROOT
BRANCH   1   4
ATOM      4  C   UNL     1      -2.056  -3.759  -3.854  0.00  0.00    +0.140 A 
ATOM      5  C   UNL     1      -1.502  -2.511  -4.107  0.00  0.00    +0.053 A 
ATOM      6  C   UNL     1      -0.177  -2.411  -4.511  0.00  0.00    +0.040 A 
ATOM      7  C   UNL     1       0.586  -3.554  -4.660  0.00  0.00    +0.021 A 
ATOM      8  C   UNL     1       0.031  -4.796  -4.409  0.00  0.00    +0.032 A 
ATOM      9  C   UNL     1      -1.287  -4.898  -4.001  0.00  0.00    +0.047 A 
ATOM     10 BR   UNL     1      -2.039  -6.597  -3.650  0.00  0.00    -0.048 Br
ATOM     11 BR   UNL     1       2.391  -3.420  -5.210  0.00  0.00    -0.050 Br
BRANCH   5  12
ATOM     12  N   UNL     1      -2.276  -1.358  -3.955  0.00  0.00    -0.356 N 
ATOM     13  H   UNL     1      -3.075  -1.379  -3.406  0.00  0.00    +0.142 HD
ATOM     14  H   UNL     1      -2.013  -0.536  -4.399  0.00  0.00    +0.142 HD
ENDBRANCH   5  12
ENDBRANCH   1   4
BRANCH   1  15
ATOM     15  N   UNL     1      -3.754  -3.779  -1.689  0.00  0.00    -0.171 NA
ATOM     16  C   UNL     1      -3.638  -4.989  -0.872  0.00  0.00    +0.132 C 
BRANCH  15  17
ATOM     17  C   UNL     1      -3.887  -2.470  -1.045  0.00  0.00    +0.204 C 
BRANCH  17  19
ATOM     18  N   UNL     1      -2.393  -0.737  -0.104  0.00  0.00    -0.312 N 
ATOM     19  C   UNL     1      -2.519  -1.936  -0.707  0.00  0.00    +0.229 C 
ATOM     20  O   UNL     1      -1.530  -2.584  -0.978  0.00  0.00    -0.274 OA
ATOM     21  H   UNL     1      -3.184  -0.218   0.113  0.00  0.00    +0.149 HD
BRANCH  18  23
ATOM     22  C   UNL     1      -1.117   1.310   0.300  0.00  0.00    +0.027 C 
ATOM     23  C   UNL     1      -1.063  -0.218   0.225  0.00  0.00    +0.067 C 
ATOM     24  C   UNL     1      -0.616  -0.780   1.575  0.00  0.00    +0.027 C 
ENDBRANCH  18  23
ENDBRANCH  17  19
ENDBRANCH  15  17
ENDBRANCH   1  15
TORSDOF 6
