REMARK  Name = ZINC37557555
REMARK  4 active torsions:
REMARK  status: ('A' for Active; 'I' for Inactive)
REMARK    1  A    between atoms: C_1  and  C_2
REMARK    2  A    between atoms: C_8  and  N_10
REMARK    3  A    between atoms: N_10  and  S_11
REMARK    4  A    between atoms: S_11  and  C_14
REMARK                            x       y       z     vdW  Elec       q    Type
REMARK                         _______ _______ _______ _____ _____    ______ ____
ROOT
ATOM      1  S   UNL     1       2.814   0.504   2.635  0.00  0.00    +0.063 S 
ATOM      2  O   UNL     1       4.086   1.089   2.390  0.00  0.00    -0.153 OA
ATOM      3  O   UNL     1       1.751   1.221   3.247  0.00  0.00    -0.153 OA
ENDROOT
BRANCH   1   4
ATOM      4  C   UNL     1       3.099  -0.922   3.630  0.00  0.00    +0.164 A 
ATOM      5  C   UNL     1       2.446  -1.240   4.771  0.00  0.00    +0.135 A 
ATOM      6  N   UNL     1       2.954  -2.404   5.228  0.00  0.00    -0.281 N 
ATOM      7  H   UNL     1       2.675  -2.871   6.031  0.00  0.00    +0.188 HD
ATOM      8  N   UNL     1       3.955  -2.818   4.341  0.00  0.00    -0.157 NA
ATOM      9  C   UNL     1       4.040  -1.933   3.376  0.00  0.00    +0.164 A 
ATOM     10  N   UNL     1       4.917  -1.985   2.286  0.00  0.00    -0.340 N 
ATOM     11  H   UNL     1       4.861  -1.316   1.586  0.00  0.00    +0.144 HD
ATOM     12  H   UNL     1       5.582  -2.689   2.232  0.00  0.00    +0.144 HD
ENDBRANCH   1   4
BRANCH   1  13
ATOM     13  N   UNL     1       2.248  -0.025   1.171  0.00  0.00    -0.186 NA
ATOM     14  H   UNL     1       2.768   0.126   0.366  0.00  0.00    +0.148 HD
BRANCH  13  21
ATOM     15  C   UNL     1      -0.170   1.431   0.520  0.00  0.00    +0.009 C 
ATOM     16  C   UNL     1       0.060  -0.016   0.077  0.00  0.00    +0.005 C 
ATOM     17  C   UNL     1       0.733  -0.028  -1.297  0.00  0.00    +0.005 C 
ATOM     18  C   UNL     1       0.963  -1.474  -1.739  0.00  0.00    +0.000 C 
ATOM     19  C   UNL     1       1.864  -2.181  -0.725  0.00  0.00    +0.002 C 
ATOM     20  C   UNL     1       1.192  -2.168   0.650  0.00  0.00    +0.020 C 
ATOM     21  C   UNL     1       0.962  -0.722   1.092  0.00  0.00    +0.079 C 
ENDBRANCH  13  21
ENDBRANCH   1  13
TORSDOF 3
