REMARK  Name = ZINC65266004
REMARK  9 active torsions:
REMARK  status: ('A' for Active; 'I' for Inactive)
REMARK    1  A    between atoms: C_1  and  C_2
REMARK    2  A    between atoms: C_4  and  C_31
REMARK    3  A    between atoms: N_5  and  C_7
REMARK    4  A    between atoms: C_7  and  C_8
REMARK    5  A    between atoms: C_8  and  C_9
REMARK    6  A    between atoms: N_26  and  C_27
REMARK    7  A    between atoms: C_27  and  C_28
REMARK    8  A    between atoms: C_27  and  C_29
REMARK    9  A    between atoms: C_27  and  C_30
REMARK                            x       y       z     vdW  Elec       q    Type
REMARK                         _______ _______ _______ _____ _____    ______ ____
ROOT
ATOM      1  C   UNL     1      -0.298  -6.178   3.725  0.00  0.00    +0.217 C 
ATOM      2  O   UNL     1      -1.031  -6.821   4.447  0.00  0.00    -0.276 OA
ATOM      3  N   UNL     1       1.032  -6.395   3.751  0.00  0.00    -0.299 N 
ATOM      4  C   UNL     1       2.035  -5.684   2.935  0.00  0.00    +0.110 C 
ATOM      5  C   UNL     1       3.363  -5.820   3.726  0.00  0.00    +0.050 C 
ATOM      6  C   UNL     1       3.224  -7.235   4.316  0.00  0.00    +0.091 C 
ATOM      7  C   UNL     1       1.726  -7.376   4.602  0.00  0.00    +0.137 C 
ATOM      8  C   UNL     1       4.046  -7.405   5.549  0.00  0.00    +0.095 C 
ATOM      9  N   UNL     1       5.329  -7.864   5.376  0.00  0.00    -0.303 N 
ATOM     10  C   UNL     1       5.558  -9.237   5.381  0.00  0.00    +0.037 A 
ATOM     11  C   UNL     1       6.620  -9.761   6.104  0.00  0.00    +0.023 A 
ATOM     12  C   UNL     1       6.859 -11.121   6.100  0.00  0.00    +0.002 A 
ATOM     13  C   UNL     1       6.031 -11.954   5.369  0.00  0.00    +0.000 A 
ATOM     14  C   UNL     1       4.973 -11.434   4.655  0.00  0.00    +0.007 A 
ATOM     15  C   UNL     1       4.713 -10.066   4.655  0.00  0.00    -0.012 A 
ATOM     16  C   UNL     1       3.510  -9.603   3.874  0.00  0.00    +0.119 C 
ATOM     17  N   UNL     1       3.671  -8.248   3.333  0.00  0.00    -0.299 NA
ATOM     18  N   UNL     1       3.575  -7.133   6.722  0.00  0.00    -0.370 N 
ATOM     19  H   UNL     1       3.177  -8.146   2.459  0.00  0.00    +0.123 HD
ATOM     20  H   UNL     1       2.618  -7.043   6.852  0.00  0.00    +0.161 HD
ATOM     21  H   UNL     1       6.063  -7.242   5.252  0.00  0.00    +0.153 HD
ENDROOT
BRANCH  18  22
ATOM     22  C   UNL     1       4.486  -6.959   7.856  0.00  0.00    +0.031 C 
ATOM     23  C   UNL     1       5.538  -5.904   7.508  0.00  0.00    +0.033 C 
ATOM     24  C   UNL     1       3.694  -6.504   9.083  0.00  0.00    +0.033 C 
ATOM     25  C   UNL     1       5.180  -8.289   8.161  0.00  0.00    +0.033 C 
ENDBRANCH  18  22
BRANCH   1  26
ATOM     26  C   UNL     1      -0.874  -5.137   2.800  0.00  0.00    +0.119 C 
BRANCH  26  27
ATOM     27  C   UNL     1      -2.394  -5.092   2.967  0.00  0.00    +0.153 C 
BRANCH  27  32
ATOM     28  C   UNL     1      -4.049  -0.689   1.214  0.00  0.00    +0.067 C 
ATOM     29  C   UNL     1      -3.673  -2.144   1.322  0.00  0.00    +0.060 A 
ATOM     30  C   UNL     1      -3.815  -3.105   0.315  0.00  0.00    +0.047 A 
ATOM     31  C   UNL     1      -3.366  -4.286   0.799  0.00  0.00    +0.036 A 
ATOM     32  N   UNL     1      -2.955  -4.080   2.068  0.00  0.00    -0.268 N 
ATOM     33  N   UNL     1      -3.153  -2.727   2.372  0.00  0.00    -0.176 NA
ATOM     34  C   UNL     1      -3.332  -5.596   0.056  0.00  0.00    +0.065 C 
ENDBRANCH  27  32
ENDBRANCH  26  27
ENDBRANCH   1  26
TORSDOF 4
