REMARK  Name = ZINC14655137
REMARK  10 active torsions:
REMARK  status: ('A' for Active; 'I' for Inactive)
REMARK    1  A    between atoms: C_1  and  C_2
REMARK    2  A    between atoms: C_2  and  C_3
REMARK    3  A    between atoms: C_3  and  C_4
REMARK    4  A    between atoms: C_4  and  N_5
REMARK    5  A    between atoms: C_6  and  N_29
REMARK    6  A    between atoms: C_7  and  N_14
REMARK    7  A    between atoms: N_14  and  C_15
REMARK    8  A    between atoms: C_16  and  C_18
REMARK    9  A    between atoms: C_18  and  C_19
REMARK   10  A    between atoms: C_26  and  C_28
REMARK                            x       y       z     vdW  Elec       q    Type
REMARK                         _______ _______ _______ _____ _____    ______ ____
ROOT
ATOM      1  N   UNL     1      -1.011  -0.857   0.585  0.00  0.00    -0.280 N 
ATOM      2  C   UNL     1      -1.118  -1.432  -0.660  0.00  0.00    +0.127 A 
ATOM      3  C   UNL     1      -0.028  -2.085  -1.197  0.00  0.00    +0.139 A 
ATOM      4  C   UNL     1       1.161  -2.153  -0.447  0.00  0.00    +0.277 A 
ATOM      5  O   UNL     1       2.138  -2.728  -0.895  0.00  0.00    -0.266 OA
ATOM      6  N   UNL     1       1.212  -1.577   0.770  0.00  0.00    -0.273 N 
ATOM      7  H   UNL     1       2.056  -1.623   1.304  0.00  0.00    +0.173 HD
ATOM      8  C   UNL     1       0.141  -0.940   1.275  0.00  0.00    +0.331 A 
ATOM      9  O   UNL     1       0.214  -0.429   2.376  0.00  0.00    -0.246 OA
ENDROOT
BRANCH   3  10
ATOM     10  N   UNL     1      -0.105  -2.681  -2.474  0.00  0.00    -0.267 N 
ATOM     11  C   UNL     1      -0.263  -1.842  -3.665  0.00  0.00    +0.138 C 
ATOM     12  C   UNL     1      -0.034  -4.023  -2.598  0.00  0.00    +0.224 C 
ATOM     13  O   UNL     1       0.186  -4.711  -1.624  0.00  0.00    -0.275 OA
BRANCH  12  14
ATOM     14  C   UNL     1      -0.228  -4.666  -3.947  0.00  0.00    +0.135 C 
BRANCH  14  15
ATOM     15  C   UNL     1      -0.101  -6.162  -3.813  0.00  0.00    +0.007 A 
ATOM     16  C   UNL     1       1.000  -6.897  -4.018  0.00  0.00    +0.200 A 
ATOM     17  O   UNL     1       0.736  -8.197  -3.804  0.00  0.00    -0.463 OA
ATOM     18  C   UNL     1      -0.553  -8.374  -3.448  0.00  0.00    +0.135 A 
ATOM     19  C   UNL     1      -1.157  -7.105  -3.426  0.00  0.00    +0.024 A 
ATOM     20  C   UNL     1      -2.501  -6.975  -3.081  0.00  0.00    +0.012 A 
ATOM     21  C   UNL     1      -3.232  -8.097  -2.760  0.00  0.00    +0.004 A 
ATOM     22  C   UNL     1      -2.636  -9.350  -2.779  0.00  0.00    -0.047 A 
ATOM     23  C   UNL     1      -1.310  -9.493  -3.126  0.00  0.00    +0.050 A 
ATOM     24  C   UNL     1      -3.450 -10.568  -2.425  0.00  0.00    +0.044 C 
ENDBRANCH  14  15
ENDBRANCH  12  14
ENDBRANCH   3  10
BRANCH   2  25
ATOM     25  N   UNL     1      -2.296  -1.352  -1.363  0.00  0.00    -0.343 N 
ATOM     26  H   UNL     1      -3.025  -0.806  -1.028  0.00  0.00    +0.144 HD
ATOM     27  H   UNL     1      -2.399  -1.841  -2.195  0.00  0.00    +0.144 HD
ENDBRANCH   2  25
BRANCH   1  28
ATOM     28  C   UNL     1      -2.159  -0.156   1.165  0.00  0.00    +0.128 C 
BRANCH  28  29
ATOM     29  C   UNL     1      -2.110   1.320   0.766  0.00  0.00    +0.021 C 
BRANCH  29  31
ATOM     30  C   UNL     1      -3.260   3.529   0.973  0.00  0.00    +0.004 C 
ATOM     31  C   UNL     1      -3.309   2.053   1.371  0.00  0.00    -0.002 C 
ENDBRANCH  29  31
ENDBRANCH  28  29
ENDBRANCH   1  28
TORSDOF 7
