REMARK  Name = ZINC27553089
REMARK  3 active torsions:
REMARK  status: ('A' for Active; 'I' for Inactive)
REMARK    1  A    between atoms: C_8  and  C_20
REMARK    2  A    between atoms: C_10  and  N_11
REMARK    3  A    between atoms: C_12  and  C_14
REMARK                            x       y       z     vdW  Elec       q    Type
REMARK                         _______ _______ _______ _____ _____    ______ ____
ROOT
ATOM      1  C   UNL     1      -0.028   1.290   0.049  0.00  0.00    +0.001 A 
ATOM      2  C   UNL     1       1.146   2.037   0.042  0.00  0.00    +0.001 A 
ATOM      3  C   UNL     1       2.367   1.428   0.014  0.00  0.00    +0.012 A 
ATOM      4  C   UNL     1       2.441   0.033  -0.007  0.00  0.00    +0.026 A 
ATOM      5  C   UNL     1       1.246  -0.730   0.001  0.00  0.00    -0.012 A 
ATOM      6  C   UNL     1       0.007  -0.073   0.029  0.00  0.00    +0.009 A 
ATOM      7  C   UNL     1       1.349  -2.133  -0.020  0.00  0.00    +0.038 A 
ATOM      8  C   UNL     1       2.600  -2.719  -0.047  0.00  0.00    +0.092 A 
ATOM      9  N   UNL     1       3.723  -2.002  -0.053  0.00  0.00    -0.226 NA
ATOM     10  C   UNL     1       3.719  -0.677  -0.036  0.00  0.00    +0.163 A 
ENDROOT
BRANCH   8  11
ATOM     11  C   UNL     1       2.696  -4.199  -0.069  0.00  0.00    +0.089 A 
ATOM     12  C   UNL     1       3.948  -4.809  -0.090  0.00  0.00    +0.030 A 
ATOM     13  C   UNL     1       4.022  -6.191  -0.111  0.00  0.00    +0.004 A 
ATOM     14  C   UNL     1       2.840  -6.918  -0.108  0.00  0.00    +0.020 A 
ATOM     15  C   UNL     1       1.631  -6.246  -0.087  0.00  0.00    +0.111 A 
ATOM     16  N   UNL     1       1.589  -4.930  -0.062  0.00  0.00    -0.253 NA
ENDBRANCH   8  11
BRANCH  10  17
ATOM     17  N   UNL     1       4.890   0.014  -0.044  0.00  0.00    -0.212 NA
ATOM     18  C   UNL     1       5.494   0.268  -1.183  0.00  0.00    +0.126 C 
ATOM     19  N   UNL     1       4.891  -0.066  -2.370  0.00  0.00    -0.343 N 
ATOM     20  H   UNL     1       3.987  -0.417  -2.373  0.00  0.00    +0.144 HD
ATOM     21  H   UNL     1       5.369   0.049  -3.207  0.00  0.00    +0.144 HD
BRANCH  18  22
ATOM     22  C   UNL     1       6.825   0.914  -1.186  0.00  0.00    +0.017 A 
ATOM     23  C   UNL     1       7.460   1.258   0.013  0.00  0.00    +0.031 A 
ATOM     24  C   UNL     1       8.702   1.860  -0.037  0.00  0.00    +0.111 A 
ATOM     25  N   UNL     1       9.287   2.111  -1.191  0.00  0.00    -0.263 NA
ATOM     26  C   UNL     1       8.724   1.804  -2.343  0.00  0.00    +0.111 A 
ATOM     27  C   UNL     1       7.486   1.194  -2.387  0.00  0.00    +0.031 A 
ENDBRANCH  18  22
ENDBRANCH  10  17
TORSDOF 3
