REMARK  Name = ZINC05948666
REMARK  3 active torsions:
REMARK  status: ('A' for Active; 'I' for Inactive)
REMARK    1  A    between atoms: C_14  and  C_16
REMARK    2  A    between atoms: C_16  and  S_17
REMARK    3  A    between atoms: S_17  and  C_18
REMARK                            x       y       z     vdW  Elec       q    Type
REMARK                         _______ _______ _______ _____ _____    ______ ____
ROOT
ATOM      1  C   UNL     1      -0.017   1.364   0.009  0.00  0.00    +0.001 A 
ATOM      2  C   UNL     1       1.168   2.088   0.002  0.00  0.00    +0.002 A 
ATOM      3  C   UNL     1       2.380   1.457  -0.013  0.00  0.00    +0.026 A 
ATOM      4  C   UNL     1       2.433   0.059  -0.021  0.00  0.00    +0.054 A 
ATOM      5  C   UNL     1       1.224  -0.673  -0.013  0.00  0.00    +0.061 A 
ATOM      6  C   UNL     1       0.002  -0.004   0.002  0.00  0.00    +0.015 A 
ATOM      7  C   UNL     1       1.312  -2.138  -0.022  0.00  0.00    +0.255 C 
ATOM      8  O   UNL     1       0.311  -2.830  -0.016  0.00  0.00    -0.269 OA
ATOM      9  N   UNL     1       2.567  -2.702  -0.037  0.00  0.00    -0.234 N 
ATOM     10  C   UNL     1       3.686  -1.924  -0.044  0.00  0.00    +0.177 C 
ATOM     11  N   UNL     1       3.607  -0.604  -0.037  0.00  0.00    -0.328 N 
ATOM     12  N   UNL     1       4.837  -2.681  -0.060  0.00  0.00    -0.357 N 
ATOM     13  C   UNL     1       4.488  -4.104  -0.063  0.00  0.00    +0.139 C 
ATOM     14  C   UNL     1       2.951  -4.122  -0.049  0.00  0.00    +0.114 C 
ATOM     15  H   UNL     1       5.739  -2.326  -0.067  0.00  0.00    +0.162 HD
ATOM     16  H   UNL     1       4.430  -0.090  -0.043  0.00  0.00    +0.169 HD
ENDROOT
BRANCH  14  17
ATOM     17  C   UNL     1       2.437  -4.824   1.210  0.00  0.00    +0.099 C 
BRANCH  17  18
ATOM     18  S   UNL     1       0.623  -4.832   1.200  0.00  0.00    -0.122 S 
BRANCH  18  19
ATOM     19  C   UNL     1       0.193  -5.664   2.693  0.00  0.00    +0.026 A 
ATOM     20  C   UNL     1       1.188  -6.123   3.546  0.00  0.00    +0.017 A 
ATOM     21  C   UNL     1       0.848  -6.775   4.715  0.00  0.00    +0.021 A 
ATOM     22  C   UNL     1      -0.484  -6.971   5.037  0.00  0.00    +0.042 A 
ATOM     23  C   UNL     1      -1.478  -6.515   4.190  0.00  0.00    +0.041 A 
ATOM     24  C   UNL     1      -1.144  -5.856   3.022  0.00  0.00    +0.056 A 
ATOM     25 CL   UNL     1      -2.392  -5.278   1.963  0.00  0.00    -0.082 Cl
ATOM     26 CL   UNL     1      -0.907  -7.791   6.508  0.00  0.00    -0.083 Cl
ENDBRANCH  18  19
ENDBRANCH  17  18
ENDBRANCH  14  17
TORSDOF 3
