REMARK  Name = ZINC45485203
REMARK  7 active torsions:
REMARK  status: ('A' for Active; 'I' for Inactive)
REMARK    1  A    between atoms: C_1  and  C_2
REMARK    2  A    between atoms: C_11  and  N_31
REMARK    3  A    between atoms: C_13  and  S_15
REMARK    4  A    between atoms: S_15  and  C_16
REMARK    5  A    between atoms: C_16  and  C_17
REMARK    6  A    between atoms: N_19  and  C_20
REMARK    7  A    between atoms: C_21  and  C_28
REMARK                            x       y       z     vdW  Elec       q    Type
REMARK                         _______ _______ _______ _____ _____    ______ ____
ROOT
ATOM      1  S   UNL     1       3.146  -8.060   0.631  0.00  0.00    -0.077 S 
ENDROOT
BRANCH   1  13
ATOM      2  C   UNL     1      -1.968   0.756   0.315  0.00  0.00    +0.008 C 
ATOM      3  C   UNL     1      -1.497  -0.696   0.209  0.00  0.00    -0.009 C 
ATOM      4  C   UNL     1      -0.576  -0.850  -1.005  0.00  0.00    +0.008 C 
ATOM      5  C   UNL     1      -0.302  -2.332  -1.262  0.00  0.00    +0.037 C 
ATOM      6  C   UNL     1       0.203  -2.973   0.028  0.00  0.00    -0.025 A 
ATOM      7  C   UNL     1      -0.006  -2.373   1.221  0.00  0.00    -0.004 A 
ATOM      8  S   UNL     1       0.733  -3.450   2.423  0.00  0.00    -0.073 S 
ATOM      9  C   UNL     1       1.322  -4.702   1.329  0.00  0.00    +0.115 A 
ATOM     10  C   UNL     1       0.920  -4.238   0.051  0.00  0.00    +0.051 A 
ATOM     11  C   UNL     1       1.260  -5.053  -1.068  0.00  0.00    +0.129 A 
ATOM     12  N   UNL     1       1.924  -6.173  -0.793  0.00  0.00    -0.207 NA
ATOM     13  C   UNL     1       2.268  -6.546   0.430  0.00  0.00    +0.191 A 
ATOM     14  N   UNL     1       1.980  -5.828   1.519  0.00  0.00    -0.214 NA
ATOM     15  C   UNL     1      -0.716  -1.077   1.474  0.00  0.00    +0.046 C 
BRANCH  11  16
ATOM     16  N   UNL     1       0.919  -4.701  -2.361  0.00  0.00    -0.343 N 
ATOM     17  H   UNL     1       1.360  -5.128  -3.112  0.00  0.00    +0.144 HD
ATOM     18  H   UNL     1       0.239  -4.027  -2.518  0.00  0.00    +0.144 HD
ENDBRANCH  11  16
ENDBRANCH   1  13
BRANCH   1  19
ATOM     19  C   UNL     1       3.321  -8.694  -1.060  0.00  0.00    +0.173 C 
BRANCH  19  20
ATOM     20  C   UNL     1       4.065 -10.004  -1.031  0.00  0.00    +0.228 C 
ATOM     21  O   UNL     1       4.441 -10.465   0.026  0.00  0.00    -0.275 OA
ATOM     22  N   UNL     1       4.313 -10.664  -2.180  0.00  0.00    -0.279 N 
ATOM     23  H   UNL     1       4.012 -10.295  -3.025  0.00  0.00    +0.155 HD
BRANCH  22  24
ATOM     24  C   UNL     1       4.997 -11.869  -2.154  0.00  0.00    +0.084 A 
ATOM     25  C   UNL     1       5.343 -12.674  -3.223  0.00  0.00    +0.068 A 
ATOM     26  C   UNL     1       6.071 -13.907  -2.926  0.00  0.00    -0.023 A 
ATOM     27  C   UNL     1       6.314 -14.098  -1.617  0.00  0.00    -0.004 A 
ATOM     28  S   UNL     1       5.603 -12.682  -0.818  0.00  0.00    -0.077 S 
ATOM     29  C   UNL     1       7.061 -15.380  -1.367  0.00  0.00    +0.043 C 
ATOM     30  C   UNL     1       6.886 -16.194  -2.668  0.00  0.00    +0.010 C 
ATOM     31  C   UNL     1       6.659 -15.079  -3.709  0.00  0.00    +0.037 C 
BRANCH  25  32
ATOM     32  C   UNL     1       4.992 -12.308  -4.599  0.00  0.00    +0.244 C 
ATOM     33  O   UNL     1       5.760 -11.638  -5.264  0.00  0.00    -0.270 OA
ATOM     34  N   UNL     1       3.820 -12.712  -5.126  0.00  0.00    -0.325 N 
ATOM     35  H   UNL     1       3.208 -13.245  -4.595  0.00  0.00    +0.145 HD
ATOM     36  H   UNL     1       3.588 -12.470  -6.036  0.00  0.00    +0.145 HD
ENDBRANCH  25  32
ENDBRANCH  22  24
ENDBRANCH  19  20
ENDBRANCH   1  19
TORSDOF 6
