REMARK  Name = ZINC03353904
REMARK  3 active torsions:
REMARK  status: ('A' for Active; 'I' for Inactive)
REMARK    1  A    between atoms: C_1  and  C_2
REMARK    2  A    between atoms: C_5  and  C_8
REMARK    3  A    between atoms: C_14  and  C_16
REMARK                            x       y       z     vdW  Elec       q    Type
REMARK                         _______ _______ _______ _____ _____    ______ ____
ROOT
ATOM      1  C   UNL     1       8.363  -0.885  -0.116  0.00  0.00    +0.080 A 
ATOM      2  C   UNL     1       8.193  -2.242  -0.124  0.00  0.00    +0.076 A 
ATOM      3  S   UNL     1       6.408  -2.352  -0.094  0.00  0.00    -0.060 S 
ATOM      4  C   UNL     1       6.076  -0.596  -0.083  0.00  0.00    +0.165 A 
ATOM      5  N   UNL     1       7.298  -0.097  -0.095  0.00  0.00    -0.225 NA
ATOM      6  N   UNL     1       4.857   0.068  -0.061  0.00  0.00    -0.261 N 
ATOM      7  C   UNL     1       3.707  -0.636  -0.052  0.00  0.00    +0.250 C 
ATOM      8  O   UNL     1       3.738  -1.851  -0.062  0.00  0.00    -0.270 OA
ATOM      9  H   UNL     1       4.832   1.037  -0.053  0.00  0.00    +0.157 HD
ENDROOT
BRANCH   7  10
ATOM     10  C   UNL     1       2.412   0.069  -0.029  0.00  0.00    +0.039 A 
ATOM     11  C   UNL     1       2.378   1.466  -0.018  0.00  0.00    +0.014 A 
ATOM     12  C   UNL     1       1.167   2.121   0.002  0.00  0.00    +0.017 A 
ATOM     13  C   UNL     1      -0.017   1.395   0.010  0.00  0.00    +0.030 A 
ATOM     14  C   UNL     1       0.002  -0.004   0.002  0.00  0.00    +0.048 A 
ATOM     15  C   UNL     1       1.221  -0.662  -0.019  0.00  0.00    +0.037 A 
ATOM     16  N   UNL     1      -1.175  -0.748   0.021  0.00  0.00    -0.284 N 
ATOM     17  C   UNL     1      -2.379  -0.325  -0.354  0.00  0.00    +0.227 C 
ATOM     18  O   UNL     1      -3.307  -1.104  -0.288  0.00  0.00    -0.275 OA
ATOM     19  C   UNL     1      -2.655   1.066  -0.857  0.00  0.00    +0.170 C 
ATOM     20  S   UNL     1      -1.572   2.231   0.022  0.00  0.00    -0.114 S 
ATOM     21  H   UNL     1      -1.111  -1.663   0.337  0.00  0.00    +0.155 HD
ENDBRANCH   7  10
BRANCH   1  26
ATOM     22  C   UNL     1      13.657   1.381  -0.165  0.00  0.00    +0.044 C 
ATOM     23  C   UNL     1      12.271   0.788  -0.152  0.00  0.00    -0.050 A 
ATOM     24  C   UNL     1      11.166   1.619  -0.132  0.00  0.00    +0.004 A 
ATOM     25  C   UNL     1       9.895   1.082  -0.120  0.00  0.00    +0.010 A 
ATOM     26  C   UNL     1       9.726  -0.302  -0.129  0.00  0.00    +0.001 A 
ATOM     27  C   UNL     1      10.844  -1.135  -0.143  0.00  0.00    +0.010 A 
ATOM     28  C   UNL     1      12.110  -0.586  -0.160  0.00  0.00    +0.004 A 
ENDBRANCH   1  26
TORSDOF 2
