REMARK  Name = ZINC60485354
REMARK  5 active torsions:
REMARK  status: ('A' for Active; 'I' for Inactive)
REMARK    1  A    between atoms: C_1  and  C_2
REMARK    2  A    between atoms: C_2  and  O_3
REMARK    3  A    between atoms: O_3  and  C_4
REMARK    4  A    between atoms: N_7  and  C_10
REMARK    5  A    between atoms: C_10  and  C_11
REMARK                            x       y       z     vdW  Elec       q    Type
REMARK                         _______ _______ _______ _____ _____    ______ ____
ROOT
ATOM      1  C   UNL     1       2.091  -6.152  -4.098  0.00  0.00    +0.116 A 
ATOM      2  N   UNL     1       1.930  -6.153  -5.410  0.00  0.00    -0.219 NA
ATOM      3  C   UNL     1       2.952  -6.248  -6.245  0.00  0.00    +0.128 A 
ATOM      4  C   UNL     1       4.269  -6.352  -5.718  0.00  0.00    +0.051 A 
ATOM      5  C   UNL     1       5.538  -6.466  -6.446  0.00  0.00    -0.025 A 
ATOM      6  C   UNL     1       6.657  -6.556  -5.700  0.00  0.00    -0.004 A 
ATOM      7  S   UNL     1       6.103  -6.485  -4.016  0.00  0.00    -0.073 S 
ATOM      8  C   UNL     1       4.361  -6.343  -4.313  0.00  0.00    +0.114 A 
ATOM      9  N   UNL     1       3.289  -6.240  -3.552  0.00  0.00    -0.227 NA
ATOM     10  C   UNL     1       8.069  -6.699  -6.178  0.00  0.00    +0.043 C 
ATOM     11  C   UNL     1       8.347  -5.649  -7.261  0.00  0.00    +0.005 C 
ATOM     12  C   UNL     1       7.986  -6.248  -8.616  0.00  0.00    +0.001 C 
ATOM     13  C   UNL     1       6.809  -7.210  -8.464  0.00  0.00    +0.005 C 
ATOM     14  C   UNL     1       5.573  -6.469  -7.971  0.00  0.00    +0.037 C 
ATOM     15  N   UNL     1       2.742  -6.247  -7.612  0.00  0.00    -0.343 N 
ATOM     16  H   UNL     1       3.439  -5.934  -8.210  0.00  0.00    +0.144 HD
ATOM     17  H   UNL     1       1.897  -6.560  -7.974  0.00  0.00    +0.144 HD
ENDROOT
BRANCH   1  18
ATOM     18  C   UNL     1       0.881  -6.040  -3.207  0.00  0.00    -0.001 C 
BRANCH  18  22
ATOM     19  C   UNL     1       0.152  -2.359  -1.189  0.00  0.00    +0.115 C 
ATOM     20  C   UNL     1      -0.987  -3.034  -1.959  0.00  0.00    +0.013 C 
ATOM     21  C   UNL     1      -0.646  -4.511  -2.171  0.00  0.00    -0.076 C 
ATOM     22  N   UNL     1       0.600  -4.623  -2.939  0.00  0.00    +0.385 N 
ATOM     23  C   UNL     1       1.710  -4.042  -2.175  0.00  0.00    -0.076 C 
ATOM     24  C   UNL     1       1.460  -2.547  -1.963  0.00  0.00    +0.013 C 
ATOM     25  H   UNL     1       0.500  -4.131  -3.814  0.00  0.00    -0.081 HD
BRANCH  19  26
ATOM     26  O   UNL     1      -0.126  -0.964  -1.052  0.00  0.00    -0.377 OA
BRANCH  26  28
ATOM     27  C   UNL     1      -1.092   0.881   0.175  0.00  0.00    +0.034 C 
ATOM     28  C   UNL     1      -0.852  -0.629   0.133  0.00  0.00    +0.157 C 
ENDBRANCH  26  28
ENDBRANCH  19  26
ENDBRANCH  18  22
ENDBRANCH   1  18
TORSDOF 4
