REMARK  Name = ZINC00664707
REMARK  6 active torsions:
REMARK  status: ('A' for Active; 'I' for Inactive)
REMARK    1  A    between atoms: C_1  and  C_2
REMARK    2  A    between atoms: C_5  and  C_9
REMARK    3  A    between atoms: C_7  and  C_8
REMARK    4  A    between atoms: C_16  and  N_30
REMARK    5  A    between atoms: C_17  and  C_28
REMARK    6  A    between atoms: C_18  and  C_20
REMARK                            x       y       z     vdW  Elec       q    Type
REMARK                         _______ _______ _______ _____ _____    ______ ____
ROOT
ATOM      1  C   UNL     1       0.058  -4.252  -0.021  0.00  0.00    +0.074 A 
ATOM      2  C   UNL     1      -0.703  -5.062  -0.797  0.00  0.00    +0.054 A 
ATOM      3  C   UNL     1      -0.371  -6.397  -0.492  0.00  0.00    +0.245 A 
ATOM      4  N   UNL     1       0.550  -6.391   0.429  0.00  0.00    -0.135 NA
ATOM      5  N   UNL     1       0.851  -5.057   0.748  0.00  0.00    -0.273 N 
ATOM      6  H   UNL     1       1.504  -4.760   1.400  0.00  0.00    +0.189 HD
ATOM      7  O   UNL     1      -0.971  -7.448  -1.115  0.00  0.00    -0.421 OA
ATOM      8  C   UNL     1      -1.693  -7.184  -2.222  0.00  0.00    +0.201 C 
ATOM      9  C   UNL     1      -2.079  -5.950  -2.608  0.00  0.00    +0.098 C 
ATOM     10  C   UNL     1      -1.743  -4.704  -1.827  0.00  0.00    +0.102 C 
ENDROOT
BRANCH   1  15
ATOM     11  C   UNL     1      -0.018   1.503   0.010  0.00  0.00    +0.044 C 
ATOM     12  C   UNL     1       0.002  -0.004   0.002  0.00  0.00    -0.047 A 
ATOM     13  C   UNL     1       0.006  -0.686  -1.202  0.00  0.00    +0.004 A 
ATOM     14  C   UNL     1       0.024  -2.066  -1.216  0.00  0.00    +0.010 A 
ATOM     15  C   UNL     1       0.039  -2.773  -0.013  0.00  0.00    +0.000 A 
ATOM     16  C   UNL     1       0.036  -2.079   1.197  0.00  0.00    +0.013 A 
ATOM     17  C   UNL     1       0.023  -0.699   1.198  0.00  0.00    -0.047 A 
ATOM     18  C   UNL     1       0.025   0.052   2.504  0.00  0.00    +0.044 C 
ENDBRANCH   1  15
BRANCH  10  19
ATOM     19  C   UNL     1      -2.980  -4.183  -1.142  0.00  0.00    -0.033 A 
ATOM     20  C   UNL     1      -3.660  -4.984  -0.243  0.00  0.00    +0.007 A 
ATOM     21  C   UNL     1      -4.794  -4.508   0.387  0.00  0.00    +0.040 A 
ATOM     22  C   UNL     1      -5.250  -3.229   0.118  0.00  0.00    +0.137 A 
ATOM     23  C   UNL     1      -4.568  -2.427  -0.783  0.00  0.00    +0.053 A 
ATOM     24  C   UNL     1      -3.430  -2.904  -1.408  0.00  0.00    +0.022 A 
ATOM     25 BR   UNL     1      -5.188  -0.679  -1.152  0.00  0.00    -0.047 Br
ATOM     26  F   UNL     1      -6.359  -2.763   0.733  0.00  0.00    -0.204 F 
ENDBRANCH  10  19
BRANCH   8  27
ATOM     27  N   UNL     1      -2.063  -8.245  -3.011  0.00  0.00    -0.328 N 
ATOM     28  H   UNL     1      -1.803  -9.146  -2.765  0.00  0.00    +0.145 HD
ATOM     29  H   UNL     1      -2.583  -8.092  -3.815  0.00  0.00    +0.145 HD
ENDBRANCH   8  27
BRANCH   9  30
ATOM     30  C   UNL     1      -2.841  -5.817  -3.813  0.00  0.00    +0.101 C 
ATOM     31  N   UNL     1      -3.446  -5.712  -4.769  0.00  0.00    -0.191 NA
ENDBRANCH   9  30
TORSDOF 4
