REMARK  Name = ZINC62715546
REMARK  11 active torsions:
REMARK  status: ('A' for Active; 'I' for Inactive)
REMARK    1  A    between atoms: C_1  and  C_2
REMARK    2  A    between atoms: C_5  and  C_8
REMARK    3  A    between atoms: C_8  and  O_9
REMARK    4  A    between atoms: O_9  and  C_10
REMARK    5  A    between atoms: C_11  and  O_26
REMARK    6  A    between atoms: C_13  and  C_17
REMARK    7  A    between atoms: C_18  and  C_19
REMARK    8  A    between atoms: N_21  and  N_22
REMARK    9  A    between atoms: N_22  and  C_23
REMARK   10  A    between atoms: C_23  and  N_25
REMARK   11  A    between atoms: O_26  and  C_27
REMARK                            x       y       z     vdW  Elec       q    Type
REMARK                         _______ _______ _______ _____ _____    ______ ____
ROOT
ATOM      1  C   UNL     1       1.608  -6.078  -0.040  0.00  0.00    +0.176 A 
ATOM      2  C   UNL     1       1.709  -6.774   1.165  0.00  0.00    +0.163 A 
ATOM      3  C   UNL     1       1.907  -8.140   1.159  0.00  0.00    +0.057 A 
ATOM      4  C   UNL     1       2.007  -8.825  -0.058  0.00  0.00    -0.020 A 
ATOM      5  C   UNL     1       1.904  -8.121  -1.263  0.00  0.00    +0.027 A 
ATOM      6  C   UNL     1       1.701  -6.757  -1.248  0.00  0.00    +0.064 A 
ATOM      7 BR   UNL     1       1.556  -5.808  -2.877  0.00  0.00    -0.046 Br
ENDROOT
BRANCH   4   8
ATOM      8  C   UNL     1       2.219 -10.280  -0.070  0.00  0.00    +0.013 C 
ATOM      9  C   UNL     1       2.314 -10.938  -1.245  0.00  0.00    +0.069 C 
BRANCH   9  10
ATOM     10  C   UNL     1       2.525 -12.385  -1.257  0.00  0.00    +0.253 C 
ATOM     11  O   UNL     1       2.614 -12.996  -0.208  0.00  0.00    -0.269 OA
ATOM     12  N   UNL     1       2.620 -13.042  -2.430  0.00  0.00    -0.232 N 
ATOM     13  H   UNL     1       2.549 -12.556  -3.266  0.00  0.00    +0.173 HD
BRANCH  12  14
ATOM     14  N   UNL     1       2.822 -14.429  -2.441  0.00  0.00    -0.246 N 
ATOM     15  H   UNL     1       2.893 -14.915  -1.605  0.00  0.00    +0.172 HD
BRANCH  14  16
ATOM     16  C   UNL     1       2.917 -15.086  -3.614  0.00  0.00    +0.144 C 
ATOM     17  S   UNL     1       3.164 -16.780  -3.628  0.00  0.00    -0.018 S 
BRANCH  16  18
ATOM     18  N   UNL     1       2.818 -14.410  -4.776  0.00  0.00    -0.340 N 
ATOM     19  H   UNL     1       2.678 -13.450  -4.768  0.00  0.00    +0.144 HD
ATOM     20  H   UNL     1       2.886 -14.883  -5.620  0.00  0.00    +0.144 HD
ENDBRANCH  16  18
ENDBRANCH  14  16
ENDBRANCH  12  14
ENDBRANCH   9  10
ENDBRANCH   4   8
BRANCH   2  21
ATOM     21  O   UNL     1       1.612  -6.106   2.345  0.00  0.00    -0.491 OA
ATOM     22  C   UNL     1       1.725  -6.881   3.540  0.00  0.00    +0.277 C 
ENDBRANCH   2  21
BRANCH   1  23
ATOM     23  O   UNL     1       1.413  -4.734  -0.032  0.00  0.00    -0.483 OA
BRANCH  23  24
ATOM     24  C   UNL     1       0.059  -4.275  -0.021  0.00  0.00    +0.264 C 
BRANCH  24  29
ATOM     25  C   UNL     1      -0.018   1.503   0.010  0.00  0.00    +0.044 C 
ATOM     26  C   UNL     1       0.002  -0.004   0.002  0.00  0.00    -0.050 A 
ATOM     27  C   UNL     1       0.006  -0.689  -1.199  0.00  0.00    +0.004 A 
ATOM     28  C   UNL     1       0.025  -2.071  -1.206  0.00  0.00    +0.007 A 
ATOM     29  C   UNL     1       0.040  -2.768  -0.013  0.00  0.00    -0.010 A 
ATOM     30  C   UNL     1       0.037  -2.084   1.188  0.00  0.00    +0.007 A 
ATOM     31  C   UNL     1       0.023  -0.702   1.195  0.00  0.00    +0.004 A 
ENDBRANCH  24  29
ENDBRANCH  23  24
ENDBRANCH   1  23
TORSDOF 9
