REMARK  Name = ZINC04051123
REMARK  3 active torsions:
REMARK  status: ('A' for Active; 'I' for Inactive)
REMARK    1  A    between atoms: C_11  and  C_19
REMARK    2  A    between atoms: C_13  and  C_17
REMARK    3  A    between atoms: C_14  and  N_16
REMARK                            x       y       z     vdW  Elec       q    Type
REMARK                         _______ _______ _______ _____ _____    ______ ____
ROOT
ATOM      1  C   UNL     1      -0.016   1.357   0.009  0.00  0.00    +0.001 A 
ATOM      2  C   UNL     1       1.169   2.091   0.002  0.00  0.00    +0.001 A 
ATOM      3  C   UNL     1       2.378   1.468  -0.013  0.00  0.00    +0.008 A 
ATOM      4  C   UNL     1       2.437   0.063  -0.022  0.00  0.00    -0.014 A 
ATOM      5  C   UNL     1       3.665  -0.615  -0.039  0.00  0.00    +0.055 A 
ATOM      6  C   UNL     1       3.689  -1.984  -0.050  0.00  0.00    +0.135 A 
ATOM      7  C   UNL     1       2.499  -2.718  -0.041  0.00  0.00    +0.008 A 
ATOM      8  C   UNL     1       1.292  -2.086  -0.023  0.00  0.00    +0.016 A 
ATOM      9  C   UNL     1       1.232  -0.683  -0.014  0.00  0.00    -0.017 A 
ATOM     10  C   UNL     1       0.002  -0.004   0.002  0.00  0.00    +0.008 A 
ATOM     11  C   UNL     1       2.533  -4.225  -0.054  0.00  0.00    +0.099 C 
ATOM     12  C   UNL     1       3.897  -4.718   0.337  0.00  0.00    +0.098 C 
ATOM     13  C   UNL     1       4.977  -3.902   0.309  0.00  0.00    +0.199 C 
ATOM     14  O   UNL     1       4.891  -2.616  -0.067  0.00  0.00    -0.441 OA
ENDROOT
BRANCH  11  15
ATOM     15  C   UNL     1       2.205  -4.720  -1.439  0.00  0.00    -0.017 A 
ATOM     16  C   UNL     1       1.103  -5.535  -1.651  0.00  0.00    +0.007 A 
ATOM     17  C   UNL     1       0.840  -5.966  -2.942  0.00  0.00    +0.020 A 
ATOM     18  C   UNL     1       1.678  -5.572  -3.968  0.00  0.00    +0.111 A 
ATOM     19  N   UNL     1       2.717  -4.796  -3.729  0.00  0.00    -0.263 NA
ATOM     20  C   UNL     1       2.994  -4.362  -2.515  0.00  0.00    +0.115 A 
ENDBRANCH  11  15
BRANCH  13  21
ATOM     21  N   UNL     1       6.200  -4.406   0.677  0.00  0.00    -0.328 N 
ATOM     22  H   UNL     1       6.280  -5.333   0.951  0.00  0.00    +0.145 HD
ATOM     23  H   UNL     1       6.984  -3.835   0.662  0.00  0.00    +0.145 HD
ENDBRANCH  13  21
BRANCH  12  24
ATOM     24  C   UNL     1       4.058  -6.080   0.748  0.00  0.00    +0.101 C 
ATOM     25  N   UNL     1       4.186  -7.160   1.074  0.00  0.00    -0.191 NA
ENDBRANCH  12  24
TORSDOF 3
