REMARK  Name = ZINC39627913
REMARK  8 active torsions:
REMARK  status: ('A' for Active; 'I' for Inactive)
REMARK    1  A    between atoms: C_1  and  C_2
REMARK    2  A    between atoms: C_2  and  C_3
REMARK    3  A    between atoms: C_3  and  C_5
REMARK    4  A    between atoms: C_3  and  C_6
REMARK    5  A    between atoms: C_10  and  C_19
REMARK    6  A    between atoms: N_21  and  C_22
REMARK    7  A    between atoms: C_22  and  C_23
REMARK    8  A    between atoms: C_23  and  N_24
REMARK                            x       y       z     vdW  Elec       q    Type
REMARK                         _______ _______ _______ _____ _____    ______ ____
ROOT
ATOM      1  C   UNL     1       0.564  -2.239  -1.560  0.00  0.00    +0.218 C 
ATOM      2  O   UNL     1      -0.108  -2.926  -0.821  0.00  0.00    -0.275 OA
ATOM      3  N   UNL     1       1.324  -2.816  -2.511  0.00  0.00    -0.300 N 
ATOM      4  C   UNL     1       2.287  -2.160  -3.427  0.00  0.00    +0.121 C 
ATOM      5  C   UNL     1       3.476  -3.143  -3.514  0.00  0.00    +0.100 C 
ATOM      6  C   UNL     1       2.878  -4.514  -3.155  0.00  0.00    -0.004 C 
ATOM      7  C   UNL     1       1.391  -4.252  -2.874  0.00  0.00    +0.115 C 
ATOM      8  C   UNL     1       3.033  -5.481  -4.324  0.00  0.00    -0.010 C 
ATOM      9  C   UNL     1       2.484  -6.853  -3.922  0.00  0.00    -0.082 C 
ATOM     10  N   UNL     1       3.214  -7.350  -2.750  0.00  0.00    +0.379 N 
ATOM     11  C   UNL     1       2.983  -6.463  -1.603  0.00  0.00    -0.082 C 
ATOM     12  C   UNL     1       3.554  -5.075  -1.907  0.00  0.00    -0.010 C 
ATOM     13  H   UNL     1       2.892  -8.280  -2.524  0.00  0.00    -0.086 HD
ATOM     14  H   UNL     1       4.201  -7.380  -2.957  0.00  0.00    -0.086 HD
ENDROOT
BRANCH   5  15
ATOM     15  C   UNL     1       4.038  -3.164  -4.912  0.00  0.00    +0.218 C 
ATOM     16  O   UNL     1       3.318  -2.932  -5.859  0.00  0.00    -0.275 OA
ATOM     17  N   UNL     1       5.343  -3.441  -5.109  0.00  0.00    -0.317 N 
ATOM     18  H   UNL     1       5.919  -3.626  -4.351  0.00  0.00    +0.149 HD
BRANCH  17  19
ATOM     19  C   UNL     1       5.890  -3.460  -6.468  0.00  0.00    +0.085 C 
BRANCH  19  20
ATOM     20  C   UNL     1       7.381  -3.798  -6.412  0.00  0.00    -0.060 C 
BRANCH  20  21
ATOM     21  N   UNL     1       7.930  -3.818  -7.774  0.00  0.00    +0.381 N 
ATOM     22  C   UNL     1       7.305  -4.906  -8.536  0.00  0.00    -0.079 C 
ATOM     23  C   UNL     1       7.813  -4.881  -9.979  0.00  0.00    -0.019 C 
ATOM     24  C   UNL     1       9.334  -5.061  -9.982  0.00  0.00    -0.004 C 
ATOM     25  C   UNL     1       9.970  -3.964  -9.124  0.00  0.00    -0.019 C 
ATOM     26  C   UNL     1       9.382  -4.023  -7.713  0.00  0.00    -0.079 C 
ATOM     27  H   UNL     1       7.735  -2.938  -8.227  0.00  0.00    -0.082 HD
ENDBRANCH  20  21
ENDBRANCH  19  20
ENDBRANCH  17  19
ENDBRANCH   5  15
BRANCH   1  28
ATOM     28  C   UNL     1       0.550  -0.739  -1.414  0.00  0.00    +0.072 C 
ATOM     29  C   UNL     1       1.633  -0.312  -0.421  0.00  0.00    +0.017 C 
BRANCH  28  31
ATOM     30  C   UNL     1      -0.877   1.239  -0.870  0.00  0.00    +0.004 C 
ATOM     31  C   UNL     1      -0.819  -0.289  -0.900  0.00  0.00    +0.009 C 
ENDBRANCH  28  31
ENDBRANCH   1  28
TORSDOF 6
