REMARK  Name = ZINC63385389
REMARK  6 active torsions:
REMARK  status: ('A' for Active; 'I' for Inactive)
REMARK    1  A    between atoms: C_7  and  C_10
REMARK    2  A    between atoms: C_10  and  C_11
REMARK    3  A    between atoms: C_11  and  N_12
REMARK    4  A    between atoms: C_13  and  C_15
REMARK    5  A    between atoms: N_26  and  C_28
REMARK    6  A    between atoms: C_28  and  C_29
REMARK                            x       y       z     vdW  Elec       q    Type
REMARK                         _______ _______ _______ _____ _____    ______ ____
ROOT
ATOM      1  C   UNL     1      -1.752  -6.557  -2.622  0.00  0.00    +0.122 C 
ATOM      2  C   UNL     1      -1.060  -7.835  -2.006  0.00  0.00    +0.155 C 
ATOM      3  C   UNL     1       0.375  -7.711  -2.534  0.00  0.00    +0.004 C 
ATOM      4  C   UNL     1       0.290  -7.992  -3.827  0.00  0.00    +0.008 C 
ATOM      5  C   UNL     1      -1.165  -8.344  -4.077  0.00  0.00    +0.116 C 
ATOM      6  C   UNL     1      -2.040  -7.022  -4.027  0.00  0.00    +0.127 C 
ATOM      7  C   UNL     1      -1.599  -6.385  -5.281  0.00  0.00    +0.223 C 
ATOM      8  O   UNL     1      -1.462  -5.196  -5.478  0.00  0.00    -0.275 OA
ATOM      9  N   UNL     1      -1.371  -7.395  -6.184  0.00  0.00    -0.294 N 
ATOM     10  C   UNL     1      -1.438  -8.701  -5.505  0.00  0.00    +0.148 C 
ATOM     11  O   UNL     1      -1.610  -8.927  -2.855  0.00  0.00    -0.359 OA
ENDROOT
BRANCH   1  13
ATOM     12  N   UNL     1      -0.929  -4.422  -1.683  0.00  0.00    -0.315 N 
ATOM     13  C   UNL     1      -0.811  -5.380  -2.623  0.00  0.00    +0.220 C 
ATOM     14  O   UNL     1       0.053  -5.295  -3.471  0.00  0.00    -0.275 OA
ATOM     15  H   UNL     1      -1.619  -4.490  -1.005  0.00  0.00    +0.149 HD
BRANCH  12  16
ATOM     16  C   UNL     1      -0.014  -3.278  -1.685  0.00  0.00    +0.108 C 
BRANCH  16  17
ATOM     17  C   UNL     1      -0.361  -2.345  -0.522  0.00  0.00    +0.052 C 
BRANCH  17  24
ATOM     18  C   UNL     1      -0.685   1.879  -2.284  0.00  0.00    +0.001 A 
ATOM     19  C   UNL     1       0.446   2.674  -2.050  0.00  0.00    +0.002 A 
ATOM     20  C   UNL     1       1.523   2.227  -1.370  0.00  0.00    +0.026 A 
ATOM     21  C   UNL     1       1.548   0.902  -0.853  0.00  0.00    +0.043 A 
ATOM     22  N   UNL     1       2.458   0.248  -0.173  0.00  0.00    -0.380 N 
ATOM     23  C   UNL     1       1.955  -1.103   0.102  0.00  0.00    +0.144 C 
ATOM     24  C   UNL     1       0.580  -1.168  -0.524  0.00  0.00    -0.040 C 
ATOM     25  C   UNL     1       0.366   0.043  -1.086  0.00  0.00    -0.001 A 
ATOM     26  C   UNL     1      -0.764   0.606  -1.835  0.00  0.00    +0.010 A 
ATOM     27  H   UNL     1       3.320   0.597   0.101  0.00  0.00    +0.160 HD
ENDBRANCH  17  24
ENDBRANCH  16  17
ENDBRANCH  12  16
ENDBRANCH   1  13
BRANCH   9  28
ATOM     28  C   UNL     1      -1.064  -7.205  -7.604  0.00  0.00    +0.143 C 
BRANCH  28  29
ATOM     29  C   UNL     1       0.428  -7.101  -7.785  0.00  0.00    -0.026 A 
ATOM     30  C   UNL     1       1.046  -5.866  -7.718  0.00  0.00    +0.009 A 
ATOM     31  C   UNL     1       2.415  -5.765  -7.884  0.00  0.00    +0.050 A 
ATOM     32  C   UNL     1       3.171  -6.902  -8.118  0.00  0.00    +0.166 A 
ATOM     33  C   UNL     1       2.548  -8.146  -8.186  0.00  0.00    +0.167 A 
ATOM     34  C   UNL     1       1.177  -8.240  -8.014  0.00  0.00    +0.054 A 
ATOM     35  O   UNL     1       3.498  -9.097  -8.424  0.00  0.00    -0.453 OA
ATOM     36  C   UNL     1       4.649  -8.379  -8.906  0.00  0.00    +0.466 C 
ATOM     37  O   UNL     1       4.511  -7.074  -8.313  0.00  0.00    -0.453 OA
ENDBRANCH  28  29
ENDBRANCH   9  28
TORSDOF 6
