REMARK  Name = ZINC09466171
REMARK  11 active torsions:
REMARK  status: ('A' for Active; 'I' for Inactive)
REMARK    1  A    between atoms: C_1  and  C_2
REMARK    2  A    between atoms: C_2  and  C_3
REMARK    3  A    between atoms: C_2  and  C_4
REMARK    4  A    between atoms: C_4  and  N_5
REMARK    5  A    between atoms: C_6  and  N_30
REMARK    6  A    between atoms: C_7  and  C_14
REMARK    7  A    between atoms: N_10  and  C_13
REMARK    8  A    between atoms: C_14  and  C_16
REMARK    9  A    between atoms: C_16  and  S_17
REMARK   10  A    between atoms: S_17  and  C_18
REMARK   11  A    between atoms: C_21  and  C_23
REMARK                            x       y       z     vdW  Elec       q    Type
REMARK                         _______ _______ _______ _____ _____    ______ ____
ROOT
ATOM      1  N   UNL     1      -3.632   1.917  -0.057  0.00  0.00    -0.281 N 
ATOM      2  C   UNL     1      -2.465   1.208  -0.090  0.00  0.00    +0.116 A 
ATOM      3  C   UNL     1      -1.246   1.901   0.003  0.00  0.00    +0.120 A 
ATOM      4  C   UNL     1      -1.295   3.364   0.122  0.00  0.00    +0.269 A 
ATOM      5  O   UNL     1      -0.270   4.015   0.201  0.00  0.00    -0.267 OA
ATOM      6  N   UNL     1      -2.499   3.970   0.141  0.00  0.00    -0.263 N 
ATOM      7  C   UNL     1      -3.632   3.254   0.053  0.00  0.00    +0.333 A 
ATOM      8  O   UNL     1      -4.698   3.840   0.073  0.00  0.00    -0.246 OA
ATOM      9  C   UNL     1      -2.573   5.429   0.258  0.00  0.00    +0.157 C 
ENDROOT
BRANCH   2  10
ATOM     10  N   UNL     1      -2.483  -0.148  -0.208  0.00  0.00    -0.344 N 
ATOM     11  H   UNL     1      -1.656  -0.651  -0.144  0.00  0.00    +0.144 HD
ATOM     12  H   UNL     1      -3.322  -0.611  -0.355  0.00  0.00    +0.144 HD
ENDBRANCH   2  10
BRANCH   3  13
ATOM     13  C   UNL     1      -0.013   1.213  -0.022  0.00  0.00    +0.182 C 
ATOM     14  O   UNL     1       0.005  -0.001  -0.017  0.00  0.00    -0.291 OA
BRANCH  13  15
ATOM     15  C   UNL     1       1.280   1.986  -0.062  0.00  0.00    +0.158 C 
BRANCH  15  16
ATOM     16  S   UNL     1       2.672   0.830  -0.095  0.00  0.00    -0.058 S 
BRANCH  16  17
ATOM     17  C   UNL     1       4.015   1.970  -0.138  0.00  0.00    +0.278 A 
ATOM     18  N   UNL     1       3.923   3.279  -0.147  0.00  0.00    -0.101 NA
ATOM     19  N   UNL     1       5.103   3.792  -0.177  0.00  0.00    -0.106 NA
ATOM     20  C   UNL     1       5.994   2.831  -0.197  0.00  0.00    +0.250 A 
ATOM     21  O   UNL     1       5.325   1.657  -0.173  0.00  0.00    -0.411 OA
BRANCH  20  22
ATOM     22  C   UNL     1       7.461   3.001  -0.239  0.00  0.00    +0.052 A 
ATOM     23  C   UNL     1       8.297   1.882  -0.251  0.00  0.00    +0.014 A 
ATOM     24  C   UNL     1       9.665   2.047  -0.294  0.00  0.00    +0.001 A 
ATOM     25  C   UNL     1      10.212   3.318  -0.316  0.00  0.00    +0.001 A 
ATOM     26  C   UNL     1       9.391   4.431  -0.299  0.00  0.00    +0.016 A 
ATOM     27  C   UNL     1       8.020   4.281  -0.260  0.00  0.00    +0.030 A 
ATOM     28 BR   UNL     1       6.899   5.804  -0.236  0.00  0.00    -0.050 Br
ENDBRANCH  20  22
ENDBRANCH  16  17
ENDBRANCH  15  16
ENDBRANCH  13  15
ENDBRANCH   3  13
BRANCH   1  29
ATOM     29  C   UNL     1      -4.908   1.203  -0.148  0.00  0.00    +0.131 C 
BRANCH  29  31
ATOM     30  C   UNL     1      -6.583   0.222  -1.722  0.00  0.00    +0.009 C 
ATOM     31  C   UNL     1      -5.316   1.073  -1.617  0.00  0.00    +0.003 C 
ATOM     32  C   UNL     1      -5.587   2.463  -2.196  0.00  0.00    +0.009 C 
ENDBRANCH  29  31
ENDBRANCH   1  29
TORSDOF 8
