REMARK  Name = ZINC26785330
REMARK  7 active torsions:
REMARK  status: ('A' for Active; 'I' for Inactive)
REMARK    1  A    between atoms: C_4  and  O_22
REMARK    2  A    between atoms: C_5  and  N_7
REMARK    3  A    between atoms: C_8  and  C_10
REMARK    4  A    between atoms: C_10  and  N_11
REMARK    5  A    between atoms: N_11  and  C_12
REMARK    6  A    between atoms: C_16  and  C_18
REMARK    7  A    between atoms: O_22  and  C_23
REMARK                            x       y       z     vdW  Elec       q    Type
REMARK                         _______ _______ _______ _____ _____    ______ ____
ROOT
ATOM      1  C   UNL     1      -4.884   0.010  -0.165  0.00  0.00    +0.198 C 
ENDROOT
BRANCH   1   3
ATOM      2  N   UNL     1      -2.418  -0.038   0.026  0.00  0.00    -0.281 N 
ATOM      3  C   UNL     1      -3.573  -0.727  -0.069  0.00  0.00    +0.234 C 
ATOM      4  O   UNL     1      -3.557  -1.940  -0.076  0.00  0.00    -0.274 OA
ATOM      5  H   UNL     1      -2.438   1.057   0.124  0.00  0.00    +0.155 HD
BRANCH   2  10
ATOM      6  C   UNL     1       0.110  -2.626  -0.643  0.00  0.00    +0.002 A 
ATOM      7  C   UNL     1       1.228  -2.062  -0.056  0.00  0.00    +0.004 A 
ATOM      8  C   UNL     1       1.143  -0.824   0.555  0.00  0.00    +0.048 A 
ATOM      9  C   UNL     1      -0.067  -0.150   0.589  0.00  0.00    +0.148 A 
ATOM     10  C   UNL     1      -1.193  -0.718  -0.002  0.00  0.00    +0.076 A 
ATOM     11  C   UNL     1      -1.099  -1.957  -0.617  0.00  0.00    +0.027 A 
BRANCH   9  12
ATOM     12  O   UNL     1      -0.153   1.065   1.194  0.00  0.00    -0.432 OA
BRANCH  12  13
ATOM     13  C   UNL     1       1.043   1.585   1.778  0.00  0.00    +0.541 C 
ATOM     14  F   UNL     1       1.500   0.705   2.766  0.00  0.00    -0.166 F 
ATOM     15  F   UNL     1       2.022   1.725   0.790  0.00  0.00    -0.166 F 
ENDBRANCH  12  13
ENDBRANCH   9  12
ENDBRANCH   2  10
ENDBRANCH   1   3
BRANCH   1  16
ATOM     16  N   UNL     1      -5.982  -0.956  -0.257  0.00  0.00    -0.335 N 
ATOM     17  H   UNL     1      -5.767  -2.035  -0.248  0.00  0.00    +0.147 HD
BRANCH  16  18
ATOM     18  C   UNL     1      -7.302  -0.507  -0.355  0.00  0.00    +0.028 A 
ATOM     19  C   UNL     1      -7.573   0.857  -0.361  0.00  0.00    +0.024 A 
ATOM     20  C   UNL     1      -8.876   1.306  -0.463  0.00  0.00    +0.022 A 
ATOM     21  C   UNL     1      -9.918   0.404  -0.550  0.00  0.00    +0.053 A 
ATOM     22  C   UNL     1      -9.656  -0.968  -0.540  0.00  0.00    +0.056 A 
ATOM     23  C   UNL     1      -8.340  -1.421  -0.442  0.00  0.00    +0.037 A 
ATOM     24 CL   UNL     1     -11.553   0.975  -0.673  0.00  0.00    -0.083 Cl
BRANCH  22  25
ATOM     25  C   UNL     1     -10.768  -1.937  -0.634  0.00  0.00    +0.243 C 
ATOM     26  O   UNL     1     -11.914  -1.540  -0.720  0.00  0.00    -0.270 OA
ATOM     27  N   UNL     1     -10.512  -3.260  -0.625  0.00  0.00    -0.325 N 
ATOM     28  H   UNL     1     -11.341  -3.981  -0.695  0.00  0.00    +0.145 HD
ATOM     29  H   UNL     1      -9.476  -3.619  -0.548  0.00  0.00    +0.145 HD
ENDBRANCH  22  25
ENDBRANCH  16  18
ENDBRANCH   1  16
TORSDOF 7
