REMARK  Name = ZINC45116218
REMARK  7 active torsions:
REMARK  status: ('A' for Active; 'I' for Inactive)
REMARK    1  A    between atoms: C_1  and  C_2
REMARK    2  A    between atoms: C_2  and  C_18
REMARK    3  A    between atoms: C_4  and  N_6
REMARK    4  A    between atoms: N_6  and  S_7
REMARK    5  A    between atoms: S_7  and  C_10
REMARK    6  A    between atoms: C_13  and  O_17
REMARK    7  A    between atoms: C_14  and  N_16
REMARK                            x       y       z     vdW  Elec       q    Type
REMARK                         _______ _______ _______ _____ _____    ______ ____
ROOT
ATOM      1  C   UNL     1       2.282  -1.810   3.885  0.00  0.00    +0.107 A 
ATOM      2  C   UNL     1       1.711  -3.055   3.697  0.00  0.00    +0.032 A 
ATOM      3  C   UNL     1       2.488  -4.196   3.773  0.00  0.00    +0.049 A 
ATOM      4  C   UNL     1       3.844  -4.094   4.040  0.00  0.00    +0.137 A 
ATOM      5  C   UNL     1       4.420  -2.840   4.230  0.00  0.00    +0.068 A 
ATOM      6  C   UNL     1       3.635  -1.700   4.146  0.00  0.00    +0.055 A 
ENDROOT
BRANCH   1   7
ATOM      7  S   UNL     1       1.285  -0.361   3.785  0.00  0.00    +0.059 S 
ATOM      8  O   UNL     1       1.955   0.645   4.533  0.00  0.00    -0.153 OA
ATOM      9  O   UNL     1      -0.047  -0.764   4.072  0.00  0.00    -0.153 OA
BRANCH   7  10
ATOM     10  N   UNL     1       1.300   0.135   2.205  0.00  0.00    -0.186 NA
ATOM     11  H   UNL     1       1.705   0.984   1.967  0.00  0.00    +0.148 HD
BRANCH  10  15
ATOM     12  C   UNL     1      -0.019   1.526   0.010  0.00  0.00    +0.012 C 
ATOM     13  C   UNL     1       0.002  -0.004   0.002  0.00  0.00    -0.016 C 
ATOM     14  C   UNL     1       1.351  -0.691  -0.218  0.00  0.00    +0.029 C 
ATOM     15  C   UNL     1       0.701  -0.708   1.167  0.00  0.00    +0.083 C 
ATOM     16  C   UNL     1      -1.239  -0.678  -0.588  0.00  0.00    +0.012 C 
ENDBRANCH  10  15
ENDBRANCH   7  10
ENDBRANCH   1   7
BRANCH   5  17
ATOM     17  N   UNL     1       5.790  -2.731   4.500  0.00  0.00    -0.355 N 
ATOM     18  H   UNL     1       6.338  -3.529   4.554  0.00  0.00    +0.142 HD
ATOM     19  H   UNL     1       6.190  -1.858   4.631  0.00  0.00    +0.142 HD
ENDBRANCH   5  17
BRANCH   4  20
ATOM     20  O   UNL     1       4.609  -5.215   4.116  0.00  0.00    -0.505 OA
ATOM     21  H   UNL     1       4.997  -5.485   3.272  0.00  0.00    +0.292 HD
ENDBRANCH   4  20
TORSDOF 5
