REMARK  Name = ZINC40701996
REMARK  5 active torsions:
REMARK  status: ('A' for Active; 'I' for Inactive)
REMARK    1  A    between atoms: C_1  and  C_2
REMARK    2  A    between atoms: C_2  and  N_3
REMARK    3  A    between atoms: N_3  and  C_4
REMARK    4  A    between atoms: C_15  and  N_27
REMARK    5  A    between atoms: C_16  and  N_20
REMARK                            x       y       z     vdW  Elec       q    Type
REMARK                         _______ _______ _______ _____ _____    ______ ____
ROOT
ATOM      1  N   UNL     1       0.710  -0.411  -1.168  0.00  0.00    -0.285 N 
ATOM      2  C   UNL     1      -0.024  -0.756  -2.297  0.00  0.00    +0.129 A 
ATOM      3  C   UNL     1      -0.579  -2.032  -2.420  0.00  0.00    +0.104 A 
ATOM      4  C   UNL     1      -1.306  -2.326  -3.575  0.00  0.00    +0.150 A 
ATOM      5  N   UNL     1      -1.442  -1.386  -4.507  0.00  0.00    -0.221 NA
ATOM      6  C   UNL     1      -0.902  -0.194  -4.352  0.00  0.00    +0.200 A 
ATOM      7  N   UNL     1      -0.213   0.126  -3.276  0.00  0.00    -0.332 N 
ATOM      8  H   UNL     1       0.166   1.015  -3.198  0.00  0.00    +0.168 HD
ENDROOT
BRANCH   1   9
ATOM      9  C   UNL     1       2.099  -0.519  -1.179  0.00  0.00    +0.043 A 
ATOM     10  C   UNL     1       2.709  -1.695  -0.794  0.00  0.00    +0.024 A 
ATOM     11  C   UNL     1       4.095  -1.813  -0.802  0.00  0.00    +0.002 A 
ATOM     12  C   UNL     1       4.887  -0.775  -1.188  0.00  0.00    +0.008 A 
ATOM     13  C   UNL     1       4.306   0.440  -1.589  0.00  0.00    -0.016 A 
ATOM     14  C   UNL     1       2.896   0.571  -1.591  0.00  0.00    +0.003 A 
ATOM     15  C   UNL     1       2.316   1.784  -1.996  0.00  0.00    +0.010 A 
ATOM     16  C   UNL     1       3.115   2.815  -2.387  0.00  0.00    +0.001 A 
ATOM     17  C   UNL     1       4.503   2.685  -2.391  0.00  0.00    +0.001 A 
ATOM     18  C   UNL     1       5.099   1.528  -1.992  0.00  0.00    +0.008 A 
ENDBRANCH   1   9
BRANCH   4  19
ATOM     19  N   UNL     1      -1.880  -3.581  -3.748  0.00  0.00    -0.283 N 
ATOM     20  C   UNL     1      -2.695  -3.828  -4.848  0.00  0.00    +0.124 A 
ATOM     21  C   UNL     1      -3.354  -5.048  -4.958  0.00  0.00    +0.044 A 
ATOM     22  C   UNL     1      -4.162  -5.280  -6.056  0.00  0.00    +0.005 A 
ATOM     23  C   UNL     1      -4.285  -4.279  -7.011  0.00  0.00    +0.020 A 
ATOM     24  C   UNL     1      -3.602  -3.092  -6.838  0.00  0.00    +0.113 A 
ATOM     25  N   UNL     1      -2.842  -2.897  -5.777  0.00  0.00    -0.240 NA
ATOM     26  H   UNL     1      -1.711  -4.285  -3.102  0.00  0.00    +0.155 HD
ENDBRANCH   4  19
BRANCH   3  27
ATOM     27  N   UNL     1      -0.409  -2.992  -1.411  0.00  0.00    -0.353 N 
ATOM     28  H   UNL     1       0.033  -2.751  -0.582  0.00  0.00    +0.143 HD
ATOM     29  H   UNL     1      -0.734  -3.897  -1.543  0.00  0.00    +0.143 HD
ENDBRANCH   3  27
BRANCH   1  31
ATOM     30  C   UNL     1      -0.017   1.596   0.026  0.00  0.00    +0.025 C 
ATOM     31  C   UNL     1       0.022   0.067   0.034  0.00  0.00    +0.109 C 
ENDBRANCH   1  31
TORSDOF 4
