REMARK  Name = ZINC20406606
REMARK  4 active torsions:
REMARK  status: ('A' for Active; 'I' for Inactive)
REMARK    1  A    between atoms: C_1  and  C_2
REMARK    2  A    between atoms: C_9  and  N_20
REMARK    3  A    between atoms: C_10  and  C_18
REMARK    4  A    between atoms: C_15  and  C_17
REMARK                            x       y       z     vdW  Elec       q    Type
REMARK                         _______ _______ _______ _____ _____    ______ ____
ROOT
ATOM      1  C   UNL     1      -0.018   1.503   0.010  0.00  0.00    +0.065 C 
ATOM      2  C   UNL     1       0.002  -0.004   0.002  0.00  0.00    +0.041 A 
ATOM      3  C   UNL     1       0.008  -0.789  -1.085  0.00  0.00    +0.050 A 
ATOM      4  C   UNL     1       0.030  -2.136  -0.653  0.00  0.00    +0.245 A 
ATOM      5  N   UNL     1       0.035  -2.140   0.648  0.00  0.00    -0.135 NA
ATOM      6  N   UNL     1       0.024  -0.808   1.090  0.00  0.00    -0.278 N 
ATOM      7  H   UNL     1       0.028  -0.515   2.015  0.00  0.00    +0.189 HD
ATOM      8  O   UNL     1       0.043  -3.172  -1.533  0.00  0.00    -0.421 OA
ATOM      9  C   UNL     1       0.301  -2.897  -2.827  0.00  0.00    +0.201 C 
ATOM     10  C   UNL     1       0.296  -1.653  -3.358  0.00  0.00    +0.099 C 
ATOM     11  C   UNL     1      -0.005  -0.429  -2.542  0.00  0.00    +0.070 C 
ATOM     12  C   UNL     1       1.026   0.679  -2.833  0.00  0.00    +0.048 C 
ATOM     13  C   UNL     1       0.259   1.573  -3.843  0.00  0.00    +0.161 C 
ATOM     14  O   UNL     1      -1.105   1.526  -3.370  0.00  0.00    -0.376 OA
ATOM     15  C   UNL     1      -1.357   0.174  -2.944  0.00  0.00    +0.131 C 
ATOM     16  C   UNL     1      -2.305   0.174  -1.743  0.00  0.00    +0.039 C 
ENDROOT
BRANCH   9  17
ATOM     17  N   UNL     1       0.588  -3.949  -3.661  0.00  0.00    -0.328 N 
ATOM     18  H   UNL     1       0.600  -4.855  -3.313  0.00  0.00    +0.145 HD
ATOM     19  H   UNL     1       0.778  -3.787  -4.598  0.00  0.00    +0.145 HD
ENDBRANCH   9  17
BRANCH  10  20
ATOM     20  C   UNL     1       0.590  -1.498  -4.751  0.00  0.00    +0.101 C 
ATOM     21  N   UNL     1       0.823  -1.374  -5.856  0.00  0.00    -0.191 NA
ENDBRANCH  10  20
TORSDOF 2
