REMARK  Name = ZINC14824333
REMARK  4 active torsions:
REMARK  status: ('A' for Active; 'I' for Inactive)
REMARK    1  A    between atoms: C_1  and  C_2
REMARK    2  A    between atoms: C_5  and  C_8
REMARK    3  A    between atoms: N_10  and  N_11
REMARK    4  A    between atoms: N_11  and  C_12
REMARK                            x       y       z     vdW  Elec       q    Type
REMARK                         _______ _______ _______ _____ _____    ______ ____
ROOT
ATOM      1  C   UNL     1      -4.786   3.862  -0.444  0.00  0.00    +0.280 C 
ATOM      2  O   UNL     1      -4.812   5.045  -0.165  0.00  0.00    -0.267 OA
ATOM      3  N   UNL     1      -3.630   3.175  -0.362  0.00  0.00    -0.231 N 
ATOM      4  H   UNL     1      -3.610   2.232  -0.585  0.00  0.00    +0.173 HD
ENDROOT
BRANCH   1   9
ATOM      5  C   UNL     1      -9.558   1.284  -2.084  0.00  0.00    +0.067 C 
ATOM      6  C   UNL     1      -8.297   1.983  -1.647  0.00  0.00    +0.056 A 
ATOM      7  C   UNL     1      -7.106   1.275  -1.563  0.00  0.00    +0.134 A 
ATOM      8  N   UNL     1      -6.001   1.882  -1.181  0.00  0.00    -0.247 NA
ATOM      9  C   UNL     1      -6.027   3.176  -0.875  0.00  0.00    +0.145 A 
ATOM     10  C   UNL     1      -7.225   3.884  -0.955  0.00  0.00    +0.144 A 
ATOM     11  N   UNL     1      -8.328   3.268  -1.343  0.00  0.00    -0.256 NA
ENDBRANCH   1   9
BRANCH   3  12
ATOM     12  N   UNL     1      -2.457   3.824   0.045  0.00  0.00    -0.261 N 
ATOM     13  H   UNL     1      -2.492   4.746   0.347  0.00  0.00    +0.170 HD
BRANCH  12  14
ATOM     14  C   UNL     1      -1.235   3.143   0.017  0.00  0.00    +0.081 A 
ATOM     15  C   UNL     1      -0.285   3.378   1.003  0.00  0.00    +0.066 A 
ATOM     16  C   UNL     1       0.923   2.707   0.970  0.00  0.00    +0.042 A 
ATOM     17  C   UNL     1       1.183   1.796  -0.038  0.00  0.00    +0.044 A 
ATOM     18  C   UNL     1       0.237   1.557  -1.019  0.00  0.00    +0.042 A 
ATOM     19  C   UNL     1      -0.972   2.228  -0.994  0.00  0.00    +0.066 A 
ATOM     20 CL   UNL     1      -2.158   1.927  -2.225  0.00  0.00    -0.081 Cl
ATOM     21 CL   UNL     1       2.699   0.950  -0.073  0.00  0.00    -0.083 Cl
ATOM     22 CL   UNL     1      -0.612   4.516   2.273  0.00  0.00    -0.081 Cl
ENDBRANCH  12  14
ENDBRANCH   3  12
TORSDOF 3
