REMARK  Name = ZINC11116771
REMARK  9 active torsions:
REMARK  status: ('A' for Active; 'I' for Inactive)
REMARK    1  A    between atoms: C_1  and  C_2
REMARK    2  A    between atoms: C_4  and  O_9
REMARK    3  A    between atoms: O_9  and  C_10
REMARK    4  A    between atoms: C_10  and  C_11
REMARK    5  A    between atoms: C_14  and  C_17
REMARK    6  A    between atoms: N_19  and  N_20
REMARK    7  A    between atoms: C_21  and  C_22
REMARK    8  A    between atoms: C_21  and  C_23
REMARK    9  A    between atoms: C_24  and  C_33
REMARK                            x       y       z     vdW  Elec       q    Type
REMARK                         _______ _______ _______ _____ _____    ______ ____
ROOT
ATOM      1  C   UNL     1       0.258  -5.449  -7.981  0.00  0.00    +0.263 C 
ATOM      2  O   UNL     1      -0.729  -5.324  -8.681  0.00  0.00    -0.268 OA
ATOM      3  N   UNL     1       1.333  -6.116  -8.446  0.00  0.00    -0.203 N 
ATOM      4  H   UNL     1       2.120  -6.216  -7.888  0.00  0.00    +0.178 HD
ENDROOT
BRANCH   1   8
ATOM      5  C   UNL     1       0.314  -3.791  -4.071  0.00  0.00    -0.010 A 
ATOM      6  C   UNL     1      -0.810  -3.645  -4.865  0.00  0.00    +0.008 A 
ATOM      7  C   UNL     1      -0.835  -4.181  -6.136  0.00  0.00    +0.013 A 
ATOM      8  C   UNL     1       0.277  -4.872  -6.621  0.00  0.00    +0.038 A 
ATOM      9  C   UNL     1       1.408  -5.015  -5.814  0.00  0.00    +0.013 A 
ATOM     10  C   UNL     1       1.421  -4.470  -4.548  0.00  0.00    +0.008 A 
BRANCH   5  11
ATOM     11  C   UNL     1       0.333  -3.203  -2.684  0.00  0.00    +0.264 C 
BRANCH  11  12
ATOM     12  O   UNL     1       0.832  -1.865  -2.741  0.00  0.00    -0.487 OA
BRANCH  12  16
ATOM     13  C   UNL     1       1.990   2.219  -0.332  0.00  0.00    +0.045 C 
ATOM     14  C   UNL     1       1.474   0.804  -0.352  0.00  0.00    -0.029 A 
ATOM     15  C   UNL     1       1.391   0.116  -1.548  0.00  0.00    +0.050 A 
ATOM     16  C   UNL     1       0.915  -1.187  -1.566  0.00  0.00    +0.121 A 
ATOM     17  C   UNL     1       0.523  -1.797  -0.383  0.00  0.00    +0.047 A 
ATOM     18  C   UNL     1       0.608  -1.106   0.810  0.00  0.00    +0.024 A 
ATOM     19  C   UNL     1       1.088   0.192   0.827  0.00  0.00    +0.044 A 
ATOM     20 CL   UNL     1       1.200   1.056   2.329  0.00  0.00    -0.083 Cl
ENDBRANCH  12  16
ENDBRANCH  11  12
ENDBRANCH   5  11
ENDBRANCH   1   8
BRANCH   3  21
ATOM     21  N   UNL     1       1.314  -6.663  -9.735  0.00  0.00    -0.184 NA
ATOM     22  C   UNL     1       2.351  -7.306 -10.183  0.00  0.00    +0.070 C 
ATOM     23  C   UNL     1       3.573  -7.462  -9.316  0.00  0.00    +0.068 C 
BRANCH  22  24
ATOM     24  C   UNL     1       2.331  -7.881 -11.539  0.00  0.00    +0.081 A 
ATOM     25  C   UNL     1       1.977  -9.187 -11.742  0.00  0.00    +0.031 A 
ATOM     26  N   UNL     1       1.968  -9.689 -13.010  0.00  0.00    -0.311 N 
ATOM     27  H   UNL     1       1.717 -10.615 -13.152  0.00  0.00    +0.170 HD
ATOM     28  C   UNL     1       2.300  -8.930 -14.066  0.00  0.00    +0.327 A 
ATOM     29  O   UNL     1       2.277  -9.422 -15.178  0.00  0.00    -0.247 OA
ATOM     30  N   UNL     1       2.656  -7.640 -13.931  0.00  0.00    -0.275 N 
ATOM     31  H   UNL     1       2.890  -7.120 -14.716  0.00  0.00    +0.173 HD
ATOM     32  C   UNL     1       2.686  -7.065 -12.710  0.00  0.00    +0.263 A 
ATOM     33  O   UNL     1       3.003  -5.897 -12.581  0.00  0.00    -0.267 OA
ATOM     34  C   UNL     1       1.600 -10.063 -10.575  0.00  0.00    +0.064 C 
ENDBRANCH  22  24
ENDBRANCH   3  21
TORSDOF 6
