REMARK  Name = ZINC39231341
REMARK  6 active torsions:
REMARK  status: ('A' for Active; 'I' for Inactive)
REMARK    1  A    between atoms: C_1  and  C_2
REMARK    2  A    between atoms: C_12  and  C_15
REMARK    3  A    between atoms: N_17  and  C_18
REMARK    4  A    between atoms: C_18  and  C_19
REMARK    5  A    between atoms: C_28  and  C_29
REMARK    6  A    between atoms: C_28  and  C_30
REMARK                            x       y       z     vdW  Elec       q    Type
REMARK                         _______ _______ _______ _____ _____    ______ ____
ROOT
ATOM      1  C   UNL     1       2.547  -0.153   0.266  0.00  0.00    -0.012 C 
ATOM      2  C   UNL     1       2.181  -1.638   0.285  0.00  0.00    -0.057 C 
ATOM      3  C   UNL     1       0.656  -1.788   0.325  0.00  0.00    +0.090 C 
ATOM      4  N   UNL     1       0.332  -3.216   0.474  0.00  0.00    -0.319 N 
ATOM      5  C   UNL     1       1.002  -3.971   1.544  0.00  0.00    +0.087 C 
ATOM      6  C   UNL     1       2.510  -3.717   1.446  0.00  0.00    -0.063 C 
ATOM      7  N   UNL     1       2.766  -2.272   1.473  0.00  0.00    +0.383 N 
ATOM      8  C   UNL     1      -0.578  -3.831  -0.369  0.00  0.00    +0.121 A 
ATOM      9  C   UNL     1      -1.387  -3.051  -1.194  0.00  0.00    +0.044 A 
ATOM     10  C   UNL     1      -2.285  -3.662  -2.026  0.00  0.00    +0.018 A 
ATOM     11  C   UNL     1      -2.360  -5.063  -2.017  0.00  0.00    +0.055 A 
ATOM     12  C   UNL     1      -1.520  -5.781  -1.164  0.00  0.00    +0.126 A 
ATOM     13  N   UNL     1      -0.665  -5.154  -0.383  0.00  0.00    -0.240 NA
ATOM     14  H   UNL     1       3.761  -2.107   1.485  0.00  0.00    -0.085 HD
ATOM     15  H   UNL     1       2.352  -1.874   2.303  0.00  0.00    -0.085 HD
ENDROOT
BRANCH  11  16
ATOM     16  C   UNL     1      -3.313  -5.768  -2.895  0.00  0.00    +0.246 C 
ATOM     17  O   UNL     1      -4.042  -5.134  -3.634  0.00  0.00    -0.270 OA
ATOM     18  N   UNL     1      -3.377  -7.114  -2.879  0.00  0.00    -0.311 N 
ATOM     19  H   UNL     1      -2.796  -7.620  -2.289  0.00  0.00    +0.149 HD
BRANCH  18  20
ATOM     20  C   UNL     1      -4.324  -7.813  -3.751  0.00  0.00    +0.108 C 
BRANCH  20  21
ATOM     21  C   UNL     1      -4.193  -9.325  -3.538  0.00  0.00    +0.010 C 
ATOM     22  C   UNL     1      -2.802  -9.806  -3.924  0.00  0.00    +0.005 C 
ATOM     23  C   UNL     1      -2.792 -11.219  -4.490  0.00  0.00    +0.004 C 
ATOM     24  C   UNL     1      -4.160 -11.655  -5.013  0.00  0.00    -0.005 C 
ATOM     25  C   UNL     1      -5.237 -11.576  -3.909  0.00  0.00    +0.008 C 
ATOM     26  C   UNL     1      -5.293 -10.075  -4.289  0.00  0.00    -0.000 C 
ATOM     27  C   UNL     1      -4.944 -10.531  -5.706  0.00  0.00    -0.029 C 
ATOM     28  C   UNL     1      -4.106  -9.580  -6.555  0.00  0.00    +0.011 C 
ATOM     29  C   UNL     1      -6.162 -11.046  -6.498  0.00  0.00    +0.011 C 
ENDBRANCH  20  21
ENDBRANCH  18  20
ENDBRANCH  11  16
TORSDOF 3
