REMARK  Name = ZINC20504124
REMARK  8 active torsions:
REMARK  status: ('A' for Active; 'I' for Inactive)
REMARK    1  A    between atoms: C_3  and  C_35
REMARK    2  A    between atoms: C_5  and  N_7
REMARK    3  A    between atoms: C_12  and  O_34
REMARK    4  A    between atoms: C_14  and  O_33
REMARK    5  A    between atoms: C_17  and  C_22
REMARK    6  A    between atoms: N_24  and  C_25
REMARK    7  A    between atoms: C_25  and  C_26
REMARK    8  A    between atoms: C_26  and  N_27
REMARK                            x       y       z     vdW  Elec       q    Type
REMARK                         _______ _______ _______ _____ _____    ______ ____
ROOT
ATOM      1  N   UNL     1      -0.069   5.241   0.031  0.00  0.00    -0.226 NA
ATOM      2  C   UNL     1       1.111   5.945   0.128  0.00  0.00    +0.155 C 
ATOM      3  N   UNL     1       2.317   5.456   0.128  0.00  0.00    -0.317 N 
ATOM      4  C   UNL     1       3.460   6.317   0.270  0.00  0.00    +0.117 C 
ATOM      5  C   UNL     1       4.687   5.894  -0.476  0.00  0.00    +0.164 C 
ATOM      6  C   UNL     1       4.910   6.699  -1.753  0.00  0.00    +0.146 C 
ATOM      7  C   UNL     1       4.951   8.185  -1.380  0.00  0.00    +0.048 C 
ATOM      8  C   UNL     1       3.573   8.598  -0.881  0.00  0.00    +0.093 C 
ATOM      9  C   UNL     1       3.135   7.799   0.310  0.00  0.00    +0.089 C 
ATOM     10  S   UNL     1       1.297   7.712   0.272  0.00  0.00    -0.085 S 
ATOM     11  H   UNL     1       2.456   4.371   0.017  0.00  0.00    +0.148 HD
ENDROOT
BRANCH   1  16
ATOM     12  C   UNL     1       1.012   1.781   0.644  0.00  0.00    +0.003 A 
ATOM     13  C   UNL     1      -0.016   1.076   0.046  0.00  0.00    +0.012 A 
ATOM     14  C   UNL     1      -1.059   1.750  -0.561  0.00  0.00    +0.057 A 
ATOM     15  C   UNL     1      -1.082   3.131  -0.563  0.00  0.00    +0.040 A 
ATOM     16  C   UNL     1      -0.051   3.842   0.036  0.00  0.00    +0.067 A 
ATOM     17  C   UNL     1       0.998   3.162   0.641  0.00  0.00    +0.028 A 
BRANCH  14  18
ATOM     18  C   UNL     1      -2.174   0.978  -1.218  0.00  0.00    +0.417 C 
ATOM     19  F   UNL     1      -1.934  -0.394  -1.083  0.00  0.00    -0.166 F 
ATOM     20  F   UNL     1      -3.389   1.301  -0.604  0.00  0.00    -0.166 F 
ATOM     21  F   UNL     1      -2.235   1.309  -2.575  0.00  0.00    -0.166 F 
ENDBRANCH  14  18
ENDBRANCH   1  16
BRANCH   8  22
ATOM     22  C   UNL     1       3.606  10.059  -0.512  0.00  0.00    +0.217 C 
ATOM     23  O   UNL     1       3.354  10.404   0.623  0.00  0.00    -0.275 OA
ATOM     24  N   UNL     1       3.914  10.982  -1.445  0.00  0.00    -0.314 N 
ATOM     25  H   UNL     1       4.142  10.670  -2.474  0.00  0.00    +0.149 HD
BRANCH  24  26
ATOM     26  C   UNL     1       3.945  12.403  -1.087  0.00  0.00    +0.119 C 
BRANCH  26  27
ATOM     27  C   UNL     1       4.319  13.231  -2.318  0.00  0.00    +0.103 C 
BRANCH  27  28
ATOM     28  N   UNL     1       4.350  14.655  -1.958  0.00  0.00    -0.297 NA
ATOM     29  C   UNL     1       3.007  15.141  -1.613  0.00  0.00    +0.112 C 
ATOM     30  C   UNL     1       3.094  16.609  -1.189  0.00  0.00    +0.175 C 
ATOM     31  O   UNL     1       3.691  17.370  -2.243  0.00  0.00    -0.377 OA
ATOM     32  C   UNL     1       5.001  16.924  -2.604  0.00  0.00    +0.175 C 
ATOM     33  C   UNL     1       4.932  15.459  -3.043  0.00  0.00    +0.112 C 
ENDBRANCH  27  28
ENDBRANCH  26  27
ENDBRANCH  24  26
ENDBRANCH   8  22
BRANCH   6  34
ATOM     34  O   UNL     1       6.150   6.317  -2.353  0.00  0.00    -0.389 OA
ATOM     35  H   UNL     1       6.479   6.796  -3.287  0.00  0.00    +0.210 HD
ENDBRANCH   6  34
BRANCH   5  36
ATOM     36  O   UNL     1       4.563   4.512  -0.821  0.00  0.00    -0.387 OA
ATOM     37  H   UNL     1       5.368   4.010  -1.377  0.00  0.00    +0.210 HD
ENDBRANCH   5  36
TORSDOF 8
