REMARK  Name = ZINC55037086
REMARK  2 active torsions:
REMARK  status: ('A' for Active; 'I' for Inactive)
REMARK    1  A    between atoms: C_6  and  N_7
REMARK    2  A    between atoms: C_13  and  C_16
REMARK                            x       y       z     vdW  Elec       q    Type
REMARK                         _______ _______ _______ _____ _____    ______ ____
ROOT
ATOM      1  C   UNL     1      -0.017   1.389   0.010  0.00  0.00    +0.030 A 
ATOM      2  C   UNL     1       1.162   2.102   0.002  0.00  0.00    +0.030 A 
ATOM      3  C   UNL     1       2.377   1.431  -0.013  0.00  0.00    +0.066 A 
ATOM      4  C   UNL     1       2.405   0.026  -0.021  0.00  0.00    +0.091 A 
ATOM      5  C   UNL     1       1.204  -0.687  -0.012  0.00  0.00    +0.057 A 
ATOM      6  C   UNL     1       0.002  -0.004   0.002  0.00  0.00    +0.071 A 
ATOM      7  N   UNL     1       3.711  -0.344  -0.036  0.00  0.00    -0.232 NA
ATOM      8  C   UNL     1       4.466   0.716  -0.038  0.00  0.00    +0.112 A 
ATOM      9  N   UNL     1       3.697   1.837  -0.024  0.00  0.00    -0.342 N 
ATOM     10  H   UNL     1       4.017   2.753  -0.023  0.00  0.00    +0.167 HD
ENDROOT
BRANCH   8  11
ATOM     11  C   UNL     1       5.973   0.702  -0.053  0.00  0.00    +0.062 C 
ATOM     12  C   UNL     1       6.536   1.928   0.706  0.00  0.00    +0.019 C 
ATOM     13  C   UNL     1       7.341   2.701  -0.386  0.00  0.00    +0.013 C 
ATOM     14  C   UNL     1       6.426   2.454  -1.641  0.00  0.00    +0.016 C 
ATOM     15  C   UNL     1       6.510   0.885  -1.508  0.00  0.00    +0.022 C 
ATOM     16  C   UNL     1       8.027   0.716  -1.370  0.00  0.00    -0.027 C 
ATOM     17  C   UNL     1       8.519   1.774  -0.708  0.00  0.00    -0.027 C 
ENDBRANCH   8  11
BRANCH   6  18
ATOM     18  N   UNL     1      -1.206  -0.718   0.010  0.00  0.00    -0.200 N 
ATOM     19  C   UNL     1      -2.457  -0.215  -0.074  0.00  0.00    +0.250 A 
ATOM     20  N   UNL     1      -3.285  -1.226  -0.029  0.00  0.00    -0.116 NA
ATOM     21  N   UNL     1      -2.644  -2.333   0.077  0.00  0.00    -0.023 NA
ATOM     22  N   UNL     1      -1.374  -2.111   0.101  0.00  0.00    -0.039 NA
ENDBRANCH   6  18
TORSDOF 2
