REMARK  Name = ZINC65331028
REMARK  5 active torsions:
REMARK  status: ('A' for Active; 'I' for Inactive)
REMARK    1  A    between atoms: C_1  and  C_2
REMARK    2  A    between atoms: C_9  and  C_15
REMARK    3  A    between atoms: N_17  and  C_18
REMARK    4  A    between atoms: C_18  and  C_19
REMARK    5  A    between atoms: C_19  and  C_20
REMARK                            x       y       z     vdW  Elec       q    Type
REMARK                         _______ _______ _______ _____ _____    ______ ____
ROOT
ATOM      1  C   UNL     1      -0.018   1.503   0.010  0.00  0.00    +0.044 C 
ATOM      2  C   UNL     1       0.002  -0.004   0.002  0.00  0.00    -0.048 A 
ATOM      3  C   UNL     1       0.006  -0.682  -1.216  0.00  0.00    +0.004 A 
ATOM      4  C   UNL     1       0.024  -2.042  -1.257  0.00  0.00    +0.010 A 
ATOM      5  C   UNL     1       0.040  -2.773  -0.056  0.00  0.00    +0.001 A 
ATOM      6  C   UNL     1       0.060  -4.177  -0.061  0.00  0.00    +0.023 A 
ATOM      7  C   UNL     1       0.075  -4.828   1.164  0.00  0.00    +0.041 A 
ATOM      8  C   UNL     1       0.097  -6.234   1.569  0.00  0.00    +0.065 A 
ATOM      9  C   UNL     1       0.104  -6.234   2.926  0.00  0.00    +0.192 A 
ATOM     10  O   UNL     1       0.088  -4.965   3.387  0.00  0.00    -0.432 OA
ATOM     11  C   UNL     1       0.071  -4.080   2.368  0.00  0.00    +0.229 A 
ATOM     12  N   UNL     1       0.052  -2.763   2.337  0.00  0.00    -0.212 NA
ATOM     13  C   UNL     1       0.037  -2.086   1.186  0.00  0.00    +0.075 A 
ATOM     14  C   UNL     1       0.022  -0.678   1.183  0.00  0.00    +0.031 A 
ENDROOT
BRANCH   9  15
ATOM     15  C   UNL     1       0.125  -7.437   3.770  0.00  0.00    +0.279 C 
ATOM     16  O   UNL     1       0.137  -8.540   3.256  0.00  0.00    -0.267 OA
ATOM     17  N   UNL     1       0.130  -7.318   5.112  0.00  0.00    -0.308 N 
ATOM     18  H   UNL     1       0.120  -6.439   5.521  0.00  0.00    +0.149 HD
BRANCH  17  19
ATOM     19  C   UNL     1       0.151  -8.518   5.953  0.00  0.00    +0.112 C 
BRANCH  19  20
ATOM     20  C   UNL     1       0.153  -8.107   7.427  0.00  0.00    +0.093 C 
BRANCH  20  21
ATOM     21  C   UNL     1       0.174  -9.341   8.292  0.00  0.00    +0.106 A 
ATOM     22  C   UNL     1       1.276  -9.967   8.743  0.00  0.00    +0.044 A 
ATOM     23  C   UNL     1       0.836 -11.069   9.511  0.00  0.00    +0.041 A 
ATOM     24  C   UNL     1      -0.508 -11.051   9.484  0.00  0.00    +0.195 A 
ATOM     25  O   UNL     1      -0.904  -9.998   8.749  0.00  0.00    -0.468 OA
ENDBRANCH  20  21
ENDBRANCH  19  20
ENDBRANCH  17  19
ENDBRANCH   9  15
TORSDOF 4
