REMARK  Name = ZINC02242869
REMARK  6 active torsions:
REMARK  status: ('A' for Active; 'I' for Inactive)
REMARK    1  A    between atoms: C_3  and  O_30
REMARK    2  A    between atoms: C_4  and  C_8
REMARK    3  A    between atoms: N_9  and  N_10
REMARK    4  A    between atoms: C_11  and  C_13
REMARK    5  A    between atoms: C_14  and  C_24
REMARK    6  A    between atoms: C_24  and  N_51
REMARK                            x       y       z     vdW  Elec       q    Type
REMARK                         _______ _______ _______ _____ _____    ______ ____
ROOT
ATOM      1  C   UNL     1      -0.513   5.403  -0.051  0.00  0.00    +0.154 A 
ATOM      2  C   UNL     1       0.761   5.909  -0.058  0.00  0.00    +0.079 A 
ATOM      3  N   UNL     1       1.581   4.864   0.069  0.00  0.00    -0.135 NA
ATOM      4  N   UNL     1       0.889   3.785   0.156  0.00  0.00    -0.058 NA
ATOM      5  N   UNL     1      -0.370   4.045   0.094  0.00  0.00    -0.183 N 
ATOM      6  C   UNL     1      -1.407   3.110   0.156  0.00  0.00    +0.241 A 
ATOM      7  C   UNL     1      -1.248   1.653   0.190  0.00  0.00    +0.206 A 
ATOM      8  N   UNL     1      -2.434   1.112   0.252  0.00  0.00    -0.032 NA
ATOM      9  O   UNL     1      -3.389   2.159   0.256  0.00  0.00    -0.239 OA
ATOM     10  N   UNL     1      -2.681   3.384   0.190  0.00  0.00    -0.027 NA
ATOM     11  N   UNL     1      -0.041   0.965   0.166  0.00  0.00    -0.337 N 
ATOM     12  H   UNL     1      -0.034  -0.005   0.196  0.00  0.00    +0.144 HD
ATOM     13  H   UNL     1       0.795   1.454   0.115  0.00  0.00    +0.144 HD
ENDROOT
BRANCH   1  15
ATOM     14  N   UNL     1      -2.417   6.569   0.938  0.00  0.00    -0.202 N 
ATOM     15  C   UNL     1      -1.770   6.157  -0.170  0.00  0.00    +0.284 C 
ATOM     16  O   UNL     1      -2.227   6.409  -1.270  0.00  0.00    -0.267 OA
ATOM     17  H   UNL     1      -2.016   6.435   1.811  0.00  0.00    +0.178 HD
BRANCH  14  19
ATOM     18  C   UNL     1      -4.290   7.588   1.897  0.00  0.00    +0.142 C 
ATOM     19  N   UNL     1      -3.667   7.192   0.829  0.00  0.00    -0.187 NA
BRANCH  18  23
ATOM     20  C   UNL     1      -8.081   9.476   1.567  0.00  0.00    +0.023 A 
ATOM     21  C   UNL     1      -7.423   9.057   0.425  0.00  0.00    +0.047 A 
ATOM     22  C   UNL     1      -6.185   8.445   0.522  0.00  0.00    +0.126 A 
ATOM     23  C   UNL     1      -5.605   8.243   1.783  0.00  0.00    +0.037 A 
ATOM     24  C   UNL     1      -6.278   8.671   2.929  0.00  0.00    +0.033 A 
ATOM     25  C   UNL     1      -7.510   9.284   2.814  0.00  0.00    +0.042 A 
ATOM     26 CL   UNL     1      -8.347   9.816   4.239  0.00  0.00    -0.084 Cl
BRANCH  22  27
ATOM     27  O   UNL     1      -5.536   8.037  -0.599  0.00  0.00    -0.506 OA
ATOM     28  H   UNL     1      -5.746   7.131  -0.867  0.00  0.00    +0.292 HD
ENDBRANCH  22  27
ENDBRANCH  18  23
ENDBRANCH  14  19
ENDBRANCH   1  15
BRANCH   2  29
ATOM     29  C   UNL     1       1.157   7.357  -0.190  0.00  0.00    -0.018 C 
BRANCH  29  35
ATOM     30  C   UNL     1       2.457   6.959  -2.193  0.00  0.00    -0.078 C 
ATOM     31  C   UNL     1       2.513   7.219  -3.700  0.00  0.00    -0.019 C 
ATOM     32  C   UNL     1       2.670   8.721  -3.949  0.00  0.00    -0.004 C 
ATOM     33  C   UNL     1       1.504   9.464  -3.291  0.00  0.00    -0.019 C 
ATOM     34  C   UNL     1       1.478   9.140  -1.796  0.00  0.00    -0.078 C 
ATOM     35  N   UNL     1       1.300   7.682  -1.624  0.00  0.00    +0.383 N 
ATOM     36  H   UNL     1       0.449   7.390  -2.119  0.00  0.00    -0.081 HD
ENDBRANCH  29  35
ENDBRANCH   2  29
TORSDOF 6
