REMARK  Name = ZINC13636578
REMARK  9 active torsions:
REMARK  status: ('A' for Active; 'I' for Inactive)
REMARK    1  A    between atoms: C_1  and  C_2
REMARK    2  A    between atoms: C_2  and  C_3
REMARK    3  A    between atoms: C_4  and  C_25
REMARK    4  A    between atoms: C_5  and  N_24
REMARK    5  A    between atoms: C_6  and  S_17
REMARK    6  A    between atoms: N_9  and  C_10
REMARK    7  A    between atoms: C_15  and  N_16
REMARK    8  A    between atoms: S_17  and  C_18
REMARK    9  A    between atoms: C_21  and  C_23
REMARK                            x       y       z     vdW  Elec       q    Type
REMARK                         _______ _______ _______ _____ _____    ______ ____
ROOT
ATOM      1  C   UNL     1      -1.294   3.187   0.060  0.00  0.00    +0.036 A 
ATOM      2  C   UNL     1      -0.169   3.953   0.030  0.00  0.00    +0.024 A 
ATOM      3  C   UNL     1       1.105   3.328   0.018  0.00  0.00    +0.053 A 
ATOM      4  C   UNL     1       1.170   1.942   0.039  0.00  0.00    +0.101 A 
ATOM      5  C   UNL     1      -0.022   1.202   0.070  0.00  0.00    +0.272 A 
ATOM      6  O   UNL     1       0.021  -0.019   0.087  0.00  0.00    -0.266 OA
ATOM      7  N   UNL     1      -1.212   1.829   0.074  0.00  0.00    -0.278 N 
ENDROOT
BRANCH   7   8
ATOM      8  C   UNL     1      -2.390   1.070   0.100  0.00  0.00    +0.070 A 
ATOM      9  C   UNL     1      -2.957   0.706   1.312  0.00  0.00    +0.028 A 
ATOM     10  C   UNL     1      -4.121  -0.039   1.335  0.00  0.00    +0.002 A 
ATOM     11  C   UNL     1      -4.719  -0.432   0.151  0.00  0.00    +0.002 A 
ATOM     12  C   UNL     1      -4.158  -0.079  -1.062  0.00  0.00    +0.025 A 
ATOM     13  C   UNL     1      -2.992   0.673  -1.094  0.00  0.00    +0.049 A 
BRANCH  13  14
ATOM     14  N   UNL     1      -2.423   1.031  -2.320  0.00  0.00    -0.356 N 
ATOM     15  H   UNL     1      -1.608   1.557  -2.341  0.00  0.00    +0.142 HD
ATOM     16  H   UNL     1      -2.843   0.754  -3.149  0.00  0.00    +0.142 HD
ENDBRANCH  13  14
ENDBRANCH   7   8
BRANCH   2  17
ATOM     17  C   UNL     1      -0.274   5.433   0.009  0.00  0.00    -0.014 A 
ATOM     18  C   UNL     1      -0.782   6.082  -1.114  0.00  0.00    +0.008 A 
ATOM     19  C   UNL     1      -0.883   7.459  -1.125  0.00  0.00    +0.001 A 
ATOM     20  C   UNL     1      -0.470   8.194  -0.029  0.00  0.00    +0.000 A 
ATOM     21  C   UNL     1       0.041   7.555   1.086  0.00  0.00    +0.001 A 
ATOM     22  C   UNL     1       0.141   6.179   1.111  0.00  0.00    +0.008 A 
ENDBRANCH   2  17
BRANCH   3  23
ATOM     23  N   UNL     1       2.264   4.088  -0.012  0.00  0.00    -0.356 N 
ATOM     24  H   UNL     1       3.128   3.653  -0.093  0.00  0.00    +0.142 HD
ATOM     25  H   UNL     1       2.212   5.055   0.048  0.00  0.00    +0.142 HD
ENDBRANCH   3  23
BRANCH   1  27
ATOM     26  C   UNL     1      -3.080   4.099   1.518  0.00  0.00    +0.010 C 
ATOM     27  C   UNL     1      -2.647   3.851   0.072  0.00  0.00    +0.051 C 
ENDBRANCH   1  27
BRANCH   4  28
ATOM     28  S   UNL     1       2.729   1.122   0.025  0.00  0.00    -0.054 S 
BRANCH  28  29
ATOM     29  C   UNL     1       2.698   0.378   1.622  0.00  0.00    +0.163 A 
ATOM     30  N   UNL     1       1.735   0.357   2.536  0.00  0.00    -0.134 NA
ATOM     31  N   UNL     1       1.881  -0.233   3.641  0.00  0.00    -0.146 NA
ATOM     32  C   UNL     1       2.997  -0.855   3.963  0.00  0.00    +0.100 A 
ATOM     33  S   UNL     1       3.959  -0.558   2.482  0.00  0.00    -0.044 S 
ATOM     34  C   UNL     1       3.361  -1.602   5.220  0.00  0.00    +0.075 C 
ENDBRANCH  28  29
ENDBRANCH   4  28
TORSDOF 7
