REMARK  Name = ZINC00852991
REMARK  11 active torsions:
REMARK  status: ('A' for Active; 'I' for Inactive)
REMARK    1  A    between atoms: C_1  and  C_2
REMARK    2  A    between atoms: C_2  and  C_3
REMARK    3  A    between atoms: C_2  and  C_4
REMARK    4  A    between atoms: C_2  and  C_5
REMARK    5  A    between atoms: C_12  and  C_14
REMARK    6  A    between atoms: C_12  and  N_18
REMARK    7  A    between atoms: C_19  and  O_21
REMARK    8  A    between atoms: O_21  and  C_22
REMARK    9  A    between atoms: C_22  and  C_23
REMARK   10  A    between atoms: C_22  and  C_24
REMARK   11  A    between atoms: C_22  and  C_25
REMARK                            x       y       z     vdW  Elec       q    Type
REMARK                         _______ _______ _______ _____ _____    ______ ____
ROOT
ATOM      1  C   UNL     1       3.265  -3.056  -0.731  0.00  0.00    -0.038 A 
ATOM      2  C   UNL     1       3.276  -3.063   0.652  0.00  0.00    +0.008 A 
ATOM      3  C   UNL     1       2.093  -2.936   1.356  0.00  0.00    +0.050 A 
ATOM      4  C   UNL     1       0.893  -2.800   0.678  0.00  0.00    +0.169 A 
ATOM      5  C   UNL     1       0.882  -2.792  -0.715  0.00  0.00    +0.169 A 
ATOM      6  C   UNL     1       2.071  -2.921  -1.414  0.00  0.00    +0.053 A 
ATOM      7  O   UNL     1      -0.411  -2.648  -1.142  0.00  0.00    -0.429 OA
ATOM      8  C   UNL     1      -1.136  -2.159   0.001  0.00  0.00    +0.386 C 
ATOM      9  O   UNL     1      -0.389  -2.661   1.125  0.00  0.00    -0.429 OA
ENDROOT
BRANCH   1  11
ATOM     10  C   UNL     1       4.768  -1.956  -2.368  0.00  0.00    +0.015 C 
ATOM     11  C   UNL     1       4.557  -3.194  -1.494  0.00  0.00    -0.013 C 
ATOM     12  C   UNL     1       5.719  -3.328  -0.508  0.00  0.00    +0.015 C 
ATOM     13  C   UNL     1       4.494  -4.440  -2.380  0.00  0.00    +0.015 C 
ENDBRANCH   1  11
BRANCH   8  14
ATOM     14  C   UNL     1      -2.562  -2.714   0.012  0.00  0.00    +0.288 C 
ATOM     15 CL   UNL     1      -3.444  -2.132  -1.449  0.00  0.00    -0.073 Cl
ATOM     16 CL   UNL     1      -2.504  -4.516   0.002  0.00  0.00    -0.073 Cl
ATOM     17 CL   UNL     1      -3.416  -2.148   1.495  0.00  0.00    -0.073 Cl
ENDBRANCH   8  14
BRANCH   8  18
ATOM     18  N   UNL     1      -1.156  -0.694   0.009  0.00  0.00    -0.206 N 
ATOM     19  C   UNL     1       0.002  -0.004   0.002  0.00  0.00    +0.406 C 
ATOM     20  O   UNL     1       1.062  -0.597  -0.011  0.00  0.00    -0.226 OA
ATOM     21  H   UNL     1      -2.002  -0.220   0.020  0.00  0.00    +0.159 HD
BRANCH  19  22
ATOM     22  O   UNL     1      -0.016   1.342   0.009  0.00  0.00    -0.445 OA
BRANCH  22  23
ATOM     23  C   UNL     1       1.268   2.019   0.001  0.00  0.00    +0.107 C 
ATOM     24  C   UNL     1       2.044   1.625  -1.258  0.00  0.00    +0.055 C 
ATOM     25  C   UNL     1       1.047   3.533   0.011  0.00  0.00    +0.055 C 
ATOM     26  C   UNL     1       2.068   1.612   1.240  0.00  0.00    +0.055 C 
ENDBRANCH  22  23
ENDBRANCH  19  22
ENDBRANCH   8  18
TORSDOF 5
