REMARK  Name = ZINC40996855
REMARK  7 active torsions:
REMARK  status: ('A' for Active; 'I' for Inactive)
REMARK    1  A    between atoms: C_1  and  C_2
REMARK    2  A    between atoms: C_2  and  O_3
REMARK    3  A    between atoms: O_3  and  C_4
REMARK    4  A    between atoms: C_9  and  C_10
REMARK    5  A    between atoms: C_13  and  C_15
REMARK    6  A    between atoms: C_15  and  N_16
REMARK    7  A    between atoms: C_18  and  C_21
REMARK                            x       y       z     vdW  Elec       q    Type
REMARK                         _______ _______ _______ _____ _____    ______ ____
ROOT
ATOM      1  C   UNL     1       0.777  -1.810  -1.336  0.00  0.00    +0.131 A 
ATOM      2  C   UNL     1       0.245  -2.671  -0.390  0.00  0.00    +0.053 A 
ATOM      3  C   UNL     1       0.353  -4.035  -0.557  0.00  0.00    +0.001 A 
ATOM      4  C   UNL     1       0.986  -4.573  -1.673  0.00  0.00    +0.125 A 
ATOM      5  C   UNL     1       1.526  -3.716  -2.623  0.00  0.00    +0.060 A 
ATOM      6  C   UNL     1       1.419  -2.336  -2.463  0.00  0.00    +0.052 A 
ATOM      7  O   UNL     1       0.958  -5.935  -1.645  0.00  0.00    -0.488 OA
ATOM      8  C   UNL     1       0.700  -6.376  -0.301  0.00  0.00    +0.175 C 
ATOM      9  C   UNL     1      -0.110  -5.201   0.296  0.00  0.00    +0.083 C 
ATOM     10  C   UNL     1       2.010  -6.581   0.463  0.00  0.00    +0.052 C 
ENDROOT
BRANCH   6  11
ATOM     11  C   UNL     1       1.989  -1.427  -3.480  0.00  0.00    +0.112 A 
ATOM     12  N   UNL     1       2.004  -0.102  -3.511  0.00  0.00    -0.247 NA
ATOM     13  C   UNL     1       2.562   0.550  -4.504  0.00  0.00    +0.120 A 
ATOM     14  C   UNL     1       3.138  -0.136  -5.526  0.00  0.00    -0.008 A 
ATOM     15  S   UNL     1       2.851  -1.820  -4.997  0.00  0.00    -0.074 S 
BRANCH  14  16
ATOM     16  C   UNL     1       3.832   0.380  -6.761  0.00  0.00    -0.042 C 
BRANCH  16  17
ATOM     17  N   UNL     1       5.264   0.549  -6.483  0.00  0.00    +0.381 N 
ATOM     18  H   UNL     1       5.385   1.209  -5.729  0.00  0.00    -0.090 HD
ATOM     19  H   UNL     1       5.663  -0.340  -6.219  0.00  0.00    -0.090 HD
ATOM     20  H   UNL     1       5.729   0.894  -7.309  0.00  0.00    -0.090 HD
ENDBRANCH  16  17
ENDBRANCH  14  16
ENDBRANCH   6  11
BRANCH   1  21
ATOM     21  O   UNL     1       0.671  -0.465  -1.174  0.00  0.00    -0.492 OA
BRANCH  21  23
ATOM     22  C   UNL     1      -0.019   1.526   0.010  0.00  0.00    +0.048 C 
ATOM     23  C   UNL     1       0.002  -0.004   0.002  0.00  0.00    +0.226 C 
ENDBRANCH  21  23
ENDBRANCH   1  21
TORSDOF 5
