REMARK  Name = ZINC40066148
REMARK  7 active torsions:
REMARK  status: ('A' for Active; 'I' for Inactive)
REMARK    1  A    between atoms: C_1  and  C_2
REMARK    2  A    between atoms: C_12  and  C_13
REMARK    3  A    between atoms: C_17  and  C_19
REMARK    4  A    between atoms: C_22  and  O_25
REMARK    5  A    between atoms: O_25  and  C_26
REMARK    6  A    between atoms: C_26  and  C_27
REMARK    7  A    between atoms: C_32  and  C_35
REMARK                            x       y       z     vdW  Elec       q    Type
REMARK                         _______ _______ _______ _____ _____    ______ ____
ROOT
ATOM      1  C   UNL     1      -0.018   1.503   0.010  0.00  0.00    +0.044 C 
ATOM      2  C   UNL     1       0.002  -0.004   0.002  0.00  0.00    -0.044 A 
ATOM      3  C   UNL     1       0.005  -0.683  -1.209  0.00  0.00    +0.004 A 
ATOM      4  C   UNL     1       0.021  -2.050  -1.231  0.00  0.00    +0.015 A 
ATOM      5  C   UNL     1       0.034  -2.761  -0.032  0.00  0.00    +0.065 A 
ATOM      6  C   UNL     1       0.038  -4.246  -0.038  0.00  0.00    +0.199 A 
ATOM      7  O   UNL     1       0.202  -4.908  -1.048  0.00  0.00    -0.287 OA
ATOM      8  C   UNL     1      -0.174  -4.839   1.286  0.00  0.00    +0.072 A 
ATOM      9  C   UNL     1      -0.157  -4.068   2.414  0.00  0.00    +0.199 A 
ATOM     10  O   UNL     1       0.060  -2.739   2.383  0.00  0.00    -0.449 OA
ATOM     11  C   UNL     1       0.036  -2.085   1.199  0.00  0.00    +0.143 A 
ATOM     12  C   UNL     1       0.023  -0.690   1.195  0.00  0.00    -0.005 A 
ATOM     13  C   UNL     1       0.025   0.066   2.499  0.00  0.00    +0.048 C 
ATOM     14  C   UNL     1      -0.406  -4.941   3.574  0.00  0.00    +0.289 C 
ATOM     15  O   UNL     1      -0.458  -4.566   4.729  0.00  0.00    -0.266 OA
ATOM     16  N   UNL     1      -0.568  -6.217   3.168  0.00  0.00    -0.235 N 
ATOM     17  C   UNL     1      -0.434  -6.250   1.702  0.00  0.00    +0.151 C 
ATOM     18  C   UNL     1      -0.820  -7.313   3.992  0.00  0.00    +0.172 A 
ATOM     19  C   UNL     1      -1.053  -7.270   5.385  0.00  0.00    +0.091 A 
ATOM     20  C   UNL     1      -1.254  -8.529   5.813  0.00  0.00    +0.136 A 
ATOM     21  O   UNL     1      -1.156  -9.351   4.757  0.00  0.00    -0.358 OA
ATOM     22  N   UNL     1      -0.886  -8.563   3.611  0.00  0.00    -0.063 NA
ATOM     23  C   UNL     1      -1.538  -8.944   7.234  0.00  0.00    +0.089 C 
ENDROOT
BRANCH  17  24
ATOM     24  C   UNL     1       0.724  -7.130   1.306  0.00  0.00    -0.022 A 
ATOM     25  C   UNL     1       1.866  -7.160   2.085  0.00  0.00    +0.009 A 
ATOM     26  C   UNL     1       2.929  -7.966   1.724  0.00  0.00    +0.046 A 
ATOM     27  C   UNL     1       2.849  -8.744   0.579  0.00  0.00    +0.121 A 
ATOM     28  C   UNL     1       1.702  -8.712  -0.201  0.00  0.00    +0.046 A 
ATOM     29  C   UNL     1       0.640  -7.909   0.167  0.00  0.00    +0.009 A 
BRANCH  27  30
ATOM     30  O   UNL     1       3.893  -9.537   0.221  0.00  0.00    -0.483 OA
BRANCH  30  31
ATOM     31  C   UNL     1       3.741 -10.312  -0.970  0.00  0.00    +0.324 C 
BRANCH  31  32
ATOM     32  C   UNL     1       4.990 -11.122  -1.205  0.00  0.00    +0.248 C 
ATOM     33  O   UNL     1       5.919 -11.044  -0.429  0.00  0.00    -0.272 OA
ATOM     34  N   UNL     1       5.075 -11.933  -2.278  0.00  0.00    -0.327 N 
ATOM     35  H   UNL     1       4.332 -11.996  -2.899  0.00  0.00    +0.145 HD
ATOM     36  H   UNL     1       5.879 -12.455  -2.429  0.00  0.00    +0.145 HD
ENDBRANCH  31  32
ENDBRANCH  30  31
ENDBRANCH  27  30
ENDBRANCH  17  24
TORSDOF 4
