REMARK  Name = ZINC59148865
REMARK  9 active torsions:
REMARK  status: ('A' for Active; 'I' for Inactive)
REMARK    1  A    between atoms: C_1  and  C_2
REMARK    2  A    between atoms: C_4  and  O_22
REMARK    3  A    between atoms: C_5  and  C_19
REMARK    4  A    between atoms: C_7  and  C_8
REMARK    5  A    between atoms: N_9  and  N_10
REMARK    6  A    between atoms: C_11  and  C_13
REMARK    7  A    between atoms: C_19  and  C_20
REMARK    8  A    between atoms: C_19  and  C_21
REMARK    9  A    between atoms: O_22  and  C_23
REMARK                            x       y       z     vdW  Elec       q    Type
REMARK                         _______ _______ _______ _____ _____    ______ ____
ROOT
ATOM      1  C   UNL     1      -0.477   1.459   0.076  0.00  0.00    +0.044 C 
ATOM      2  C   UNL     1      -0.218  -0.025   0.034  0.00  0.00    -0.038 A 
ATOM      3  C   UNL     1      -0.318  -0.709  -1.159  0.00  0.00    +0.050 A 
ATOM      4  C   UNL     1      -0.080  -2.077  -1.199  0.00  0.00    +0.124 A 
ATOM      5  C   UNL     1       0.260  -2.762  -0.039  0.00  0.00    -0.003 A 
ATOM      6  C   UNL     1       0.361  -2.086   1.158  0.00  0.00    +0.017 A 
ATOM      7  C   UNL     1       0.129  -0.709   1.202  0.00  0.00    -0.002 A 
ENDROOT
BRANCH   5   8
ATOM      8  C   UNL     1       0.516  -4.246  -0.089  0.00  0.00    +0.016 C 
ATOM      9  C   UNL     1       1.945  -4.532   0.377  0.00  0.00    +0.012 C 
ATOM     10  C   UNL     1      -0.473  -4.966   0.829  0.00  0.00    +0.012 C 
ENDBRANCH   5   8
BRANCH   7  11
ATOM     11  C   UNL     1       0.242   0.020   2.479  0.00  0.00    +0.138 C 
ATOM     12  N   UNL     1       0.133   1.313   2.500  0.00  0.00    -0.188 NA
BRANCH  12  13
ATOM     13  N   UNL     1       0.241   2.005   3.713  0.00  0.00    -0.207 N 
ATOM     14  C   UNL     1       0.129   3.348   3.735  0.00  0.00    +0.235 C 
ATOM     15  O   UNL     1      -0.067   3.957   2.705  0.00  0.00    -0.274 OA
ATOM     16  H   UNL     1       0.398   1.518   4.537  0.00  0.00    +0.177 HD
BRANCH  14  17
ATOM     17  C   UNL     1       0.245   4.092   5.040  0.00  0.00    +0.077 C 
ATOM     18  C   UNL     1      -0.847   3.614   6.000  0.00  0.00    +0.013 C 
ATOM     19  C   UNL     1      -0.729   4.370   7.324  0.00  0.00    +0.001 C 
ATOM     20  C   UNL     1      -0.893   5.870   7.072  0.00  0.00    +0.000 C 
ATOM     21  C   UNL     1       0.198   6.348   6.113  0.00  0.00    +0.001 C 
ATOM     22  C   UNL     1       0.080   5.592   4.788  0.00  0.00    +0.013 C 
ENDBRANCH  14  17
ENDBRANCH  12  13
ENDBRANCH   7  11
BRANCH   4  23
ATOM     23  O   UNL     1      -0.180  -2.747  -2.376  0.00  0.00    -0.495 OA
ATOM     24  C   UNL     1      -0.534  -1.982  -3.530  0.00  0.00    +0.277 C 
ENDBRANCH   4  23
TORSDOF 5
