REMARK  Name = ZINC03335810
REMARK  12 active torsions:
REMARK  status: ('A' for Active; 'I' for Inactive)
REMARK    1  A    between atoms: C_1  and  C_2
REMARK    2  A    between atoms: C_2  and  C_3
REMARK    3  A    between atoms: C_3  and  N_4
REMARK    4  A    between atoms: C_12  and  C_13
REMARK    5  A    between atoms: C_13  and  C_14
REMARK    6  A    between atoms: C_13  and  C_24
REMARK    7  A    between atoms: C_13  and  O_28
REMARK    8  A    between atoms: C_15  and  C_23
REMARK    9  A    between atoms: N_17  and  C_20
REMARK   10  A    between atoms: C_18  and  N_19
REMARK   11  A    between atoms: C_20  and  C_21
REMARK   12  A    between atoms: C_21  and  O_22
REMARK                            x       y       z     vdW  Elec       q    Type
REMARK                         _______ _______ _______ _____ _____    ______ ____
ROOT
ATOM      1  C   UNL     1      -3.644   0.657   0.110  0.00  0.00    +0.249 C 
ENDROOT
BRANCH   1  10
ATOM      2  N   UNL     1      -1.237   1.161   0.758  0.00  0.00    -0.325 N 
ATOM      3  C   UNL     1       0.016   0.816   0.292  0.00  0.00    +0.069 A 
ATOM      4  C   UNL     1       1.312   1.122   0.685  0.00  0.00    +0.028 A 
ATOM      5  C   UNL     1       2.379   0.599  -0.013  0.00  0.00    +0.002 A 
ATOM      6  C   UNL     1       2.166  -0.230  -1.105  0.00  0.00    +0.002 A 
ATOM      7  C   UNL     1       0.898  -0.542  -1.507  0.00  0.00    +0.030 A 
ATOM      8  C   UNL     1      -0.199  -0.023  -0.814  0.00  0.00    +0.089 A 
ATOM      9  N   UNL     1      -1.543  -0.140  -0.966  0.00  0.00    -0.229 NA
ATOM     10  C   UNL     1      -2.149   0.548  -0.044  0.00  0.00    +0.157 A 
BRANCH   2  11
ATOM     11  C   UNL     1      -1.530   2.027   1.903  0.00  0.00    +0.123 C 
BRANCH  11  13
ATOM     12  C   UNL     1      -1.786   4.395   2.658  0.00  0.00    +0.005 C 
ATOM     13  C   UNL     1      -1.480   3.491   1.462  0.00  0.00    +0.018 C 
ENDBRANCH  11  13
ENDBRANCH   2  11
ENDBRANCH   1  10
BRANCH   1  14
ATOM     14  C   UNL     1      -4.062   2.097  -0.044  0.00  0.00    +0.062 A 
ATOM     15  C   UNL     1      -5.078   2.740   0.669  0.00  0.00    +0.068 A 
ATOM     16  N   UNL     1      -5.142   3.982   0.262  0.00  0.00    -0.174 NA
ATOM     17  N   UNL     1      -4.175   4.172  -0.732  0.00  0.00    -0.248 N 
ATOM     18  C   UNL     1      -3.521   3.001  -0.906  0.00  0.00    +0.121 A 
ATOM     19  C   UNL     1      -5.948   2.112   1.726  0.00  0.00    +0.068 C 
BRANCH  18  20
ATOM     20  N   UNL     1      -2.483   2.764  -1.803  0.00  0.00    -0.343 N 
ATOM     21  H   UNL     1      -2.076   1.885  -1.852  0.00  0.00    +0.144 HD
ATOM     22  H   UNL     1      -2.166   3.478  -2.378  0.00  0.00    +0.144 HD
ENDBRANCH  18  20
BRANCH  17  23
ATOM     23  C   UNL     1      -3.917   5.419  -1.457  0.00  0.00    +0.173 C 
BRANCH  23  24
ATOM     24  C   UNL     1      -4.786   5.468  -2.715  0.00  0.00    +0.179 C 
BRANCH  24  25
ATOM     25  O   UNL     1      -4.534   6.684  -3.421  0.00  0.00    -0.393 OA
ATOM     26  H   UNL     1      -5.052   6.782  -4.232  0.00  0.00    +0.209 HD
ENDBRANCH  24  25
ENDBRANCH  23  24
ENDBRANCH  17  23
ENDBRANCH   1  14
BRANCH   1  27
ATOM     27  C   UNL     1      -4.330  -0.191  -0.963  0.00  0.00    +0.430 C 
ATOM     28  F   UNL     1      -4.026  -1.540  -0.757  0.00  0.00    -0.167 F 
ATOM     29  F   UNL     1      -5.715  -0.008  -0.887  0.00  0.00    -0.167 F 
ATOM     30  F   UNL     1      -3.877   0.202  -2.227  0.00  0.00    -0.167 F 
ENDBRANCH   1  27
BRANCH   1  31
ATOM     31  O   UNL     1      -4.026   0.186   1.404  0.00  0.00    -0.369 OA
ATOM     32  H   UNL     1      -3.579   0.638   2.134  0.00  0.00    +0.212 HD
ENDBRANCH   1  31
TORSDOF 10
