REMARK  Name = ZINC06442668
REMARK  5 active torsions:
REMARK  status: ('A' for Active; 'I' for Inactive)
REMARK    1  A    between atoms: C_1  and  C_2
REMARK    2  A    between atoms: C_2  and  C_4
REMARK    3  A    between atoms: C_2  and  O_6
REMARK    4  A    between atoms: O_6  and  C_7
REMARK    5  A    between atoms: C_14  and  C_18
REMARK                            x       y       z     vdW  Elec       q    Type
REMARK                         _______ _______ _______ _____ _____    ______ ____
ROOT
ATOM      1  C   UNL     1      -2.994   1.807   0.595  0.00  0.00    +0.125 A 
ATOM      2  C   UNL     1      -2.608   2.965  -0.077  0.00  0.00    +0.046 A 
ATOM      3  C   UNL     1      -3.528   3.702  -0.767  0.00  0.00    +0.019 A 
ATOM      4  C   UNL     1      -4.861   3.293  -0.799  0.00  0.00    +0.064 A 
ATOM      5  C   UNL     1      -5.882   4.063  -1.533  0.00  0.00    +0.193 A 
ATOM      6  O   UNL     1      -5.595   5.083  -2.137  0.00  0.00    -0.287 OA
ATOM      7  C   UNL     1      -7.209   3.571  -1.510  0.00  0.00    +0.098 A 
ATOM      8  C   UNL     1      -7.489   2.430  -0.825  0.00  0.00    +0.139 A 
ATOM      9  O   UNL     1      -6.551   1.738  -0.160  0.00  0.00    -0.454 OA
ATOM     10  C   UNL     1      -5.260   2.126  -0.124  0.00  0.00    +0.143 A 
ATOM     11  C   UNL     1      -4.313   1.385   0.568  0.00  0.00    +0.092 A 
ENDROOT
BRANCH   8  12
ATOM     12  C   UNL     1      -8.880   1.934  -0.813  0.00  0.00    +0.017 A 
ATOM     13  C   UNL     1      -9.881   2.634  -1.490  0.00  0.00    +0.011 A 
ATOM     14  C   UNL     1     -11.177   2.161  -1.478  0.00  0.00    +0.001 A 
ATOM     15  C   UNL     1     -11.488   1.003  -0.788  0.00  0.00    +0.000 A 
ATOM     16  C   UNL     1     -10.503   0.307  -0.110  0.00  0.00    +0.001 A 
ATOM     17  C   UNL     1      -9.201   0.765  -0.118  0.00  0.00    +0.011 A 
ENDBRANCH   8  12
BRANCH   1  18
ATOM     18  O   UNL     1      -2.070   1.085   1.277  0.00  0.00    -0.478 OA
BRANCH  18  20
ATOM     19  C   UNL     1      -3.143   0.111   3.211  0.00  0.00    +0.064 C 
ATOM     20  C   UNL     1      -2.503  -0.152   1.846  0.00  0.00    +0.282 C 
BRANCH  20  21
ATOM     21  C   UNL     1      -1.320  -1.070   2.014  0.00  0.00    +0.395 C 
ATOM     22  O   UNL     1      -0.207  -0.672   1.766  0.00  0.00    -0.242 OA
ATOM     23  O   UNL     1      -1.504  -2.330   2.439  0.00  0.00    -0.242 OA
ENDBRANCH  20  21
ENDBRANCH  18  20
ENDBRANCH   1  18
TORSDOF 4
