REMARK  Name = ZINC63374654
REMARK  4 active torsions:
REMARK  status: ('A' for Active; 'I' for Inactive)
REMARK    1  A    between atoms: C_1  and  C_2
REMARK    2  A    between atoms: C_5  and  N_9
REMARK    3  A    between atoms: C_7  and  C_8
REMARK    4  A    between atoms: C_12  and  C_19
REMARK                            x       y       z     vdW  Elec       q    Type
REMARK                         _______ _______ _______ _____ _____    ______ ____
ROOT
ATOM      1  N   UNL     1       0.125  -4.172  -0.026  0.00  0.00    -0.229 N 
ATOM      2  C   UNL     1       0.032  -4.836  -1.195  0.00  0.00    +0.270 A 
ATOM      3  O   UNL     1      -0.009  -4.222  -2.248  0.00  0.00    -0.267 OA
ATOM      4  C   UNL     1      -0.016  -6.241  -1.193  0.00  0.00    +0.101 A 
ATOM      5  C   UNL     1       0.033  -6.904  -0.002  0.00  0.00    +0.263 A 
ATOM      6  N   UNL     1       0.127  -6.189   1.165  0.00  0.00    -0.274 N 
ATOM      7  H   UNL     1       0.162  -6.656   2.014  0.00  0.00    +0.173 HD
ATOM      8  C   UNL     1       0.176  -4.845   1.139  0.00  0.00    +0.337 A 
ATOM      9  O   UNL     1       0.265  -4.228   2.183  0.00  0.00    -0.246 OA
ATOM     10  O   UNL     1      -0.012  -8.253   0.028  0.00  0.00    -0.267 OA
ENDROOT
BRANCH   4  11
ATOM     11  C   UNL     1      -0.119  -7.004  -2.488  0.00  0.00    +0.121 C 
ATOM     12  C   UNL     1      -1.342  -7.924  -2.449  0.00  0.00    +0.128 C 
ATOM     13  C   UNL     1      -1.055  -8.969  -1.376  0.00  0.00    -0.035 C 
ATOM     14  C   UNL     1      -2.081  -8.936  -0.537  0.00  0.00    -0.001 A 
ATOM     15  C   UNL     1      -2.416  -9.760   0.636  0.00  0.00    +0.010 A 
ATOM     16  C   UNL     1      -3.563  -9.436   1.289  0.00  0.00    +0.001 A 
ATOM     17  C   UNL     1      -4.401  -8.387   0.897  0.00  0.00    +0.002 A 
ATOM     18  C   UNL     1      -4.174  -7.582  -0.172  0.00  0.00    +0.026 A 
ATOM     19  C   UNL     1      -3.000  -7.829  -0.942  0.00  0.00    +0.043 A 
ATOM     20  N   UNL     1      -2.557  -7.227  -2.029  0.00  0.00    -0.376 N 
ATOM     21  C   UNL     1       0.241  -9.741  -1.351  0.00  0.00    +0.048 C 
ATOM     22  C   UNL     1       1.364  -8.702  -1.522  0.00  0.00    +0.086 C 
ATOM     23  N   UNL     1       1.080  -7.836  -2.671  0.00  0.00    -0.307 NA
ATOM     24  H   UNL     1       1.021  -8.374  -3.523  0.00  0.00    +0.123 HD
ATOM     25  H   UNL     1      -2.954  -6.460  -2.471  0.00  0.00    +0.160 HD
ENDBRANCH   4  11
BRANCH   1  30
ATOM     26  C   UNL     1       0.321   1.499  -0.017  0.00  0.00    +0.044 C 
ATOM     27  C   UNL     1       0.269  -0.007  -0.019  0.00  0.00    -0.047 A 
ATOM     28  C   UNL     1       1.441  -0.738  -0.094  0.00  0.00    +0.005 A 
ATOM     29  C   UNL     1       1.396  -2.118  -0.096  0.00  0.00    +0.027 A 
ATOM     30  C   UNL     1       0.173  -2.772  -0.023  0.00  0.00    +0.055 A 
ATOM     31  C   UNL     1      -1.001  -2.035   0.052  0.00  0.00    +0.030 A 
ATOM     32  C   UNL     1      -0.950  -0.655   0.059  0.00  0.00    -0.046 A 
ATOM     33  C   UNL     1      -2.224   0.145   0.147  0.00  0.00    +0.044 C 
ENDBRANCH   1  30
TORSDOF 2
