REMARK  Name = ZINC27533338
REMARK  7 active torsions:
REMARK  status: ('A' for Active; 'I' for Inactive)
REMARK    1  A    between atoms: C_1  and  C_2
REMARK    2  A    between atoms: C_2  and  O_3
REMARK    3  A    between atoms: O_3  and  C_4
REMARK    4  A    between atoms: C_4  and  C_6
REMARK    5  A    between atoms: C_7  and  N_32
REMARK    6  A    between atoms: C_11  and  C_13
REMARK    7  A    between atoms: C_23  and  C_26
REMARK                            x       y       z     vdW  Elec       q    Type
REMARK                         _______ _______ _______ _____ _____    ______ ____
ROOT
ATOM      1  C   UNL     1       6.271   6.883  -1.289  0.00  0.00    +0.105 C 
ATOM      2  C   UNL     1       5.778   6.277  -2.400  0.00  0.00    +0.195 C 
ATOM      3  O   UNL     1       4.535   5.773  -2.427  0.00  0.00    -0.446 OA
ATOM      4  C   UNL     1       3.913   5.462  -1.274  0.00  0.00    +0.115 C 
ATOM      5  C   UNL     1       4.289   6.010  -0.104  0.00  0.00    +0.045 C 
ATOM      6  C   UNL     1       5.429   6.997  -0.049  0.00  0.00    +0.097 C 
ATOM      7  C   UNL     1       3.640   5.680   1.101  0.00  0.00    +0.164 C 
ATOM      8  O   UNL     1       3.993   6.212   2.134  0.00  0.00    -0.292 OA
ATOM      9  C   UNL     1       2.516   4.679   1.133  0.00  0.00    +0.088 C 
ATOM     10  C   UNL     1       2.704   3.688  -0.021  0.00  0.00    +0.034 C 
ATOM     11  C   UNL     1       2.769   4.476  -1.331  0.00  0.00    +0.083 C 
ENDROOT
BRANCH   6  12
ATOM     12  C   UNL     1       4.872   8.394   0.049  0.00  0.00    -0.034 A 
ATOM     13  C   UNL     1       5.174   9.183   1.144  0.00  0.00    +0.004 A 
ATOM     14  C   UNL     1       4.665  10.465   1.234  0.00  0.00    +0.002 A 
ATOM     15  C   UNL     1       3.853  10.959   0.230  0.00  0.00    +0.020 A 
ATOM     16  C   UNL     1       3.550  10.170  -0.865  0.00  0.00    +0.041 A 
ATOM     17  C   UNL     1       4.065   8.889  -0.958  0.00  0.00    +0.024 A 
ATOM     18 CL   UNL     1       2.531  10.789  -2.127  0.00  0.00    -0.084 Cl
ENDBRANCH   6  12
BRANCH  10  19
ATOM     19  C   UNL     1       1.539   2.733  -0.062  0.00  0.00    -0.043 A 
ATOM     20  C   UNL     1       1.755   1.373   0.060  0.00  0.00    +0.004 A 
ATOM     21  C   UNL     1       0.687   0.497   0.023  0.00  0.00    +0.000 A 
ATOM     22  C   UNL     1      -0.598   0.980  -0.143  0.00  0.00    +0.000 A 
ATOM     23  C   UNL     1      -0.815   2.340  -0.261  0.00  0.00    +0.000 A 
ATOM     24  C   UNL     1       0.254   3.216  -0.223  0.00  0.00    +0.004 A 
ENDBRANCH  10  19
BRANCH   2  25
ATOM     25  N   UNL     1       6.565   6.178  -3.516  0.00  0.00    -0.329 N 
ATOM     26  H   UNL     1       6.176   5.689  -4.422  0.00  0.00    +0.145 HD
ATOM     27  H   UNL     1       7.586   6.587  -3.507  0.00  0.00    +0.145 HD
ENDBRANCH   2  25
BRANCH   1  28
ATOM     28  C   UNL     1       7.575   7.404  -1.299  0.00  0.00    +0.341 C 
ATOM     29  O   UNL     1       8.219   7.413  -2.332  0.00  0.00    -0.245 OA
BRANCH  28  30
ATOM     30  O   UNL     1       8.114   7.894  -0.162  0.00  0.00    -0.462 OA
BRANCH  30  32
ATOM     31  C   UNL     1       9.882   8.916   1.131  0.00  0.00    +0.048 C 
ATOM     32  C   UNL     1       9.445   8.409  -0.245  0.00  0.00    +0.229 C 
ENDBRANCH  30  32
ENDBRANCH  28  30
ENDBRANCH   1  28
TORSDOF 6
