REMARK  Name = ZINC07656258
REMARK  6 active torsions:
REMARK  status: ('A' for Active; 'I' for Inactive)
REMARK    1  A    between atoms: C_9  and  C_12
REMARK    2  A    between atoms: N_14  and  N_15
REMARK    3  A    between atoms: C_16  and  C_18
REMARK    4  A    between atoms: C_18  and  O_19
REMARK    5  A    between atoms: O_19  and  C_20
REMARK    6  A    between atoms: C_20  and  C_22
REMARK                            x       y       z     vdW  Elec       q    Type
REMARK                         _______ _______ _______ _____ _____    ______ ____
ROOT
ATOM      1  N   UNL     1       1.143   1.898   0.001  0.00  0.00    -0.231 N 
ATOM      2  C   UNL     1      -0.014   1.209   0.009  0.00  0.00    +0.267 C 
ATOM      3  O   UNL     1       0.002  -0.004   0.002  0.00  0.00    -0.271 OA
ATOM      4  H   UNL     1       1.130   2.868   0.007  0.00  0.00    +0.173 HD
ENDROOT
BRANCH   1   7
ATOM      5  C   UNL     1       3.524   1.904  -0.021  0.00  0.00    +0.273 C 
ATOM      6  O   UNL     1       3.508   3.117  -0.015  0.00  0.00    -0.270 OA
ATOM      7  N   UNL     1       2.366   1.214  -0.014  0.00  0.00    -0.231 N 
ATOM      8  H   UNL     1       2.379   0.244  -0.019  0.00  0.00    +0.173 HD
BRANCH   5  17
ATOM      9  C   UNL     1       9.712   0.732  -0.812  0.00  0.00    +0.004 A 
ATOM     10  C   UNL     1       9.544   1.904  -0.098  0.00  0.00    +0.004 A 
ATOM     11  C   UNL     1       8.273   2.359   0.198  0.00  0.00    +0.049 A 
ATOM     12  C   UNL     1       7.162   1.641  -0.221  0.00  0.00    +0.163 A 
ATOM     13  C   UNL     1       7.332   0.462  -0.936  0.00  0.00    +0.162 A 
ATOM     14  C   UNL     1       8.610   0.011  -1.230  0.00  0.00    +0.049 A 
ATOM     15  O   UNL     1       6.256  -0.261  -1.353  0.00  0.00    -0.484 OA
ATOM     16  C   UNL     1       4.994   0.414  -1.365  0.00  0.00    +0.283 C 
ATOM     17  C   UNL     1       4.839   1.168  -0.038  0.00  0.00    +0.297 C 
ATOM     18  O   UNL     1       5.917   2.104   0.074  0.00  0.00    -0.472 OA
ENDBRANCH   5  17
ENDBRANCH   1   7
BRANCH   2  19
ATOM     19  C   UNL     1      -1.330   1.944   0.019  0.00  0.00    +0.329 C 
BRANCH  19  20
ATOM     20  O   UNL     1      -2.420   0.986   0.019  0.00  0.00    -0.452 OA
BRANCH  20  21
ATOM     21  C   UNL     1      -3.672   1.484   0.028  0.00  0.00    +0.341 C 
ATOM     22  O   UNL     1      -3.848   2.686   0.035  0.00  0.00    -0.245 OA
BRANCH  21  23
ATOM     23  C   UNL     1      -4.830   0.569   0.028  0.00  0.00    +0.077 A 
ATOM     24  C   UNL     1      -4.631  -0.814   0.020  0.00  0.00    +0.019 A 
ATOM     25  C   UNL     1      -5.716  -1.663   0.021  0.00  0.00    +0.039 A 
ATOM     26  C   UNL     1      -7.004  -1.149   0.029  0.00  0.00    +0.125 A 
ATOM     27  C   UNL     1      -7.209   0.222   0.038  0.00  0.00    +0.059 A 
ATOM     28  C   UNL     1      -6.130   1.083   0.043  0.00  0.00    +0.058 A 
ATOM     29 CL   UNL     1      -6.387   2.800   0.060  0.00  0.00    -0.083 Cl
ATOM     30  F   UNL     1      -8.063  -1.987   0.030  0.00  0.00    -0.205 F 
ENDBRANCH  21  23
ENDBRANCH  20  21
ENDBRANCH  19  20
ENDBRANCH   2  19
TORSDOF 6
