REMARK  Name = ZINC54727053
REMARK  8 active torsions:
REMARK  status: ('A' for Active; 'I' for Inactive)
REMARK    1  A    between atoms: C_1  and  C_2
REMARK    2  A    between atoms: C_5  and  C_22
REMARK    3  A    between atoms: N_8  and  C_10
REMARK    4  A    between atoms: C_10  and  C_11
REMARK    5  A    between atoms: C_10  and  C_12
REMARK    6  A    between atoms: C_10  and  C_13
REMARK    7  A    between atoms: C_13  and  N_14
REMARK    8  A    between atoms: N_17  and  N_18
REMARK                            x       y       z     vdW  Elec       q    Type
REMARK                         _______ _______ _______ _____ _____    ______ ____
ROOT
ATOM      1  C   UNL     1       2.136   0.221   3.668  0.00  0.00    +0.093 C 
ENDROOT
BRANCH   1   2
ATOM      2  N   UNL     1       2.001   1.661   3.436  0.00  0.00    -0.300 N 
ATOM      3  C   UNL     1       1.527   2.460   4.412  0.00  0.00    +0.316 C 
ATOM      4  O   UNL     1       1.211   1.985   5.486  0.00  0.00    -0.251 OA
ATOM      5  N   UNL     1       1.403   3.785   4.198  0.00  0.00    -0.217 N 
ATOM      6  H   UNL     1       2.253   2.039   2.579  0.00  0.00    +0.150 HD
ATOM      7  H   UNL     1       1.062   4.359   4.901  0.00  0.00    +0.174 HD
BRANCH   5   8
ATOM      8  N   UNL     1       1.767   4.331   2.961  0.00  0.00    -0.217 N 
ATOM      9  C   UNL     1       1.643   5.656   2.747  0.00  0.00    +0.313 C 
ATOM     10  O   UNL     1       1.959   6.131   1.673  0.00  0.00    -0.252 OA
ATOM     11  N   UNL     1       1.169   6.455   3.723  0.00  0.00    -0.312 N 
ATOM     12  H   UNL     1       2.109   3.756   2.258  0.00  0.00    +0.174 HD
ATOM     13  H   UNL     1       0.917   6.077   4.580  0.00  0.00    +0.147 HD
ATOM     14  H   UNL     1       1.080   7.409   3.569  0.00  0.00    +0.147 HD
ENDBRANCH   5   8
ENDBRANCH   1   2
BRANCH   1  15
ATOM     15  C   UNL     1       2.570  -0.467   2.372  0.00  0.00    -0.055 C 
ATOM     16  C   UNL     1       2.629  -1.980   2.592  0.00  0.00    -0.008 C 
ATOM     17  C   UNL     1       3.953   0.043   1.963  0.00  0.00    -0.008 C 
BRANCH  15  23
ATOM     18  C   UNL     1      -0.774   1.282   0.483  0.00  0.00    +0.005 C 
ATOM     19  C   UNL     1      -0.757  -0.239   0.650  0.00  0.00    -0.031 C 
ATOM     20  C   UNL     1      -0.373  -0.895  -0.679  0.00  0.00    +0.003 C 
ATOM     21  C   UNL     1       1.047  -0.466  -1.058  0.00  0.00    -0.031 C 
ATOM     22  C   UNL     1       2.007  -0.843   0.073  0.00  0.00    -0.075 C 
ATOM     23  N   UNL     1       1.602  -0.164   1.310  0.00  0.00    +0.384 N 
ATOM     24  C   UNL     1       0.269  -0.624   1.718  0.00  0.00    -0.075 C 
ATOM     25  C   UNL     1       1.470  -1.177  -2.345  0.00  0.00    +0.005 C 
ATOM     26  H   UNL     1       1.579   0.833   1.153  0.00  0.00    -0.081 HD
ENDBRANCH  15  23
ENDBRANCH   1  15
TORSDOF 4
