REMARK  Name = ZINC66106446
REMARK  5 active torsions:
REMARK  status: ('A' for Active; 'I' for Inactive)
REMARK    1  A    between atoms: C_1  and  C_2
REMARK    2  A    between atoms: C_2  and  C_4
REMARK    3  A    between atoms: C_2  and  N_12
REMARK    4  A    between atoms: C_16  and  C_19
REMARK    5  A    between atoms: C_21  and  C_24
REMARK                            x       y       z     vdW  Elec       q    Type
REMARK                         _______ _______ _______ _____ _____    ______ ____
ROOT
ATOM      1  N   UNL     1       0.711  -0.489   1.189  0.00  0.00    -0.318 N 
ATOM      2  C   UNL     1       2.080  -0.602   1.173  0.00  0.00    +0.149 C 
ATOM      3  N   UNL     1       2.734  -1.041   2.228  0.00  0.00    -0.258 N 
ATOM      4  N   UNL     1       3.994  -1.170   2.304  0.00  0.00    -0.172 NA
ATOM      5  C   UNL     1       4.916  -0.626   1.583  0.00  0.00    +0.114 C 
ATOM      6  C   UNL     1       4.601   0.348   0.470  0.00  0.00    +0.138 C 
ATOM      7  S   UNL     1       3.012  -0.167  -0.268  0.00  0.00    -0.085 S 
ATOM      8  H   UNL     1       0.213  -0.731   1.986  0.00  0.00    +0.149 HD
ATOM      9  H   UNL     1       2.212  -1.285   3.008  0.00  0.00    +0.191 HD
ENDROOT
BRANCH   5  10
ATOM     10  C   UNL     1       6.314  -0.964   1.851  0.00  0.00    +0.152 A 
ATOM     11  C   UNL     1       6.755  -1.824   2.812  0.00  0.00    +0.064 A 
ATOM     12  C   UNL     1       8.172  -1.848   2.713  0.00  0.00    +0.075 A 
ATOM     13  C   UNL     1       8.507  -0.998   1.698  0.00  0.00    +0.208 A 
ATOM     14  O   UNL     1       7.383  -0.481   1.187  0.00  0.00    -0.461 OA
BRANCH  12  15
ATOM     15  C   UNL     1       9.100  -2.635   3.546  0.00  0.00    +0.245 C 
ATOM     16  O   UNL     1       8.667  -3.357   4.423  0.00  0.00    -0.270 OA
ATOM     17  N   UNL     1      10.429  -2.554   3.335  0.00  0.00    -0.325 N 
ATOM     18  H   UNL     1      10.775  -1.978   2.635  0.00  0.00    +0.145 HD
ATOM     19  H   UNL     1      11.040  -3.072   3.882  0.00  0.00    +0.145 HD
ENDBRANCH  12  15
ENDBRANCH   5  10
BRANCH   1  21
ATOM     20  C   UNL     1      -0.019   1.526   0.010  0.00  0.00    +0.033 C 
ATOM     21  C   UNL     1       0.002  -0.004   0.002  0.00  0.00    +0.101 C 
BRANCH  21  22
ATOM     22  C   UNL     1      -1.412  -0.526   0.013  0.00  0.00    -0.009 A 
ATOM     23  C   UNL     1      -2.014  -0.864   1.210  0.00  0.00    +0.008 A 
ATOM     24  C   UNL     1      -3.311  -1.342   1.221  0.00  0.00    +0.020 A 
ATOM     25  C   UNL     1      -4.007  -1.483   0.033  0.00  0.00    +0.042 A 
ATOM     26  C   UNL     1      -3.404  -1.144  -1.165  0.00  0.00    +0.040 A 
ATOM     27  C   UNL     1      -2.108  -0.661  -1.175  0.00  0.00    +0.047 A 
ATOM     28 CL   UNL     1      -1.353  -0.230  -2.678  0.00  0.00    -0.083 Cl
ATOM     29 CL   UNL     1      -5.635  -2.084   0.046  0.00  0.00    -0.083 Cl
ENDBRANCH  21  22
ENDBRANCH   1  21
TORSDOF 4
