REMARK  Name = ZINC36290432
REMARK  6 active torsions:
REMARK  status: ('A' for Active; 'I' for Inactive)
REMARK    1  A    between atoms: C_1  and  C_2
REMARK    2  A    between atoms: C_2  and  C_3
REMARK    3  A    between atoms: C_2  and  C_4
REMARK    4  A    between atoms: C_2  and  C_5
REMARK    5  A    between atoms: C_6  and  N_18
REMARK    6  A    between atoms: C_8  and  C_13
REMARK                            x       y       z     vdW  Elec       q    Type
REMARK                         _______ _______ _______ _____ _____    ______ ____
ROOT
ATOM      1  C   UNL     1       0.707  -0.490  -1.238  0.00  0.00    +0.088 A 
ATOM      2  C   UNL     1       0.907  -1.779  -1.579  0.00  0.00    +0.125 A 
ATOM      3  N   UNL     1       1.594  -1.794  -2.789  0.00  0.00    -0.271 N 
ATOM      4  C   UNL     1       2.103  -2.728  -3.678  0.00  0.00    +0.099 A 
ATOM      5  C   UNL     1       2.737  -2.323  -4.798  0.00  0.00    +0.078 A 
ATOM      6  S   UNL     1       2.646  -0.546  -4.656  0.00  0.00    -0.057 S 
ATOM      7  C   UNL     1       1.770  -0.470  -3.111  0.00  0.00    +0.180 A 
ATOM      8  N   UNL     1       1.241   0.288  -2.198  0.00  0.00    -0.224 NA
ENDROOT
BRANCH   4   9
ATOM      9  C   UNL     1       1.952  -4.166  -3.398  0.00  0.00    +0.152 A 
ATOM     10  C   UNL     1       2.965  -5.042  -3.144  0.00  0.00    +0.051 A 
ATOM     11  C   UNL     1       2.368  -6.301  -2.933  0.00  0.00    +0.042 A 
ATOM     12  C   UNL     1       1.038  -6.136  -3.068  0.00  0.00    +0.196 A 
ATOM     13  O   UNL     1       0.789  -4.844  -3.344  0.00  0.00    -0.461 OA
ENDBRANCH   4   9
BRANCH   1  15
ATOM     14  C   UNL     1      -0.019   1.526   0.010  0.00  0.00    +0.017 C 
ATOM     15  C   UNL     1       0.002  -0.004   0.002  0.00  0.00    +0.008 C 
ATOM     16  C   UNL     1       0.742  -0.511   1.242  0.00  0.00    +0.017 C 
ATOM     17  C   UNL     1      -1.433  -0.534   0.013  0.00  0.00    +0.017 C 
ENDBRANCH   1  15
BRANCH   2  18
ATOM     18  N   UNL     1       0.498  -2.902  -0.845  0.00  0.00    -0.343 N 
ATOM     19  H   UNL     1       0.023  -2.788  -0.007  0.00  0.00    +0.144 HD
ATOM     20  H   UNL     1       0.690  -3.793  -1.176  0.00  0.00    +0.144 HD
ENDBRANCH   2  18
TORSDOF 3
