REMARK  Name = ZINC21226706
REMARK  3 active torsions:
REMARK  status: ('A' for Active; 'I' for Inactive)
REMARK    1  A    between atoms: C_3  and  N_29
REMARK    2  A    between atoms: C_6  and  C_7
REMARK    3  A    between atoms: C_18  and  C_21
REMARK                            x       y       z     vdW  Elec       q    Type
REMARK                         _______ _______ _______ _____ _____    ______ ____
ROOT
ATOM      1  C   UNL     1       2.143   0.491   3.671  0.00  0.00    +0.063 C 
ATOM      2  C   UNL     1       1.268  -0.481   4.465  0.00  0.00    +0.109 C 
ATOM      3  C   UNL     1      -0.108   0.111   4.625  0.00  0.00    +0.218 C 
ATOM      4  O   UNL     1      -0.746  -0.104   5.633  0.00  0.00    -0.275 OA
ATOM      5  N   UNL     1      -0.631   0.877   3.652  0.00  0.00    -0.289 N 
ATOM      6  C   UNL     1       0.057   1.119   2.490  0.00  0.00    +0.018 C 
ATOM      7  C   UNL     1       1.395   0.946   2.439  0.00  0.00    +0.020 C 
ATOM      8  C   UNL     1       2.118   1.180   1.258  0.00  0.00    +0.162 C 
ATOM      9  O   UNL     1       3.323   1.025   1.254  0.00  0.00    -0.292 OA
ATOM     10  C   UNL     1       1.423   1.620  -0.003  0.00  0.00    +0.088 C 
ATOM     11  C   UNL     1      -0.013   1.086   0.008  0.00  0.00    +0.032 C 
ATOM     12  C   UNL     1      -0.709   1.583   1.277  0.00  0.00    +0.059 C 
ATOM     13  H   UNL     1      -1.628   1.324   3.780  0.00  0.00    +0.155 HD
ENDROOT
BRANCH  11  14
ATOM     14  C   UNL     1      -0.749   1.588  -1.207  0.00  0.00    -0.042 A 
ATOM     15  C   UNL     1      -1.277   0.690  -2.116  0.00  0.00    +0.005 A 
ATOM     16  C   UNL     1      -1.952   1.150  -3.231  0.00  0.00    +0.022 A 
ATOM     17  C   UNL     1      -2.099   2.509  -3.438  0.00  0.00    +0.059 A 
ATOM     18  C   UNL     1      -1.570   3.409  -2.529  0.00  0.00    +0.060 A 
ATOM     19  C   UNL     1      -0.900   2.947  -1.410  0.00  0.00    +0.025 A 
ATOM     20 CL   UNL     1      -1.754   5.116  -2.788  0.00  0.00    -0.082 Cl
ATOM     21 CL   UNL     1      -2.947   3.087  -4.839  0.00  0.00    -0.082 Cl
ENDBRANCH  11  14
BRANCH   1  27
ATOM     22  C   UNL     1       1.459   2.483   5.023  0.00  0.00    +0.006 A 
ATOM     23  C   UNL     1       1.763   3.576   5.813  0.00  0.00    +0.033 A 
ATOM     24  C   UNL     1       3.081   3.877   6.099  0.00  0.00    +0.126 A 
ATOM     25  C   UNL     1       4.096   3.083   5.599  0.00  0.00    +0.033 A 
ATOM     26  C   UNL     1       3.792   1.987   4.813  0.00  0.00    +0.006 A 
ATOM     27  C   UNL     1       2.474   1.685   4.527  0.00  0.00    -0.039 A 
BRANCH  24  28
ATOM     28  N   UNL     1       3.406   5.050   6.942  0.00  0.00    +0.056 N 
ATOM     29  O   UNL     1       4.568   5.315   7.195  0.00  0.00    -0.126 OA
ATOM     30  O   UNL     1       2.512   5.750   7.382  0.00  0.00    -0.126 OA
ENDBRANCH  24  28
ENDBRANCH   1  27
TORSDOF 3
