REMARK  Name = ZINC54617623
REMARK  14 active torsions:
REMARK  status: ('A' for Active; 'I' for Inactive)
REMARK    1  A    between atoms: C_1  and  C_2
REMARK    2  A    between atoms: C_2  and  C_3
REMARK    3  A    between atoms: C_3  and  S_4
REMARK    4  A    between atoms: S_4  and  C_5
REMARK    5  A    between atoms: C_10  and  C_27
REMARK    6  A    between atoms: C_12  and  C_16
REMARK    7  A    between atoms: C_13  and  C_15
REMARK    8  A    between atoms: N_18  and  C_19
REMARK    9  A    between atoms: C_23  and  C_26
REMARK   10  A    between atoms: C_24  and  C_25
REMARK   11  A    between atoms: C_29  and  N_36
REMARK   12  A    between atoms: C_30  and  O_35
REMARK   13  A    between atoms: C_31  and  O_33
REMARK   14  A    between atoms: O_33  and  C_34
REMARK                            x       y       z     vdW  Elec       q    Type
REMARK                         _______ _______ _______ _____ _____    ______ ____
ROOT
ATOM      1  C   UNL     1       2.539  -1.482  -2.614  0.00  0.00    +0.210 A 
ATOM      2  N   UNL     1       2.578  -0.744  -3.733  0.00  0.00    -0.187 NA
ATOM      3  C   UNL     1       3.016  -1.476  -4.722  0.00  0.00    +0.219 A 
ATOM      4  N   UNL     1       3.267  -2.720  -4.247  0.00  0.00    -0.220 N 
ATOM      5  N   UNL     1       2.961  -2.698  -2.887  0.00  0.00    -0.141 NA
ATOM      6  C   UNL     1       3.764  -3.817  -5.074  0.00  0.00    +0.177 C 
ATOM      7  C   UNL     1       4.220  -3.275  -6.402  0.00  0.00    +0.060 C 
ATOM      8  C   UNL     1       3.944  -2.030  -6.819  0.00  0.00    +0.018 C 
ATOM      9  N   UNL     1       3.228  -1.144  -6.053  0.00  0.00    -0.287 N 
ATOM     10  C   UNL     1       4.438  -1.589  -8.173  0.00  0.00    +0.061 C 
ATOM     11  H   UNL     1       2.883  -0.318  -6.428  0.00  0.00    +0.155 HD
ENDROOT
BRANCH   6  12
ATOM     12  C   UNL     1       2.661  -4.820  -5.293  0.00  0.00    -0.013 A 
ATOM     13  C   UNL     1       1.450  -4.411  -5.820  0.00  0.00    +0.042 A 
ATOM     14  C   UNL     1       0.436  -5.328  -6.022  0.00  0.00    +0.171 A 
ATOM     15  C   UNL     1       0.631  -6.661  -5.697  0.00  0.00    +0.189 A 
ATOM     16  C   UNL     1       1.850  -7.073  -5.166  0.00  0.00    +0.164 A 
ATOM     17  C   UNL     1       2.865  -6.149  -4.971  0.00  0.00    +0.055 A 
BRANCH  14  18
ATOM     18  N   UNL     1      -0.860  -4.886  -6.586  0.00  0.00    +0.060 N 
ATOM     19  O   UNL     1      -1.030  -3.724  -6.870  0.00  0.00    -0.126 OA
ATOM     20  O   UNL     1      -1.747  -5.688  -6.763  0.00  0.00    -0.126 OA
ENDBRANCH  14  18
BRANCH  16  21
ATOM     21  O   UNL     1       2.047  -8.380  -4.845  0.00  0.00    -0.491 OA
ATOM     22  C   UNL     1       3.290  -8.715  -4.226  0.00  0.00    +0.277 C 
ENDBRANCH  16  21
BRANCH  15  23
ATOM     23  O   UNL     1      -0.366  -7.564  -5.895  0.00  0.00    -0.502 OA
ATOM     24  H   UNL     1      -0.352  -7.980  -6.768  0.00  0.00    +0.292 HD
ENDBRANCH  15  23
ENDBRANCH   6  12
BRANCH   7  25
ATOM     25  C   UNL     1       4.975  -4.118  -7.251  0.00  0.00    +0.248 C 
ATOM     26  O   UNL     1       6.168  -4.269  -7.055  0.00  0.00    -0.270 OA
ATOM     27  N   UNL     1       4.375  -4.755  -8.276  0.00  0.00    -0.281 N 
ATOM     28  H   UNL     1       3.413  -4.695  -8.387  0.00  0.00    +0.155 HD
BRANCH  27  29
ATOM     29  C   UNL     1       5.138  -5.503  -9.178  0.00  0.00    +0.037 A 
ATOM     30  C   UNL     1       6.161  -6.320  -8.714  0.00  0.00    +0.023 A 
ATOM     31  C   UNL     1       6.913  -7.056  -9.608  0.00  0.00    +0.002 A 
ATOM     32  C   UNL     1       6.649  -6.981 -10.963  0.00  0.00    +0.004 A 
ATOM     33  C   UNL     1       5.631  -6.169 -11.428  0.00  0.00    -0.046 A 
ATOM     34  C   UNL     1       4.872  -5.434 -10.539  0.00  0.00    -0.026 A 
ATOM     35  C   UNL     1       3.759  -4.553 -11.046  0.00  0.00    +0.046 C 
ATOM     36  C   UNL     1       5.347  -6.090 -12.906  0.00  0.00    +0.044 C 
ENDBRANCH  27  29
ENDBRANCH   7  25
BRANCH   1  37
ATOM     37  S   UNL     1       2.016  -0.911  -1.031  0.00  0.00    -0.084 S 
BRANCH  37  38
ATOM     38  C   UNL     1       1.566   0.823  -1.316  0.00  0.00    +0.077 C 
BRANCH  38  40
ATOM     39  C   UNL     1       0.707   2.910  -0.244  0.00  0.00    +0.004 C 
ATOM     40  C   UNL     1       1.087   1.447  -0.004  0.00  0.00    +0.008 C 
ENDBRANCH  38  40
ENDBRANCH  37  38
ENDBRANCH   1  37
TORSDOF 9
