REMARK  Name = ZINC41214252
REMARK  8 active torsions:
REMARK  status: ('A' for Active; 'I' for Inactive)
REMARK    1  A    between atoms: C_1  and  C_2
REMARK    2  A    between atoms: C_2  and  C_3
REMARK    3  A    between atoms: C_3  and  C_4
REMARK    4  A    between atoms: N_12  and  N_13
REMARK    5  A    between atoms: C_14  and  C_15
REMARK    6  A    between atoms: C_19  and  O_22
REMARK    7  A    between atoms: C_20  and  O_21
REMARK    8  A    between atoms: O_22  and  C_23
REMARK                            x       y       z     vdW  Elec       q    Type
REMARK                         _______ _______ _______ _____ _____    ______ ____
ROOT
ATOM      1  C   UNL     1       0.739  -2.004  -1.265  0.00  0.00    +0.050 A 
ATOM      2  C   UNL     1      -0.224  -2.695  -1.943  0.00  0.00    +0.093 A 
ATOM      3  C   UNL     1      -0.184  -4.101  -1.937  0.00  0.00    +0.253 A 
ATOM      4  O   UNL     1      -1.029  -4.749  -2.532  0.00  0.00    -0.268 OA
ATOM      5  N   UNL     1       0.807  -4.719  -1.259  0.00  0.00    -0.294 N 
ATOM      6  H   UNL     1       0.854  -5.687  -1.242  0.00  0.00    +0.172 HD
ATOM      7  C   UNL     1       1.740  -3.977  -0.601  0.00  0.00    +0.216 A 
ATOM      8  N   UNL     1       1.698  -2.659  -0.616  0.00  0.00    -0.219 NA
ATOM      9  N   UNL     1       2.743  -4.611   0.084  0.00  0.00    -0.207 N 
ATOM     10  H   UNL     1       2.784  -5.580   0.097  0.00  0.00    +0.177 HD
ENDROOT
BRANCH   9  11
ATOM     11  N   UNL     1       3.710  -3.859   0.765  0.00  0.00    -0.187 NA
ATOM     12  C   UNL     1       4.660  -4.460   1.414  0.00  0.00    +0.142 C 
BRANCH  12  13
ATOM     13  C   UNL     1       5.677  -3.669   2.131  0.00  0.00    +0.041 A 
ATOM     14  C   UNL     1       6.705  -4.312   2.826  0.00  0.00    +0.028 A 
ATOM     15  C   UNL     1       7.654  -3.568   3.496  0.00  0.00    +0.022 A 
ATOM     16  C   UNL     1       7.595  -2.185   3.483  0.00  0.00    +0.064 A 
ATOM     17  C   UNL     1       6.581  -1.534   2.797  0.00  0.00    +0.163 A 
ATOM     18  C   UNL     1       5.621  -2.270   2.114  0.00  0.00    +0.167 A 
ATOM     19 BR   UNL     1       9.043  -4.442   4.436  0.00  0.00    -0.050 Br
BRANCH  18  20
ATOM     20  O   UNL     1       4.628  -1.635   1.436  0.00  0.00    -0.503 OA
ATOM     21  H   UNL     1       3.838  -1.463   1.966  0.00  0.00    +0.292 HD
ENDBRANCH  18  20
BRANCH  17  22
ATOM     22  O   UNL     1       6.529  -0.175   2.789  0.00  0.00    -0.491 OA
ATOM     23  C   UNL     1       7.552   0.517   3.508  0.00  0.00    +0.277 C 
ENDBRANCH  17  22
ENDBRANCH  12  13
ENDBRANCH   9  11
BRANCH   1  24
ATOM     24  C   UNL     1       0.718  -0.497  -1.257  0.00  0.00    +0.055 C 
BRANCH  24  26
ATOM     25  C   UNL     1      -0.019   1.526   0.010  0.00  0.00    +0.004 C 
ATOM     26  C   UNL     1       0.002  -0.004   0.002  0.00  0.00    +0.003 C 
ENDBRANCH  24  26
ENDBRANCH   1  24
TORSDOF 6
