REMARK  Name = ZINC67509102
REMARK  7 active torsions:
REMARK  status: ('A' for Active; 'I' for Inactive)
REMARK    1  A    between atoms: C_1  and  C_2
REMARK    2  A    between atoms: C_4  and  C_8
REMARK    3  A    between atoms: C_5  and  C_7
REMARK    4  A    between atoms: C_10  and  C_18
REMARK    5  A    between atoms: C_12  and  C_17
REMARK    6  A    between atoms: N_20  and  C_21
REMARK    7  A    between atoms: C_21  and  C_22
REMARK                            x       y       z     vdW  Elec       q    Type
REMARK                         _______ _______ _______ _____ _____    ______ ____
ROOT
ATOM      1  C   UNL     1      -1.341  -3.418  -0.554  0.00  0.00    +0.079 A 
ATOM      2  C   UNL     1      -2.732  -3.331  -0.654  0.00  0.00    +0.042 A 
ATOM      3  C   UNL     1      -3.497  -4.480  -0.479  0.00  0.00    +0.053 A 
ATOM      4  C   UNL     1      -2.821  -5.688  -0.206  0.00  0.00    +0.076 A 
ATOM      5  C   UNL     1      -3.258  -7.062   0.032  0.00  0.00    +0.091 A 
ATOM      6  N   UNL     1      -2.194  -7.778   0.233  0.00  0.00    -0.080 NA
ATOM      7  O   UNL     1      -1.045  -6.960   0.145  0.00  0.00    -0.334 OA
ATOM      8  C   UNL     1      -1.418  -5.691  -0.121  0.00  0.00    +0.260 A 
ATOM      9  N   UNL     1      -0.738  -4.570  -0.302  0.00  0.00    -0.210 NA
ATOM     10  C   UNL     1      -4.682  -7.556   0.042  0.00  0.00    +0.070 C 
ENDROOT
BRANCH   1  14
ATOM     11  C   UNL     1       0.093   1.414  -1.390  0.00  0.00    +0.086 C 
ATOM     12  C   UNL     1       0.088  -0.067  -1.109  0.00  0.00    +0.103 A 
ATOM     13  C   UNL     1      -1.006  -0.841  -1.024  0.00  0.00    +0.054 A 
ATOM     14  C   UNL     1      -0.522  -2.197  -0.740  0.00  0.00    +0.041 A 
ATOM     15  C   UNL     1       0.833  -2.100  -0.683  0.00  0.00    +0.111 A 
ATOM     16  O   UNL     1       1.177  -0.826  -0.911  0.00  0.00    -0.464 OA
ATOM     17  C   UNL     1       1.787  -3.236  -0.415  0.00  0.00    +0.087 C 
ENDBRANCH   1  14
BRANCH   3  18
ATOM     18  C   UNL     1      -4.973  -4.436  -0.576  0.00  0.00    +0.245 C 
ATOM     19  O   UNL     1      -5.578  -5.372  -1.059  0.00  0.00    -0.270 OA
ATOM     20  N   UNL     1      -5.646  -3.358  -0.127  0.00  0.00    -0.303 N 
ATOM     21  H   UNL     1      -5.163  -2.611   0.260  0.00  0.00    +0.150 HD
BRANCH  20  22
ATOM     22  C   UNL     1      -7.107  -3.315  -0.222  0.00  0.00    +0.200 C 
BRANCH  22  23
ATOM     23  C   UNL     1      -7.610  -2.012   0.345  0.00  0.00    +0.228 C 
ATOM     24  O   UNL     1      -6.824  -1.200   0.786  0.00  0.00    -0.274 OA
ATOM     25  N   UNL     1      -8.931  -1.750   0.363  0.00  0.00    -0.328 N 
ATOM     26  H   UNL     1      -9.560  -2.400   0.010  0.00  0.00    +0.145 HD
ATOM     27  H   UNL     1      -9.255  -0.912   0.728  0.00  0.00    +0.145 HD
ENDBRANCH  22  23
ENDBRANCH  20  22
ENDBRANCH   3  18
TORSDOF 4
