REMARK  Name = ZINC01869596
REMARK  7 active torsions:
REMARK  status: ('A' for Active; 'I' for Inactive)
REMARK    1  A    between atoms: C_1  and  C_2
REMARK    2  A    between atoms: C_2  and  C_3
REMARK    3  A    between atoms: C_2  and  C_4
REMARK    4  A    between atoms: C_5  and  C_17
REMARK    5  A    between atoms: N_19  and  N_20
REMARK    6  A    between atoms: C_21  and  C_22
REMARK    7  A    between atoms: C_26  and  O_28
REMARK                            x       y       z     vdW  Elec       q    Type
REMARK                         _______ _______ _______ _____ _____    ______ ____
ROOT
ATOM      1  C   UNL     1       8.420   3.570   0.040  0.00  0.00    +0.082 A 
ATOM      2  C   UNL     1       7.190   4.132  -0.156  0.00  0.00    +0.172 A 
ATOM      3  N   UNL     1       7.337   5.468  -0.206  0.00  0.00    -0.124 NA
ATOM      4  N   UNL     1       8.577   5.773  -0.045  0.00  0.00    -0.058 NA
ATOM      5  N   UNL     1       9.307   4.586   0.112  0.00  0.00    -0.192 N 
ATOM      6  C   UNL     1      10.689   4.476   0.306  0.00  0.00    +0.240 A 
ATOM      7  C   UNL     1      11.623   5.592   0.479  0.00  0.00    +0.206 A 
ATOM      8  N   UNL     1      12.822   5.104   0.634  0.00  0.00    -0.032 NA
ATOM      9  O   UNL     1      12.727   3.691   0.571  0.00  0.00    -0.239 OA
ATOM     10  N   UNL     1      11.364   3.363   0.370  0.00  0.00    -0.027 NA
ATOM     11  N   UNL     1      11.287   6.942   0.477  0.00  0.00    -0.337 N 
ATOM     12  H   UNL     1      10.364   7.212   0.354  0.00  0.00    +0.144 HD
ATOM     13  H   UNL     1      11.977   7.613   0.600  0.00  0.00    +0.144 HD
ENDROOT
BRANCH   2  14
ATOM     14  C   UNL     1       5.918   3.399  -0.294  0.00  0.00    +0.285 C 
ATOM     15  O   UNL     1       5.920   2.183  -0.343  0.00  0.00    -0.267 OA
ATOM     16  N   UNL     1       4.755   4.075  -0.366  0.00  0.00    -0.202 N 
ATOM     17  H   UNL     1       4.754   5.044  -0.328  0.00  0.00    +0.178 HD
BRANCH  16  18
ATOM     18  N   UNL     1       3.547   3.378  -0.498  0.00  0.00    -0.187 NA
ATOM     19  C   UNL     1       2.426   4.029  -0.568  0.00  0.00    +0.138 C 
BRANCH  19  20
ATOM     20  C   UNL     1       1.154   3.295  -0.706  0.00  0.00    -0.002 A 
ATOM     21  C   UNL     1       1.153   1.899  -0.762  0.00  0.00    +0.010 A 
ATOM     22  C   UNL     1      -0.039   1.216  -0.891  0.00  0.00    +0.004 A 
ATOM     23  C   UNL     1      -1.233   1.909  -0.971  0.00  0.00    +0.045 A 
ATOM     24  C   UNL     1      -1.242   3.296  -0.910  0.00  0.00    +0.117 A 
ATOM     25  C   UNL     1      -0.052   3.993  -0.781  0.00  0.00    +0.054 A 
BRANCH  24  26
ATOM     26  O   UNL     1      -2.420   3.972  -0.984  0.00  0.00    -0.507 OA
ATOM     27  H   UNL     1      -2.685   4.202  -1.884  0.00  0.00    +0.292 HD
ENDBRANCH  24  26
ENDBRANCH  19  20
ENDBRANCH  16  18
ENDBRANCH   2  14
BRANCH   1  29
ATOM     28  C   UNL     1       9.669   1.686  -0.980  0.00  0.00    +0.014 C 
ATOM     29  C   UNL     1       8.727   2.099   0.152  0.00  0.00    +0.034 C 
ATOM     30  C   UNL     1       9.396   1.819   1.500  0.00  0.00    +0.014 C 
ENDBRANCH   1  29
TORSDOF 5
