REMARK  Name = ZINC05449979
REMARK  6 active torsions:
REMARK  status: ('A' for Active; 'I' for Inactive)
REMARK    1  A    between atoms: C_1  and  C_2
REMARK    2  A    between atoms: C_2  and  C_4
REMARK    3  A    between atoms: C_2  and  S_11
REMARK    4  A    between atoms: S_11  and  C_12
REMARK    5  A    between atoms: C_15  and  C_18
REMARK    6  A    between atoms: N_16  and  N_17
REMARK                            x       y       z     vdW  Elec       q    Type
REMARK                         _______ _______ _______ _____ _____    ______ ____
ROOT
ATOM      1  C   UNL     1       3.891   5.564   0.037  0.00  0.00    +0.209 A 
ATOM      2  N   UNL     1       4.488   4.394   0.059  0.00  0.00    -0.121 NA
ATOM      3  N   UNL     1       3.614   3.453   0.099  0.00  0.00    -0.127 NA
ATOM      4  C   UNL     1       2.405   3.965   0.106  0.00  0.00    +0.183 A 
ATOM      5  N   UNL     1       2.545   5.332   0.060  0.00  0.00    -0.224 N 
ENDROOT
BRANCH   4   6
ATOM      6  C   UNL     1       1.133   3.212   0.148  0.00  0.00    +0.035 A 
ATOM      7  C   UNL     1       0.098   3.536  -0.731  0.00  0.00    +0.013 A 
ATOM      8  C   UNL     1      -1.087   2.831  -0.686  0.00  0.00    +0.001 A 
ATOM      9  C   UNL     1      -1.253   1.808   0.231  0.00  0.00    +0.001 A 
ATOM     10  C   UNL     1      -0.230   1.477   1.101  0.00  0.00    +0.016 A 
ATOM     11  C   UNL     1       0.961   2.175   1.067  0.00  0.00    +0.029 A 
ATOM     12 BR   UNL     1       2.357   1.727   2.261  0.00  0.00    -0.050 Br
ENDBRANCH   4   6
BRANCH   5  13
ATOM     13  N   UNL     1       1.546   6.264   0.043  0.00  0.00    -0.295 N 
ATOM     14  H   UNL     1       1.353   6.604   0.973  0.00  0.00    +0.163 HD
ATOM     15  H   UNL     1       1.772   7.025  -0.580  0.00  0.00    +0.163 HD
ENDBRANCH   5  13
BRANCH   1  16
ATOM     16  S   UNL     1       4.679   7.139  -0.021  0.00  0.00    -0.077 S 
BRANCH  16  18
ATOM     17  C   UNL     1       6.750   5.929   1.286  0.00  0.00    +0.024 C 
ATOM     18  C   UNL     1       6.413   6.622  -0.035  0.00  0.00    +0.083 C 
BRANCH  18  19
ATOM     19  C   UNL     1       7.297   7.831  -0.208  0.00  0.00    -0.016 A 
ATOM     20  C   UNL     1       6.854   9.075   0.203  0.00  0.00    +0.006 A 
ATOM     21  C   UNL     1       7.666  10.183   0.049  0.00  0.00    +0.000 A 
ATOM     22  C   UNL     1       8.917  10.050  -0.525  0.00  0.00    +0.001 A 
ATOM     23  C   UNL     1       9.358   8.808  -0.940  0.00  0.00    +0.020 A 
ATOM     24  C   UNL     1       8.548   7.697  -0.782  0.00  0.00    +0.045 A 
ATOM     25 CL   UNL     1       9.101   6.137  -1.304  0.00  0.00    -0.083 Cl
ENDBRANCH  18  19
ENDBRANCH  16  18
ENDBRANCH   1  16
TORSDOF 5
