REMARK  Name = ZINC66587638
REMARK  6 active torsions:
REMARK  status: ('A' for Active; 'I' for Inactive)
REMARK    1  A    between atoms: C_1  and  C_2
REMARK    2  A    between atoms: C_9  and  N_12
REMARK    3  A    between atoms: N_12  and  S_13
REMARK    4  A    between atoms: S_13  and  C_16
REMARK    5  A    between atoms: C_18  and  C_22
REMARK    6  A    between atoms: N_19  and  C_21
REMARK                            x       y       z     vdW  Elec       q    Type
REMARK                         _______ _______ _______ _____ _____    ______ ____
ROOT
ATOM      1  S   UNL     1       0.414  -2.781   5.110  0.00  0.00    +0.093 S 
ATOM      2  O   UNL     1      -0.748  -3.598   5.128  0.00  0.00    -0.148 OA
ATOM      3  O   UNL     1       1.721  -3.312   5.281  0.00  0.00    -0.148 OA
ENDROOT
BRANCH   1   4
ATOM      4  C   UNL     1       0.196  -1.566   6.367  0.00  0.00    +0.128 A 
ATOM      5  C   UNL     1       1.214  -0.864   7.020  0.00  0.00    +0.061 A 
ATOM      6  C   UNL     1       0.608  -0.018   7.924  0.00  0.00    +0.106 A 
ATOM      7  N   UNL     1      -0.752  -0.205   7.820  0.00  0.00    -0.344 N 
ATOM      8  C   UNL     1      -0.989  -1.142   6.869  0.00  0.00    +0.115 A 
ATOM      9  C   UNL     1      -1.773   0.495   8.603  0.00  0.00    +0.149 C 
BRANCH   6  10
ATOM     10  C   UNL     1       1.288   0.911   8.832  0.00  0.00    +0.258 C 
ATOM     11  O   UNL     1       0.638   1.683   9.513  0.00  0.00    -0.269 OA
ATOM     12  N   UNL     1       2.634   0.911   8.914  0.00  0.00    -0.324 N 
ATOM     13  H   UNL     1       3.155   0.348   8.320  0.00  0.00    +0.145 HD
ATOM     14  H   UNL     1       3.080   1.473   9.566  0.00  0.00    +0.145 HD
ENDBRANCH   6  10
ENDBRANCH   1   4
BRANCH   1  15
ATOM     15  N   UNL     1       0.412  -1.987   3.657  0.00  0.00    -0.096 NA
BRANCH  15  24
ATOM     16  C   UNL     1       0.246   1.419  -0.006  0.00  0.00    +0.063 C 
ATOM     17  C   UNL     1       0.416  -0.078   0.011  0.00  0.00    +0.013 A 
ATOM     18  C   UNL     1       0.568  -0.758  -1.196  0.00  0.00    +0.021 A 
ATOM     19  C   UNL     1       0.725  -2.114  -1.198  0.00  0.00    +0.012 A 
ATOM     20  C   UNL     1       0.726  -2.785   0.040  0.00  0.00    +0.000 A 
ATOM     21  C   UNL     1       0.883  -4.179   0.113  0.00  0.00    +0.010 A 
ATOM     22  C   UNL     1       0.881  -4.800   1.326  0.00  0.00    +0.003 A 
ATOM     23  C   UNL     1       0.725  -4.072   2.502  0.00  0.00    +0.029 A 
ATOM     24  C   UNL     1       0.568  -2.704   2.471  0.00  0.00    +0.098 A 
ATOM     25  C   UNL     1       0.567  -2.032   1.228  0.00  0.00    +0.071 A 
ATOM     26  N   UNL     1       0.424  -0.706   1.162  0.00  0.00    -0.357 N 
ATOM     27  H   UNL     1       0.319  -0.198   1.981  0.00  0.00    +0.166 HD
ENDBRANCH  15  24
ENDBRANCH   1  15
TORSDOF 4
