REMARK  Name = ZINC40327417
REMARK  8 active torsions:
REMARK  status: ('A' for Active; 'I' for Inactive)
REMARK    1  A    between atoms: C_1  and  C_2
REMARK    2  A    between atoms: C_5  and  S_9
REMARK    3  A    between atoms: C_6  and  N_8
REMARK    4  A    between atoms: S_9  and  N_12
REMARK    5  A    between atoms: N_12  and  C_13
REMARK    6  A    between atoms: C_14  and  C_20
REMARK    7  A    between atoms: C_15  and  C_19
REMARK    8  A    between atoms: C_16  and  C_18
REMARK                            x       y       z     vdW  Elec       q    Type
REMARK                         _______ _______ _______ _____ _____    ______ ____
ROOT
ATOM      1  S   UNL     1       0.062  -4.535  -0.040  0.00  0.00    +0.094 S 
ATOM      2  O   UNL     1      -0.954  -4.963   0.858  0.00  0.00    -0.148 OA
ATOM      3  O   UNL     1       0.087  -4.928  -1.405  0.00  0.00    -0.148 OA
ENDROOT
BRANCH   1   8
ATOM      4  C   UNL     1      -0.018   1.503   0.010  0.00  0.00    +0.044 C 
ATOM      5  C   UNL     1       0.002  -0.004   0.002  0.00  0.00    -0.049 A 
ATOM      6  C   UNL     1       0.006  -0.688  -1.200  0.00  0.00    +0.005 A 
ATOM      7  C   UNL     1       0.024  -2.071  -1.212  0.00  0.00    +0.031 A 
ATOM      8  C   UNL     1       0.039  -2.773  -0.023  0.00  0.00    +0.131 A 
ATOM      9  C   UNL     1       0.036  -2.089   1.186  0.00  0.00    +0.052 A 
ATOM     10  C   UNL     1       0.023  -0.700   1.194  0.00  0.00    +0.028 A 
BRANCH   9  11
ATOM     11  N   UNL     1       0.051  -2.796   2.390  0.00  0.00    -0.356 N 
ATOM     12  H   UNL     1       0.064  -3.766   2.383  0.00  0.00    +0.142 HD
ATOM     13  H   UNL     1       0.049  -2.318   3.234  0.00  0.00    +0.142 HD
ENDBRANCH   9  11
ENDBRANCH   1   8
BRANCH   1  14
ATOM     14  N   UNL     1       1.505  -5.012   0.617  0.00  0.00    -0.089 NA
BRANCH  14  15
ATOM     15  C   UNL     1       1.801  -6.359   0.733  0.00  0.00    +0.129 A 
ATOM     16  C   UNL     1       2.948  -6.939   1.257  0.00  0.00    +0.087 A 
ATOM     17  C   UNL     1       2.999  -8.383   1.257  0.00  0.00    -0.021 A 
ATOM     18  C   UNL     1       1.923  -9.009   0.745  0.00  0.00    -0.007 A 
ATOM     19  S   UNL     1       0.853  -7.666   0.277  0.00  0.00    -0.074 S 
ATOM     20  C   UNL     1       1.680 -10.489   0.607  0.00  0.00    +0.052 C 
ATOM     21  C   UNL     1       4.184  -9.142   1.796  0.00  0.00    +0.046 C 
BRANCH  16  22
ATOM     22  C   UNL     1       4.024  -6.147   1.772  0.00  0.00    +0.102 C 
ATOM     23  N   UNL     1       4.878  -5.519   2.180  0.00  0.00    -0.191 NA
ENDBRANCH  16  22
ENDBRANCH  14  15
ENDBRANCH   1  14
TORSDOF 5
