REMARK  Name = ZINC40092133
REMARK  13 active torsions:
REMARK  status: ('A' for Active; 'I' for Inactive)
REMARK    1  A    between atoms: C_1  and  C_2
REMARK    2  A    between atoms: C_4  and  C_12
REMARK    3  A    between atoms: C_7  and  O_8
REMARK    4  A    between atoms: O_8  and  C_9
REMARK    5  A    between atoms: C_9  and  C_10
REMARK    6  A    between atoms: C_12  and  C_14
REMARK    7  A    between atoms: N_18  and  C_30
REMARK    8  A    between atoms: C_19  and  C_21
REMARK    9  A    between atoms: C_24  and  O_29
REMARK   10  A    between atoms: C_25  and  O_27
REMARK   11  A    between atoms: O_27  and  C_28
REMARK   12  A    between atoms: C_30  and  C_31
REMARK   13  A    between atoms: C_31  and  O_32
REMARK                            x       y       z     vdW  Elec       q    Type
REMARK                         _______ _______ _______ _____ _____    ______ ____
ROOT
ATOM      1  C   UNL     1      -0.010  -4.265  -2.172  0.00  0.00    +0.076 C 
ATOM      2  C   UNL     1       0.227  -5.040  -3.256  0.00  0.00    +0.249 C 
ATOM      3  C   UNL     1       0.675  -6.375  -2.810  0.00  0.00    +0.288 C 
ATOM      4  O   UNL     1       0.966  -7.296  -3.547  0.00  0.00    -0.266 OA
ATOM      5  N   UNL     1       0.715  -6.421  -1.466  0.00  0.00    -0.281 N 
ATOM      6  C   UNL     1       0.297  -5.109  -0.957  0.00  0.00    +0.145 C 
ATOM      7  O   UNL     1       0.076  -4.654  -4.544  0.00  0.00    -0.282 OA
ENDROOT
BRANCH   6   8
ATOM      8  C   UNL     1       1.411  -4.481  -0.159  0.00  0.00    -0.019 A 
ATOM      9  C   UNL     1       2.659  -4.315  -0.729  0.00  0.00    +0.009 A 
ATOM     10  C   UNL     1       3.684  -3.740   0.000  0.00  0.00    +0.049 A 
ATOM     11  C   UNL     1       3.460  -3.328   1.304  0.00  0.00    +0.158 A 
ATOM     12  C   UNL     1       2.203  -3.495   1.877  0.00  0.00    +0.162 A 
ATOM     13  C   UNL     1       1.180  -4.068   1.140  0.00  0.00    +0.055 A 
BRANCH  12  14
ATOM     14  O   UNL     1       1.979  -3.092   3.157  0.00  0.00    -0.491 OA
ATOM     15  C   UNL     1       0.696  -3.386   3.714  0.00  0.00    +0.277 C 
ENDBRANCH  12  14
BRANCH  11  16
ATOM     16  O   UNL     1       4.467  -2.762   2.022  0.00  0.00    -0.503 OA
ATOM     17  H   UNL     1       4.519  -1.800   1.937  0.00  0.00    +0.292 HD
ENDBRANCH  11  16
ENDBRANCH   6   8
BRANCH   1  18
ATOM     18  C   UNL     1      -0.469  -2.873  -2.176  0.00  0.00    +0.195 C 
ATOM     19  O   UNL     1       0.249  -1.996  -2.619  0.00  0.00    -0.287 OA
BRANCH  18  23
ATOM     20  C   UNL     1      -3.864   0.556  -0.912  0.00  0.00    +0.047 C 
ATOM     21  C   UNL     1      -3.441  -0.885  -1.034  0.00  0.00    -0.008 A 
ATOM     22  C   UNL     1      -2.195  -1.197  -1.531  0.00  0.00    +0.018 A 
ATOM     23  C   UNL     1      -1.804  -2.534  -1.643  0.00  0.00    +0.023 A 
ATOM     24  C   UNL     1      -2.680  -3.550  -1.250  0.00  0.00    +0.015 A 
ATOM     25  C   UNL     1      -3.923  -3.231  -0.754  0.00  0.00    +0.046 A 
ATOM     26  C   UNL     1      -4.306  -1.899  -0.638  0.00  0.00    +0.124 A 
BRANCH  26  27
ATOM     27  O   UNL     1      -5.531  -1.587  -0.143  0.00  0.00    -0.488 OA
BRANCH  27  28
ATOM     28  C   UNL     1      -6.332  -2.670   0.335  0.00  0.00    +0.256 C 
BRANCH  28  29
ATOM     29  C   UNL     1      -7.685  -2.150   0.747  0.00  0.00    +0.006 C 
ATOM     30  C   UNL     1      -8.770  -2.792   0.391  0.00  0.00    +0.007 C 
ENDBRANCH  28  29
ENDBRANCH  27  28
ENDBRANCH  26  27
ENDBRANCH  18  23
ENDBRANCH   1  18
BRANCH   5  31
ATOM     31  C   UNL     1       1.109  -7.574  -0.653  0.00  0.00    +0.137 C 
BRANCH  31  32
ATOM     32  C   UNL     1       2.634  -7.619  -0.538  0.00  0.00    +0.175 C 
BRANCH  32  33
ATOM     33  O   UNL     1       3.087  -6.502   0.230  0.00  0.00    -0.393 OA
ATOM     34  H   UNL     1       4.046  -6.466   0.344  0.00  0.00    +0.209 HD
ENDBRANCH  32  33
ENDBRANCH  31  32
ENDBRANCH   5  31
TORSDOF 11
