REMARK  Name = ZINC12533539
REMARK  9 active torsions:
REMARK  status: ('A' for Active; 'I' for Inactive)
REMARK    1  A    between atoms: C_1  and  C_2
REMARK    2  A    between atoms: C_5  and  S_22
REMARK    3  A    between atoms: C_7  and  N_8
REMARK    4  A    between atoms: C_9  and  C_11
REMARK    5  A    between atoms: C_11  and  O_12
REMARK    6  A    between atoms: O_12  and  C_13
REMARK    7  A    between atoms: C_13  and  C_15
REMARK    8  A    between atoms: C_16  and  C_17
REMARK    9  A    between atoms: S_22  and  N_25
REMARK                            x       y       z     vdW  Elec       q    Type
REMARK                         _______ _______ _______ _____ _____    ______ ____
ROOT
ATOM      1  C   UNL     1      -3.111   3.085   4.907  0.00  0.00    +0.045 C 
ATOM      2  C   UNL     1      -2.336   2.659   3.686  0.00  0.00    -0.029 A 
ATOM      3  C   UNL     1      -1.409   3.514   3.123  0.00  0.00    +0.007 A 
ATOM      4  C   UNL     1      -0.694   3.123   2.006  0.00  0.00    +0.029 A 
ATOM      5  C   UNL     1      -0.912   1.879   1.443  0.00  0.00    +0.107 A 
ATOM      6  C   UNL     1      -1.837   1.019   2.002  0.00  0.00    +0.052 A 
ATOM      7  C   UNL     1      -2.553   1.407   3.127  0.00  0.00    +0.038 A 
ENDROOT
BRANCH   7   8
ATOM      8  N   UNL     1      -3.492   0.539   3.695  0.00  0.00    -0.282 N 
ATOM      9  C   UNL     1      -4.218  -0.277   2.906  0.00  0.00    +0.255 C 
ATOM     10  O   UNL     1      -4.002  -0.319   1.713  0.00  0.00    -0.272 OA
ATOM     11  H   UNL     1      -3.620   0.525   4.656  0.00  0.00    +0.155 HD
BRANCH   9  12
ATOM     12  C   UNL     1      -5.300  -1.139   3.506  0.00  0.00    +0.328 C 
BRANCH  12  13
ATOM     13  O   UNL     1      -5.922  -1.909   2.475  0.00  0.00    -0.452 OA
BRANCH  13  14
ATOM     14  C   UNL     1      -6.919  -2.739   2.848  0.00  0.00    +0.332 C 
ATOM     15  O   UNL     1      -7.250  -2.807   4.018  0.00  0.00    -0.246 OA
BRANCH  14  16
ATOM     16  C   UNL     1      -7.578  -3.530   1.881  0.00  0.00    +0.095 C 
ATOM     17  C   UNL     1      -8.581  -4.366   2.256  0.00  0.00    +0.053 C 
BRANCH  17  18
ATOM     18  C   UNL     1      -9.241  -5.158   1.286  0.00  0.00    +0.128 A 
ATOM     19  C   UNL     1     -10.267  -6.049   1.527  0.00  0.00    +0.049 A 
ATOM     20  C   UNL     1     -10.613  -6.603   0.285  0.00  0.00    +0.042 A 
ATOM     21  C   UNL     1      -9.799  -6.049  -0.641  0.00  0.00    +0.195 A 
ATOM     22  O   UNL     1      -8.976  -5.181  -0.036  0.00  0.00    -0.464 OA
ENDBRANCH  17  18
ENDBRANCH  14  16
ENDBRANCH  13  14
ENDBRANCH  12  13
ENDBRANCH   9  12
ENDBRANCH   7   8
BRANCH   5  23
ATOM     23  S   UNL     1      -0.003   1.387   0.016  0.00  0.00    +0.061 S 
ATOM     24  O   UNL     1       0.006  -0.034   0.010  0.00  0.00    -0.153 OA
ATOM     25  O   UNL     1       1.192   2.156   0.011  0.00  0.00    -0.153 OA
BRANCH  23  26
ATOM     26  N   UNL     1      -0.877   1.860  -1.308  0.00  0.00    -0.172 NA
ATOM     27  C   UNL     1      -1.873   0.965  -1.918  0.00  0.00    +0.137 C 
ATOM     28  C   UNL     1      -3.188   1.746  -2.074  0.00  0.00    +0.177 C 
ATOM     29  O   UNL     1      -2.927   2.969  -2.766  0.00  0.00    -0.377 OA
ATOM     30  C   UNL     1      -2.045   3.857  -2.074  0.00  0.00    +0.177 C 
ATOM     31  C   UNL     1      -0.676   3.186  -1.914  0.00  0.00    +0.137 C 
ENDBRANCH  23  26
ENDBRANCH   5  23
TORSDOF 8
