REMARK  Name = ZINC44010657
REMARK  10 active torsions:
REMARK  status: ('A' for Active; 'I' for Inactive)
REMARK    1  A    between atoms: C_1  and  C_2
REMARK    2  A    between atoms: C_2  and  O_3
REMARK    3  A    between atoms: O_3  and  C_4
REMARK    4  A    between atoms: C_7  and  O_28
REMARK    5  A    between atoms: C_8  and  C_10
REMARK    6  A    between atoms: N_11  and  C_12
REMARK    7  A    between atoms: C_12  and  C_14
REMARK    8  A    between atoms: C_12  and  C_15
REMARK    9  A    between atoms: C_18  and  N_21
REMARK   10  A    between atoms: N_24  and  C_25
REMARK                            x       y       z     vdW  Elec       q    Type
REMARK                         _______ _______ _______ _____ _____    ______ ____
ROOT
ATOM      1  C   UNL     1       3.173  -6.097  -5.010  0.00  0.00    +0.106 C 
ATOM      2  C   UNL     1       4.388  -6.861  -4.480  0.00  0.00    +0.035 C 
ENDROOT
BRANCH   1   3
ATOM      3  C   UNL     1       2.305  -7.030  -5.814  0.00  0.00    -0.025 A 
ATOM      4  C   UNL     1       1.434  -7.889  -5.170  0.00  0.00    +0.007 A 
ATOM      5  C   UNL     1       0.637  -8.746  -5.904  0.00  0.00    +0.024 A 
ATOM      6  C   UNL     1       0.711  -8.743  -7.291  0.00  0.00    +0.035 A 
ATOM      7  C   UNL     1       1.586  -7.879  -7.935  0.00  0.00    +0.024 A 
ATOM      8  C   UNL     1       2.376  -7.021  -7.195  0.00  0.00    +0.007 A 
BRANCH   6   9
ATOM      9  N   UNL     1      -0.095  -9.610  -8.037  0.00  0.00    -0.269 N 
ATOM     10  C   UNL     1      -1.341  -9.904  -7.614  0.00  0.00    +0.304 C 
ATOM     11  O   UNL     1      -1.734  -9.486  -6.543  0.00  0.00    -0.253 OA
ATOM     12  N   UNL     1      -2.151 -10.662  -8.380  0.00  0.00    -0.296 N 
ATOM     13  H   UNL     1       0.242  -9.999  -8.859  0.00  0.00    +0.156 HD
ATOM     14  H   UNL     1      -1.837 -10.996  -9.235  0.00  0.00    +0.151 HD
BRANCH  12  15
ATOM     15  C   UNL     1      -3.504 -10.982  -7.920  0.00  0.00    +0.075 C 
ATOM     16  C   UNL     1      -3.990 -12.422  -8.101  0.00  0.00    +0.024 C 
ATOM     17  C   UNL     1      -4.553 -11.308  -8.985  0.00  0.00    +0.024 C 
ENDBRANCH  12  15
ENDBRANCH   6   9
ENDBRANCH   1   3
BRANCH   1  19
ATOM     18  C   UNL     1       2.220  -4.285  -3.774  0.00  0.00    +0.090 C 
ATOM     19  N   UNL     1       2.403  -5.562  -3.884  0.00  0.00    -0.383 N 
ATOM     20  H   UNL     1       2.030  -6.165  -3.222  0.00  0.00    +0.160 HD
BRANCH  18  25
ATOM     21  C   UNL     1       0.813  -1.850  -1.285  0.00  0.00    +0.121 A 
ATOM     22  C   UNL     1       0.263  -2.712  -0.344  0.00  0.00    +0.049 A 
ATOM     23  C   UNL     1       0.348  -4.080  -0.517  0.00  0.00    +0.049 A 
ATOM     24  C   UNL     1       0.985  -4.602  -1.632  0.00  0.00    +0.126 A 
ATOM     25  C   UNL     1       1.541  -3.738  -2.585  0.00  0.00    +0.035 A 
ATOM     26  C   UNL     1       1.446  -2.356  -2.405  0.00  0.00    +0.058 A 
BRANCH  24  27
ATOM     27  O   UNL     1       1.069  -5.947  -1.801  0.00  0.00    -0.506 OA
ATOM     28  H   UNL     1       0.328  -6.329  -2.290  0.00  0.00    +0.292 HD
ENDBRANCH  24  27
BRANCH  21  29
ATOM     29  O   UNL     1       0.723  -0.505  -1.106  0.00  0.00    -0.492 OA
BRANCH  29  31
ATOM     30  C   UNL     1       0.054   1.479   0.100  0.00  0.00    +0.048 C 
ATOM     31  C   UNL     1       0.056  -0.051   0.073  0.00  0.00    +0.225 C 
ENDBRANCH  29  31
ENDBRANCH  21  29
ENDBRANCH  18  25
ENDBRANCH   1  19
TORSDOF 8
