REMARK  Name = ZINC32913425
REMARK  4 active torsions:
REMARK  status: ('A' for Active; 'I' for Inactive)
REMARK    1  A    between atoms: C_6  and  C_7
REMARK    2  A    between atoms: N_12  and  C_13
REMARK    3  A    between atoms: C_13  and  C_14
REMARK    4  A    between atoms: N_16  and  C_17
REMARK                            x       y       z     vdW  Elec       q    Type
REMARK                         _______ _______ _______ _____ _____    ______ ____
ROOT
ATOM      1  C   UNL     1      -0.810   1.534   1.333  0.00  0.00    -0.037 C 
ATOM      2  C   UNL     1      -0.018   0.936   0.144  0.00  0.00    -0.013 C 
ATOM      3  C   UNL     1      -0.810   1.429  -1.088  0.00  0.00    -0.020 C 
ATOM      4  C   UNL     1      -2.221   1.747  -0.558  0.00  0.00    -0.077 C 
ATOM      5  N   UNL     1      -2.226   1.420   0.884  0.00  0.00    +0.390 N 
ATOM      6  H   UNL     1      -2.636   0.415   1.066  0.00  0.00    -0.080 HD
ENDROOT
BRANCH   1  12
ATOM      7  C   UNL     1      -1.245  -0.467   2.770  0.00  0.00    +0.006 A 
ATOM      8  C   UNL     1      -1.037  -1.211   3.918  0.00  0.00    +0.049 A 
ATOM      9  C   UNL     1      -0.157  -0.753   4.883  0.00  0.00    +0.162 A 
ATOM     10  C   UNL     1       0.513   0.448   4.698  0.00  0.00    +0.162 A 
ATOM     11  C   UNL     1       0.307   1.188   3.546  0.00  0.00    +0.051 A 
ATOM     12  C   UNL     1      -0.578   0.729   2.586  0.00  0.00    -0.057 A 
ATOM     13  O   UNL     1       1.379   0.892   5.655  0.00  0.00    -0.488 OA
ATOM     14  C   UNL     1       2.576   0.128   5.818  0.00  0.00    +0.232 C 
ATOM     15  C   UNL     1       2.338  -1.057   6.740  0.00  0.00    +0.082 C 
ATOM     16  C   UNL     1       1.355  -2.059   6.154  0.00  0.00    +0.232 C 
ATOM     17  O   UNL     1       0.057  -1.477   6.020  0.00  0.00    -0.488 OA
ENDBRANCH   1  12
BRANCH   5  18
ATOM     18  C   UNL     1      -3.091   2.344   1.630  0.00  0.00    +0.019 C 
BRANCH  18  19
ATOM     19  C   UNL     1      -4.532   2.076   1.281  0.00  0.00    +0.197 C 
ATOM     20  O   UNL     1      -4.812   1.202   0.488  0.00  0.00    -0.278 OA
ATOM     21  N   UNL     1      -5.511   2.809   1.849  0.00  0.00    -0.306 N 
ATOM     22  H   UNL     1      -5.257   3.602   2.568  0.00  0.00    +0.149 HD
BRANCH  21  23
ATOM     23  C   UNL     1      -6.912   2.549   1.509  0.00  0.00    +0.159 C 
ATOM     24  C   UNL     1      -7.775   3.735   1.946  0.00  0.00    +0.032 C 
ATOM     25  C   UNL     1      -7.240   4.340   3.234  0.00  0.00    +0.004 C 
ATOM     26  C   UNL     1      -7.357   3.426   4.440  0.00  0.00    +0.019 C 
ATOM     27  C   UNL     1      -6.443   2.208   4.291  0.00  0.00    +0.104 C 
ATOM     28  N   UNL     1      -7.164   1.167   3.542  0.00  0.00    -0.314 N 
ATOM     29  C   UNL     1      -7.389   1.309   2.235  0.00  0.00    +0.233 C 
ATOM     30  O   UNL     1      -7.980   0.442   1.626  0.00  0.00    -0.274 OA
ATOM     31  H   UNL     1      -7.521   0.264   4.059  0.00  0.00    +0.149 HD
ENDBRANCH  21  23
ENDBRANCH  18  19
ENDBRANCH   5  18
TORSDOF 4
