REMARK  Name = ZINC06801384
REMARK  8 active torsions:
REMARK  status: ('A' for Active; 'I' for Inactive)
REMARK    1  A    between atoms: C_1  and  C_2
REMARK    2  A    between atoms: C_3  and  C_19
REMARK    3  A    between atoms: C_4  and  C_10
REMARK    4  A    between atoms: C_14  and  N_16
REMARK    5  A    between atoms: N_21  and  C_22
REMARK    6  A    between atoms: C_22  and  C_23
REMARK    7  A    between atoms: C_22  and  C_24
REMARK    8  A    between atoms: C_22  and  C_25
REMARK                            x       y       z     vdW  Elec       q    Type
REMARK                         _______ _______ _______ _____ _____    ______ ____
ROOT
ATOM      1  C   UNL     1       0.286   1.417  -0.024  0.00  0.00    +0.061 C 
ATOM      2  C   UNL     1       0.165  -0.085  -0.018  0.00  0.00    +0.019 C 
ATOM      3  C   UNL     1      -1.059  -0.652  -0.036  0.00  0.00    +0.056 C 
ATOM      4  C   UNL     1      -1.135  -2.166  -0.029  0.00  0.00    +0.142 C 
ATOM      5  N   UNL     1       0.142  -2.898  -0.003  0.00  0.00    -0.288 N 
ATOM      6  C   UNL     1       1.288  -2.189   0.012  0.00  0.00    +0.304 C 
ATOM      7  O   UNL     1       2.348  -2.784   0.033  0.00  0.00    -0.252 OA
ATOM      8  N   UNL     1       1.297  -0.850   0.000  0.00  0.00    -0.273 N 
ATOM      9  H   UNL     1       0.158  -3.868   0.002  0.00  0.00    +0.151 HD
ATOM     10  H   UNL     1       2.155  -0.398   0.009  0.00  0.00    +0.156 HD
ENDROOT
BRANCH   4  11
ATOM     11  C   UNL     1      -1.893  -2.598  -1.258  0.00  0.00    -0.020 A 
ATOM     12  C   UNL     1      -1.251  -2.660  -2.480  0.00  0.00    +0.006 A 
ATOM     13  C   UNL     1      -1.946  -3.057  -3.607  0.00  0.00    +0.003 A 
ATOM     14  C   UNL     1      -3.284  -3.391  -3.511  0.00  0.00    +0.033 A 
ATOM     15  C   UNL     1      -3.926  -3.330  -2.289  0.00  0.00    +0.127 A 
ATOM     16  C   UNL     1      -3.230  -2.937  -1.161  0.00  0.00    +0.038 A 
BRANCH  15  17
ATOM     17  N   UNL     1      -5.359  -3.687  -2.187  0.00  0.00    +0.056 N 
ATOM     18  O   UNL     1      -5.968  -4.033  -3.173  0.00  0.00    -0.126 OA
ATOM     19  O   UNL     1      -5.921  -3.633  -1.118  0.00  0.00    -0.126 OA
ENDBRANCH  15  17
ENDBRANCH   4  11
BRANCH   3  20
ATOM     20  C   UNL     1      -2.233   0.140  -0.059  0.00  0.00    +0.244 C 
ATOM     21  O   UNL     1      -2.899   0.272   0.952  0.00  0.00    -0.270 OA
ATOM     22  N   UNL     1      -2.613   0.748  -1.201  0.00  0.00    -0.307 N 
ATOM     23  H   UNL     1      -2.118   0.593  -2.020  0.00  0.00    +0.150 HD
BRANCH  22  24
ATOM     24  C   UNL     1      -3.774   1.642  -1.203  0.00  0.00    +0.026 C 
ATOM     25  C   UNL     1      -3.528   2.799  -0.232  0.00  0.00    +0.031 C 
ATOM     26  C   UNL     1      -3.987   2.196  -2.613  0.00  0.00    +0.031 C 
ATOM     27  C   UNL     1      -5.017   0.865  -0.766  0.00  0.00    +0.031 C 
ENDBRANCH  22  24
ENDBRANCH   3  20
TORSDOF 4
