REMARK  Name = ZINC09066933
REMARK  15 active torsions:
REMARK  status: ('A' for Active; 'I' for Inactive)
REMARK    1  A    between atoms: C_1  and  C_2
REMARK    2  A    between atoms: C_2  and  O_3
REMARK    3  A    between atoms: O_3  and  C_4
REMARK    4  A    between atoms: C_4  and  C_6
REMARK    5  A    between atoms: C_7  and  C_35
REMARK    6  A    between atoms: C_8  and  C_13
REMARK    7  A    between atoms: C_9  and  C_12
REMARK    8  A    between atoms: C_13  and  C_15
REMARK    9  A    between atoms: N_19  and  C_28
REMARK   10  A    between atoms: C_20  and  C_22
REMARK   11  A    between atoms: C_28  and  C_29
REMARK   12  A    between atoms: C_29  and  C_30
REMARK   13  A    between atoms: C_30  and  N_31
REMARK   14  A    between atoms: N_31  and  C_32
REMARK   15  A    between atoms: N_31  and  C_33
REMARK                            x       y       z     vdW  Elec       q    Type
REMARK                         _______ _______ _______ _____ _____    ______ ____
ROOT
ATOM      1  C   UNL     1       3.408  -4.179  -6.309  0.00  0.00    +0.076 C 
ATOM      2  C   UNL     1       3.838  -4.953  -7.332  0.00  0.00    +0.249 C 
ATOM      3  C   UNL     1       4.779  -4.176  -8.166  0.00  0.00    +0.288 C 
ATOM      4  O   UNL     1       5.337  -4.594  -9.161  0.00  0.00    -0.266 OA
ATOM      5  N   UNL     1       4.925  -2.938  -7.662  0.00  0.00    -0.284 N 
ATOM      6  C   UNL     1       4.079  -2.834  -6.467  0.00  0.00    +0.145 C 
ATOM      7  O   UNL     1       3.467  -6.234  -7.555  0.00  0.00    -0.282 OA
ENDROOT
BRANCH   6   8
ATOM      8  C   UNL     1       3.043  -1.756  -6.654  0.00  0.00    -0.020 A 
ATOM      9  C   UNL     1       2.313  -1.670  -7.829  0.00  0.00    +0.025 A 
ATOM     10  C   UNL     1       1.371  -0.668  -7.965  0.00  0.00    +0.111 A 
ATOM     11  N   UNL     1       1.163   0.199  -6.993  0.00  0.00    -0.263 NA
ATOM     12  C   UNL     1       1.839   0.147  -5.861  0.00  0.00    +0.111 A 
ATOM     13  C   UNL     1       2.793  -0.831  -5.652  0.00  0.00    +0.025 A 
ENDBRANCH   6   8
BRANCH   1  14
ATOM     14  C   UNL     1       2.466  -4.568  -5.254  0.00  0.00    +0.197 C 
ATOM     15  O   UNL     1       1.269  -4.441  -5.429  0.00  0.00    -0.287 OA
BRANCH  14  18
ATOM     16  C   UNL     1       3.057  -6.005  -1.935  0.00  0.00    +0.128 A 
ATOM     17  C   UNL     1       2.191  -5.599  -2.907  0.00  0.00    -0.008 A 
ATOM     18  C   UNL     1       2.971  -5.113  -3.980  0.00  0.00    +0.046 A 
ATOM     19  C   UNL     1       4.298  -5.244  -3.609  0.00  0.00    +0.025 A 
ATOM     20  N   UNL     1       4.343  -5.776  -2.378  0.00  0.00    -0.352 N 
ATOM     21  H   UNL     1       5.152  -5.971  -1.879  0.00  0.00    +0.166 HD
ATOM     22  C   UNL     1       5.489  -4.852  -4.444  0.00  0.00    +0.064 C 
ATOM     23  C   UNL     1       0.686  -5.660  -2.849  0.00  0.00    +0.047 C 
BRANCH  16  24
ATOM     24  C   UNL     1       2.685  -6.579  -0.638  0.00  0.00    +0.356 C 
ATOM     25  O   UNL     1       1.513  -6.735  -0.356  0.00  0.00    -0.243 OA
BRANCH  24  26
ATOM     26  O   UNL     1       3.643  -6.936   0.242  0.00  0.00    -0.460 OA
BRANCH  26  28
ATOM     27  C   UNL     1       4.428  -7.830   2.345  0.00  0.00    +0.048 C 
ATOM     28  C   UNL     1       3.209  -7.489   1.486  0.00  0.00    +0.229 C 
ENDBRANCH  26  28
ENDBRANCH  24  26
ENDBRANCH  16  24
ENDBRANCH  14  18
ENDBRANCH   1  14
BRANCH   5  29
ATOM     29  C   UNL     1       5.774  -1.877  -8.211  0.00  0.00    +0.107 C 
BRANCH  29  30
ATOM     30  C   UNL     1       4.969  -1.048  -9.214  0.00  0.00    +0.000 C 
BRANCH  30  31
ATOM     31  C   UNL     1       5.856   0.059  -9.788  0.00  0.00    -0.078 C 
BRANCH  31  32
ATOM     32  N   UNL     1       5.083   0.856 -10.750  0.00  0.00    +0.376 N 
ATOM     33  C   UNL     1       3.997   1.553 -10.048  0.00  0.00    -0.097 C 
ATOM     34  C   UNL     1       5.965   1.842 -11.389  0.00  0.00    -0.097 C 
ATOM     35  H   UNL     1       4.693   0.248 -11.454  0.00  0.00    -0.083 HD
ENDBRANCH  31  32
ENDBRANCH  30  31
ENDBRANCH  29  30
ENDBRANCH   5  29
TORSDOF 10
