REMARK  Name = ZINC19212057
REMARK  7 active torsions:
REMARK  status: ('A' for Active; 'I' for Inactive)
REMARK    1  A    between atoms: C_1  and  C_2
REMARK    2  A    between atoms: C_5  and  C_8
REMARK    3  A    between atoms: C_9  and  C_24
REMARK    4  A    between atoms: C_14  and  C_18
REMARK    5  A    between atoms: C_18  and  C_19
REMARK    6  A    between atoms: C_24  and  O_25
REMARK    7  A    between atoms: O_25  and  C_26
REMARK                            x       y       z     vdW  Elec       q    Type
REMARK                         _______ _______ _______ _____ _____    ______ ____
ROOT
ATOM      1  C   UNL     1       0.060  -4.255  -0.021  0.00  0.00    +0.050 A 
ATOM      2  C   UNL     1      -0.956  -5.100  -0.505  0.00  0.00    +0.099 A 
ATOM      3  N   UNL     1      -0.577  -6.340  -0.344  0.00  0.00    -0.164 NA
ATOM      4  N   UNL     1       0.692  -6.357   0.247  0.00  0.00    -0.179 N 
ATOM      5  C   UNL     1       1.084  -5.065   0.440  0.00  0.00    +0.146 A 
ATOM      6  N   UNL     1       2.308  -4.785   1.008  0.00  0.00    -0.342 N 
ATOM      7  C   UNL     1       3.139  -5.800   1.378  0.00  0.00    +0.027 A 
ATOM      8  C   UNL     1       2.760  -7.084   1.188  0.00  0.00    +0.093 A 
ATOM      9  C   UNL     1       1.505  -7.368   0.614  0.00  0.00    +0.275 A 
ATOM     10  O   UNL     1       1.160  -8.524   0.440  0.00  0.00    -0.266 OA
ATOM     11  H   UNL     1       2.579  -3.864   1.144  0.00  0.00    +0.167 HD
ENDROOT
BRANCH   1  16
ATOM     12  C   UNL     1      -0.018   1.503   0.010  0.00  0.00    +0.044 C 
ATOM     13  C   UNL     1       0.002  -0.004   0.002  0.00  0.00    -0.050 A 
ATOM     14  C   UNL     1       0.006  -0.686  -1.201  0.00  0.00    +0.004 A 
ATOM     15  C   UNL     1       0.024  -2.066  -1.215  0.00  0.00    +0.009 A 
ATOM     16  C   UNL     1       0.040  -2.772  -0.013  0.00  0.00    -0.013 A 
ATOM     17  C   UNL     1       0.037  -2.079   1.196  0.00  0.00    +0.009 A 
ATOM     18  C   UNL     1       0.023  -0.699   1.198  0.00  0.00    +0.004 A 
ENDBRANCH   1  16
BRANCH   7  19
ATOM     19  C   UNL     1       4.477  -5.490   1.998  0.00  0.00    +0.089 C 
BRANCH  19  20
ATOM     20  C   UNL     1       5.491  -5.251   0.909  0.00  0.00    -0.035 A 
ATOM     21  C   UNL     1       6.229  -6.301   0.395  0.00  0.00    +0.011 A 
ATOM     22  C   UNL     1       7.133  -6.051  -0.584  0.00  0.00    +0.045 A 
ATOM     23  S   UNL     1       6.960  -4.288  -0.807  0.00  0.00    -0.105 S 
ATOM     24  C   UNL     1       5.690  -4.004   0.415  0.00  0.00    +0.049 A 
ENDBRANCH  19  20
ENDBRANCH   7  19
BRANCH   2  25
ATOM     25  C   UNL     1      -2.262  -4.650  -1.107  0.00  0.00    +0.217 C 
BRANCH  25  26
ATOM     26  O   UNL     1      -2.106  -4.492  -2.519  0.00  0.00    -0.377 OA
ATOM     27  C   UNL     1      -3.293  -4.066  -3.191  0.00  0.00    +0.194 C 
ENDBRANCH  25  26
ENDBRANCH   2  25
TORSDOF 5
