REMARK  Name = ZINC20235846
REMARK  10 active torsions:
REMARK  status: ('A' for Active; 'I' for Inactive)
REMARK    1  A    between atoms: C_1  and  C_2
REMARK    2  A    between atoms: C_2  and  O_3
REMARK    3  A    between atoms: O_3  and  C_4
REMARK    4  A    between atoms: C_6  and  C_21
REMARK    5  A    between atoms: C_9  and  O_10
REMARK    6  A    between atoms: O_10  and  C_11
REMARK    7  A    between atoms: C_11  and  C_12
REMARK    8  A    between atoms: C_12  and  O_13
REMARK    9  A    between atoms: O_13  and  C_14
REMARK   10  A    between atoms: C_31  and  C_33
REMARK                            x       y       z     vdW  Elec       q    Type
REMARK                         _______ _______ _______ _____ _____    ______ ____
ROOT
ATOM      1  C   UNL     1       0.579  -2.097   1.800  0.00  0.00    +0.164 A 
ATOM      2  C   UNL     1       0.211  -2.801   0.671  0.00  0.00    +0.057 A 
ATOM      3  C   UNL     1       0.195  -4.203   0.698  0.00  0.00    -0.019 A 
ATOM      4  C   UNL     1       0.552  -4.881   1.873  0.00  0.00    +0.027 A 
ATOM      5  C   UNL     1       0.917  -4.169   2.993  0.00  0.00    +0.064 A 
ATOM      6  C   UNL     1       0.938  -2.779   2.962  0.00  0.00    +0.176 A 
ATOM      7 BR   UNL     1       1.398  -5.085   4.577  0.00  0.00    -0.046 Br
ENDROOT
BRANCH   3   8
ATOM      8  C   UNL     1      -0.195  -4.956  -0.496  0.00  0.00    +0.025 C 
ATOM      9  C   UNL     1       0.440  -6.139  -0.801  0.00  0.00    +0.084 C 
ATOM     10  C   UNL     1      -0.035  -7.037  -1.898  0.00  0.00    +0.176 C 
ATOM     11  N   UNL     1      -0.632  -6.606  -2.978  0.00  0.00    -0.280 NA
ATOM     12  N   UNL     1       0.224  -8.377  -1.647  0.00  0.00    -0.142 N 
ATOM     13  C   UNL     1       1.217  -8.761  -0.781  0.00  0.00    +0.168 C 
ATOM     14  N   UNL     1       1.925  -7.914  -0.036  0.00  0.00    -0.156 NA
ATOM     15  C   UNL     1       1.644  -6.601  -0.066  0.00  0.00    +0.273 C 
ATOM     16  O   UNL     1       2.365  -5.799   0.505  0.00  0.00    -0.268 OA
ATOM     17  C   UNL     1       1.287 -10.160  -0.851  0.00  0.00    +0.091 C 
ATOM     18  C   UNL     1       0.322 -10.594  -1.691  0.00  0.00    +0.134 C 
ATOM     19  O   UNL     1      -0.369  -9.540  -2.156  0.00  0.00    -0.375 OA
ATOM     20  C   UNL     1       0.063 -12.034  -2.051  0.00  0.00    +0.089 C 
ATOM     21  H   UNL     1      -0.786  -5.656  -3.100  0.00  0.00    +0.188 HD
ENDBRANCH   3   8
BRANCH   1  22
ATOM     22  O   UNL     1       0.596  -0.738   1.777  0.00  0.00    -0.489 OA
BRANCH  22  24
ATOM     23  C   UNL     1       0.297   1.415   0.719  0.00  0.00    +0.048 C 
ATOM     24  C   UNL     1       0.217  -0.104   0.553  0.00  0.00    +0.226 C 
ENDBRANCH  22  24
ENDBRANCH   1  22
BRANCH   6  25
ATOM     25  O   UNL     1       1.304  -2.083   4.069  0.00  0.00    -0.484 OA
BRANCH  25  26
ATOM     26  C   UNL     1       0.267  -1.729   4.986  0.00  0.00    +0.270 C 
BRANCH  26  27
ATOM     27  C   UNL     1       0.867  -0.955   6.161  0.00  0.00    +0.270 C 
BRANCH  27  28
ATOM     28  O   UNL     1       1.399   0.286   5.693  0.00  0.00    -0.489 OA
BRANCH  28  29
ATOM     29  C   UNL     1       1.973   1.100   6.617  0.00  0.00    +0.121 A 
ATOM     30  C   UNL     1       2.029   0.709   7.947  0.00  0.00    +0.045 A 
ATOM     31  C   UNL     1       2.613   1.538   8.886  0.00  0.00    +0.004 A 
ATOM     32  C   UNL     1       3.142   2.756   8.500  0.00  0.00    +0.000 A 
ATOM     33  C   UNL     1       3.087   3.148   7.175  0.00  0.00    +0.004 A 
ATOM     34  C   UNL     1       2.509   2.320   6.232  0.00  0.00    +0.045 A 
ENDBRANCH  28  29
ENDBRANCH  27  28
ENDBRANCH  26  27
ENDBRANCH  25  26
ENDBRANCH   6  25
TORSDOF 8
