REMARK  Name = ZINC64776065
REMARK  10 active torsions:
REMARK  status: ('A' for Active; 'I' for Inactive)
REMARK    1  A    between atoms: C_1  and  C_2
REMARK    2  A    between atoms: C_6  and  N_9
REMARK    3  A    between atoms: C_7  and  C_8
REMARK    4  A    between atoms: N_12  and  C_15
REMARK    5  A    between atoms: C_15  and  C_16
REMARK    6  A    between atoms: C_16  and  N_17
REMARK    7  A    between atoms: C_18  and  C_20
REMARK    8  A    between atoms: C_20  and  C_22
REMARK    9  A    between atoms: C_20  and  N_23
REMARK   10  A    between atoms: N_34  and  C_37
REMARK                            x       y       z     vdW  Elec       q    Type
REMARK                         _______ _______ _______ _____ _____    ______ ____
ROOT
ATOM      1  N   UNL     1       1.218  -3.483   8.683  0.00  0.00    -0.312 N 
ATOM      2  C   UNL     1       2.151  -4.048   9.474  0.00  0.00    +0.236 C 
ATOM      3  O   UNL     1       2.992  -4.778   8.992  0.00  0.00    -0.274 OA
ATOM      4  H   UNL     1       0.545  -2.900   9.068  0.00  0.00    +0.149 HD
ENDROOT
BRANCH   2   5
ATOM      5  C   UNL     1       2.150  -3.774  10.955  0.00  0.00    +0.170 C 
ATOM      6  C   UNL     1       2.322  -2.273  11.197  0.00  0.00    +0.041 C 
BRANCH   5   7
ATOM      7  N   UNL     1       3.255  -4.500  11.587  0.00  0.00    -0.324 N 
ATOM      8  C   UNL     1       4.589  -4.323  11.285  0.00  0.00    +0.051 A 
ATOM      9  C   UNL     1       5.249  -3.491  10.384  0.00  0.00    +0.026 A 
ATOM     10  C   UNL     1       6.623  -3.529  10.295  0.00  0.00    +0.002 A 
ATOM     11  C   UNL     1       7.360  -4.389  11.097  0.00  0.00    +0.001 A 
ATOM     12  C   UNL     1       6.732  -5.214  11.988  0.00  0.00    +0.010 A 
ATOM     13  C   UNL     1       5.341  -5.191  12.094  0.00  0.00    +0.009 A 
ATOM     14  C   UNL     1       4.375  -5.924  12.924  0.00  0.00    +0.033 A 
ATOM     15  C   UNL     1       3.111  -5.452  12.572  0.00  0.00    +0.119 A 
ATOM     16  C   UNL     1       1.980  -5.990  13.232  0.00  0.00    +0.291 A 
ATOM     17  O   UNL     1       0.859  -5.604  12.947  0.00  0.00    -0.264 OA
ATOM     18  N   UNL     1       2.156  -6.935  14.178  0.00  0.00    -0.231 N 
ATOM     19  N   UNL     1       3.435  -7.386  14.513  0.00  0.00    -0.176 NA
ATOM     20  C   UNL     1       4.497  -6.918  13.919  0.00  0.00    +0.143 A 
ATOM     21  C   UNL     1       0.989  -7.495  14.864  0.00  0.00    +0.176 C 
ENDBRANCH   5   7
ENDBRANCH   2   5
BRANCH   1  22
ATOM     22  C   UNL     1       1.219  -3.749   7.242  0.00  0.00    +0.119 C 
BRANCH  22  23
ATOM     23  C   UNL     1       0.065  -2.992   6.583  0.00  0.00    +0.103 C 
BRANCH  23  27
ATOM     24  N   UNL     1       0.051  -2.796   2.390  0.00  0.00    -0.327 N 
ATOM     25  C   UNL     1      -1.203  -3.201   3.044  0.00  0.00    +0.120 C 
ATOM     26  C   UNL     1      -1.157  -2.746   4.507  0.00  0.00    +0.103 C 
ATOM     27  N   UNL     1       0.066  -3.259   5.138  0.00  0.00    -0.298 NA
ATOM     28  C   UNL     1       1.268  -2.704   4.501  0.00  0.00    +0.103 C 
ATOM     29  C   UNL     1       1.322  -3.162   3.035  0.00  0.00    +0.120 C 
BRANCH  24  35
ATOM     30  C   UNL     1      -0.018   1.503   0.010  0.00  0.00    +0.044 C 
ATOM     31  C   UNL     1       0.002  -0.004   0.002  0.00  0.00    -0.046 A 
ATOM     32  C   UNL     1       0.006  -0.688  -1.200  0.00  0.00    +0.004 A 
ATOM     33  C   UNL     1       0.024  -2.071  -1.212  0.00  0.00    +0.002 A 
ATOM     34  C   UNL     1       0.039  -2.773  -0.023  0.00  0.00    +0.023 A 
ATOM     35  C   UNL     1       0.036  -2.089   1.186  0.00  0.00    +0.033 A 
ATOM     36  C   UNL     1       0.023  -0.700   1.194  0.00  0.00    -0.027 A 
ATOM     37  C   UNL     1       0.025   0.046   2.504  0.00  0.00    +0.046 C 
ENDBRANCH  24  35
ENDBRANCH  23  27
ENDBRANCH  22  23
ENDBRANCH   1  22
TORSDOF 6
