REMARK  Name = ZINC59017020
REMARK  10 active torsions:
REMARK  status: ('A' for Active; 'I' for Inactive)
REMARK    1  A    between atoms: C_1  and  C_2
REMARK    2  A    between atoms: C_2  and  C_3
REMARK    3  A    between atoms: C_2  and  C_4
REMARK    4  A    between atoms: C_2  and  N_5
REMARK    5  A    between atoms: C_6  and  C_8
REMARK    6  A    between atoms: C_8  and  S_9
REMARK    7  A    between atoms: S_9  and  C_10
REMARK    8  A    between atoms: N_15  and  N_16
REMARK    9  A    between atoms: C_17  and  C_18
REMARK   10  A    between atoms: C_23  and  O_24
REMARK                            x       y       z     vdW  Elec       q    Type
REMARK                         _______ _______ _______ _____ _____    ______ ____
ROOT
ATOM      1  C   UNL     1       5.060  -0.637  -4.170  0.00  0.00    +0.211 A 
ATOM      2  N   UNL     1       6.310  -0.439  -4.604  0.00  0.00    -0.186 NA
ATOM      3  C   UNL     1       6.486  -1.063  -5.749  0.00  0.00    +0.232 A 
ATOM      4  N   UNL     1       5.329  -1.681  -6.069  0.00  0.00    -0.245 N 
ATOM      5  N   UNL     1       4.426  -1.395  -5.032  0.00  0.00    -0.144 NA
ATOM      6  N   UNL     1       7.651  -1.083  -6.493  0.00  0.00    -0.205 N 
ATOM      7  H   UNL     1       7.684  -1.574  -7.329  0.00  0.00    +0.177 HD
ATOM      8  H   UNL     1       5.157  -2.219  -6.857  0.00  0.00    +0.192 HD
ENDROOT
BRANCH   6   9
ATOM      9  N   UNL     1       8.784  -0.394  -6.040  0.00  0.00    -0.187 NA
ATOM     10  C   UNL     1       9.877  -0.412  -6.740  0.00  0.00    +0.142 C 
BRANCH  10  11
ATOM     11  C   UNL     1      11.069   0.313  -6.263  0.00  0.00    +0.038 A 
ATOM     12  C   UNL     1      12.246   0.301  -7.015  0.00  0.00    +0.028 A 
ATOM     13  C   UNL     1      13.358   0.982  -6.564  0.00  0.00    +0.020 A 
ATOM     14  C   UNL     1      13.312   1.677  -5.367  0.00  0.00    +0.034 A 
ATOM     15  C   UNL     1      12.152   1.697  -4.614  0.00  0.00    +0.061 A 
ATOM     16  C   UNL     1      11.025   1.023  -5.056  0.00  0.00    +0.139 A 
ATOM     17 BR   UNL     1      12.103   2.650  -2.981  0.00  0.00    -0.046 Br
ATOM     18 BR   UNL     1      14.951   0.964  -7.582  0.00  0.00    -0.050 Br
BRANCH  16  19
ATOM     19  O   UNL     1       9.883   1.047  -4.320  0.00  0.00    -0.505 OA
ATOM     20  H   UNL     1       9.818   0.332  -3.672  0.00  0.00    +0.292 HD
ENDBRANCH  16  19
ENDBRANCH  10  11
ENDBRANCH   6   9
BRANCH   1  21
ATOM     21  S   UNL     1       4.379   0.010  -2.680  0.00  0.00    -0.075 S 
BRANCH  21  22
ATOM     22  C   UNL     1       2.677  -0.618  -2.667  0.00  0.00    +0.173 C 
BRANCH  22  24
ATOM     23  N   UNL     1       0.688  -0.476  -1.203  0.00  0.00    -0.310 N 
ATOM     24  C   UNL     1       1.972  -0.132  -1.427  0.00  0.00    +0.224 C 
ATOM     25  O   UNL     1       2.559   0.569  -0.630  0.00  0.00    -0.275 OA
ATOM     26  H   UNL     1       0.218  -1.037  -1.840  0.00  0.00    +0.149 HD
BRANCH  23  28
ATOM     27  C   UNL     1      -0.019   1.526   0.010  0.00  0.00    +0.031 C 
ATOM     28  C   UNL     1       0.002  -0.004   0.002  0.00  0.00    +0.026 C 
ATOM     29  C   UNL     1       0.742  -0.511   1.242  0.00  0.00    +0.031 C 
ATOM     30  C   UNL     1      -1.433  -0.534   0.013  0.00  0.00    +0.031 C 
ENDBRANCH  23  28
ENDBRANCH  22  24
ENDBRANCH  21  22
ENDBRANCH   1  21
TORSDOF 7
