REMARK  Name = ZINC20396378
REMARK  6 active torsions:
REMARK  status: ('A' for Active; 'I' for Inactive)
REMARK    1  A    between atoms: C_3  and  N_19
REMARK    2  A    between atoms: C_6  and  C_7
REMARK    3  A    between atoms: C_7  and  S_8
REMARK    4  A    between atoms: S_8  and  C_9
REMARK    5  A    between atoms: C_12  and  C_15
REMARK    6  A    between atoms: N_13  and  N_14
REMARK                            x       y       z     vdW  Elec       q    Type
REMARK                         _______ _______ _______ _____ _____    ______ ____
ROOT
ATOM      1  C   UNL     1      -1.749   3.120   2.718  0.00  0.00    +0.209 A 
ATOM      2  N   UNL     1      -1.606   1.899   3.178  0.00  0.00    -0.121 NA
ATOM      3  N   UNL     1      -1.005   1.171   2.305  0.00  0.00    -0.123 NA
ATOM      4  C   UNL     1      -0.722   1.881   1.250  0.00  0.00    +0.255 A 
ATOM      5  N   UNL     1      -1.189   3.147   1.473  0.00  0.00    -0.220 N 
ENDROOT
BRANCH   4   6
ATOM      6  C   UNL     1      -0.017   1.395   0.010  0.00  0.00    +0.454 C 
ATOM      7  F   UNL     1       0.002  -0.004   0.002  0.00  0.00    -0.163 F 
ATOM      8  F   UNL     1       1.296   1.879  -0.000  0.00  0.00    -0.163 F 
ATOM      9  F   UNL     1      -0.694   1.858  -1.124  0.00  0.00    -0.163 F 
ENDBRANCH   4   6
BRANCH   5  10
ATOM     10  N   UNL     1      -1.111   4.216   0.626  0.00  0.00    -0.295 N 
ATOM     11  H   UNL     1      -0.631   4.105  -0.357  0.00  0.00    +0.163 HD
ATOM     12  H   UNL     1      -1.529   5.188   0.927  0.00  0.00    +0.163 HD
ENDBRANCH   5  10
BRANCH   1  13
ATOM     13  S   UNL     1      -2.517   4.470   3.550  0.00  0.00    -0.080 S 
BRANCH  13  14
ATOM     14  C   UNL     1      -2.989   3.658   5.098  0.00  0.00    +0.112 C 
BRANCH  14  20
ATOM     15  C   UNL     1      -2.947   5.404   6.890  0.00  0.00    +0.006 A 
ATOM     16  C   UNL     1      -3.579   6.318   7.709  0.00  0.00    +0.023 A 
ATOM     17  C   UNL     1      -4.958   6.472   7.641  0.00  0.00    +0.025 A 
ATOM     18  C   UNL     1      -5.696   5.709   6.744  0.00  0.00    +0.023 A 
ATOM     19  C   UNL     1      -5.056   4.801   5.924  0.00  0.00    +0.006 A 
ATOM     20  C   UNL     1      -3.683   4.650   5.994  0.00  0.00    -0.037 A 
BRANCH  17  21
ATOM     21  N   UNL     1      -5.602   7.392   8.472  0.00  0.00    -0.358 N 
ATOM     22  H   UNL     1      -6.694   7.513   8.417  0.00  0.00    +0.142 HD
ATOM     23  H   UNL     1      -5.017   7.996   9.181  0.00  0.00    +0.142 HD
ENDBRANCH  17  21
ENDBRANCH  14  20
ENDBRANCH  13  14
ENDBRANCH   1  13
TORSDOF 6
