REMARK  Name = ZINC12592685
REMARK  14 active torsions:
REMARK  status: ('A' for Active; 'I' for Inactive)
REMARK    1  A    between atoms: C_1  and  C_2
REMARK    2  A    between atoms: C_2  and  C_3
REMARK    3  A    between atoms: C_2  and  O_4
REMARK    4  A    between atoms: O_4  and  C_5
REMARK    5  A    between atoms: C_8  and  C_13
REMARK    6  A    between atoms: C_10  and  C_11
REMARK    7  A    between atoms: C_11  and  O_12
REMARK    8  A    between atoms: C_13  and  N_74
REMARK    9  A    between atoms: C_17  and  C_20
REMARK   10  A    between atoms: C_20  and  C_21
REMARK   11  A    between atoms: C_21  and  C_22
REMARK   12  A    between atoms: N_24  and  C_25
REMARK   13  A    between atoms: N_24  and  C_26
REMARK   14  A    between atoms: C_31  and  N_76
REMARK                            x       y       z     vdW  Elec       q    Type
REMARK                         _______ _______ _______ _____ _____    ______ ____
ROOT
ATOM      1  C   UNL     1       0.584  -0.411   4.737  0.00  0.00    -0.078 C 
ATOM      2  C   UNL     1       1.863  -0.527   5.570  0.00  0.00    -0.018 C 
ATOM      3  C   UNL     1       1.560  -1.302   6.856  0.00  0.00    -0.000 C 
ATOM      4  C   UNL     1       0.448  -0.584   7.626  0.00  0.00    -0.027 C 
ATOM      5  C   UNL     1      -0.789  -0.465   6.733  0.00  0.00    -0.075 C 
ATOM      6  N   UNL     1      -0.438   0.311   5.525  0.00  0.00    +0.383 N 
ATOM      7  H   UNL     1      -0.055   1.220   5.813  0.00  0.00    -0.081 HD
ENDROOT
BRANCH   6   8
ATOM      8  C   UNL     1      -1.643   0.537   4.702  0.00  0.00    -0.043 C 
BRANCH   8  12
ATOM      9  C   UNL     1      -0.673   3.292   1.581  0.00  0.00    +0.126 A 
ATOM     10  C   UNL     1      -1.131   3.760   2.805  0.00  0.00    +0.046 A 
ATOM     11  C   UNL     1      -1.442   2.868   3.812  0.00  0.00    +0.005 A 
ATOM     12  C   UNL     1      -1.303   1.508   3.601  0.00  0.00    -0.063 A 
ATOM     13  C   UNL     1      -0.853   1.039   2.381  0.00  0.00    +0.011 A 
ATOM     14  C   UNL     1      -0.540   1.927   1.370  0.00  0.00    +0.020 A 
BRANCH   9  15
ATOM     15  O   UNL     1      -0.361   4.168   0.591  0.00  0.00    -0.489 OA
BRANCH  15  17
ATOM     16  C   UNL     1       0.527   6.177   1.598  0.00  0.00    +0.051 C 
ATOM     17  C   UNL     1      -0.640   5.548   0.834  0.00  0.00    +0.167 C 
ATOM     18  C   UNL     1      -0.826   6.273  -0.501  0.00  0.00    +0.051 C 
ENDBRANCH  15  17
ENDBRANCH   9  15
BRANCH  14  19
ATOM     19  C   UNL     1      -0.048   1.415   0.041  0.00  0.00    +0.194 C 
BRANCH  19  20
ATOM     20  O   UNL     1       0.009  -0.013   0.073  0.00  0.00    -0.390 OA
ATOM     21  H   UNL     1      -0.843  -0.437   0.244  0.00  0.00    +0.210 HD
ENDBRANCH  19  20
ENDBRANCH  14  19
ENDBRANCH   8  12
ENDBRANCH   6   8
BRANCH   4  22
ATOM     22  C   UNL     1       0.097  -1.384   8.882  0.00  0.00    +0.011 C 
BRANCH  22  23
ATOM     23  C   UNL     1       1.298  -1.396   9.830  0.00  0.00    +0.096 C 
BRANCH  23  24
ATOM     24  C   UNL     1       0.952  -2.184  11.068  0.00  0.00    +0.216 C 
ATOM     25  O   UNL     1      -0.146  -2.686  11.180  0.00  0.00    -0.276 OA
ATOM     26  N   UNL     1       1.863  -2.330  12.050  0.00  0.00    -0.302 N 
ATOM     27  C   UNL     1       3.190  -1.723  11.914  0.00  0.00    +0.132 C 
BRANCH  26  28
ATOM     28  C   UNL     1       1.528  -3.096  13.253  0.00  0.00    +0.072 C 
ATOM     29  C   UNL     1       1.656  -2.196  14.485  0.00  0.00    +0.004 C 
ATOM     30  C   UNL     1       1.363  -3.017  15.743  0.00  0.00    -0.077 C 
ATOM     31  C   UNL     1       2.173  -5.039  14.681  0.00  0.00    -0.077 C 
ATOM     32  C   UNL     1       2.490  -4.279  13.392  0.00  0.00    +0.004 C 
ATOM     33  C   UNL     1       2.149  -4.864  17.096  0.00  0.00    -0.096 C 
ATOM     34  N   UNL     1       2.339  -4.124  15.831  0.00  0.00    +0.378 N 
ATOM     35  H   UNL     1       3.288  -3.734  15.812  0.00  0.00    -0.082 HD
ENDBRANCH  26  28
ENDBRANCH  23  24
ENDBRANCH  22  23
ENDBRANCH   4  22
TORSDOF 10
