REMARK  Name = ZINC50635356
REMARK  6 active torsions:
REMARK  status: ('A' for Active; 'I' for Inactive)
REMARK    1  A    between atoms: C_1  and  C_2
REMARK    2  A    between atoms: C_5  and  N_8
REMARK    3  A    between atoms: N_8  and  S_9
REMARK    4  A    between atoms: S_9  and  C_12
REMARK    5  A    between atoms: C_15  and  N_19
REMARK    6  A    between atoms: C_17  and  N_18
REMARK                            x       y       z     vdW  Elec       q    Type
REMARK                         _______ _______ _______ _____ _____    ______ ____
ROOT
ATOM      1  S   UNL     1       4.098  -2.913   0.678  0.00  0.00    +0.060 S 
ATOM      2  O   UNL     1       5.326  -2.198   0.680  0.00  0.00    -0.153 OA
ATOM      3  O   UNL     1       3.483  -3.373   1.873  0.00  0.00    -0.153 OA
ENDROOT
BRANCH   1   4
ATOM      4  C   UNL     1       4.343  -4.331  -0.340  0.00  0.00    +0.126 A 
ATOM      5  C   UNL     1       3.980  -5.582   0.118  0.00  0.00    +0.032 A 
ATOM      6  C   UNL     1       4.172  -6.695  -0.680  0.00  0.00    +0.035 A 
ATOM      7  C   UNL     1       4.727  -6.559  -1.939  0.00  0.00    +0.128 A 
ATOM      8  C   UNL     1       5.092  -5.311  -2.404  0.00  0.00    +0.057 A 
ATOM      9  C   UNL     1       4.896  -4.190  -1.606  0.00  0.00    +0.053 A 
BRANCH   9  10
ATOM     10  N   UNL     1       5.258  -2.925  -2.075  0.00  0.00    -0.356 N 
ATOM     11  H   UNL     1       5.049  -2.136  -1.552  0.00  0.00    +0.142 HD
ATOM     12  H   UNL     1       5.719  -2.837  -2.924  0.00  0.00    +0.142 HD
ENDBRANCH   9  10
BRANCH   7  13
ATOM     13  N   UNL     1       4.931  -7.753  -2.790  0.00  0.00    +0.056 N 
ATOM     14  O   UNL     1       4.612  -8.846  -2.384  0.00  0.00    -0.126 OA
ATOM     15  O   UNL     1       5.416  -7.635  -3.891  0.00  0.00    -0.126 OA
ENDBRANCH   7  13
ENDBRANCH   1   4
BRANCH   1  16
ATOM     16  N   UNL     1       2.989  -1.949  -0.084  0.00  0.00    -0.187 NA
ATOM     17  H   UNL     1       3.249  -1.070  -0.404  0.00  0.00    +0.148 HD
BRANCH  16  22
ATOM     18  C   UNL     1       0.237   1.674  -0.503  0.00  0.00    +0.007 C 
ATOM     19  C   UNL     1       0.219   0.144  -0.494  0.00  0.00    -0.014 C 
ATOM     20  C   UNL     1       1.102  -0.383  -1.627  0.00  0.00    +0.005 C 
ATOM     21  C   UNL     1       1.084  -1.913  -1.618  0.00  0.00    +0.020 C 
ATOM     22  C   UNL     1       1.616  -2.422  -0.276  0.00  0.00    +0.077 C 
ATOM     23  C   UNL     1       0.732  -1.894   0.856  0.00  0.00    +0.020 C 
ATOM     24  C   UNL     1       0.750  -0.364   0.847  0.00  0.00    +0.005 C 
ENDBRANCH  16  22
ENDBRANCH   1  16
TORSDOF 5
