REMARK  Name = ZINC07154641
REMARK  6 active torsions:
REMARK  status: ('A' for Active; 'I' for Inactive)
REMARK    1  A    between atoms: C_1  and  C_2
REMARK    2  A    between atoms: C_4  and  C_18
REMARK    3  A    between atoms: C_5  and  C_17
REMARK    4  A    between atoms: N_6  and  C_7
REMARK    5  A    between atoms: C_19  and  C_20
REMARK    6  A    between atoms: C_19  and  C_22
REMARK                            x       y       z     vdW  Elec       q    Type
REMARK                         _______ _______ _______ _____ _____    ______ ____
ROOT
ATOM      1  C   UNL     1      -1.543   6.140   2.618  0.00  0.00    +0.064 C 
ATOM      2  C   UNL     1      -2.022   6.337   1.203  0.00  0.00    +0.022 A 
ATOM      3  C   UNL     1      -3.095   7.058   0.838  0.00  0.00    +0.031 A 
ATOM      4  C   UNL     1      -3.181   6.965  -0.626  0.00  0.00    -0.003 A 
ATOM      5  C   UNL     1      -2.114   6.174  -1.020  0.00  0.00    +0.028 A 
ATOM      6  N   UNL     1      -1.432   5.812   0.086  0.00  0.00    -0.317 N 
ATOM      7  C   UNL     1      -1.774   5.786  -2.436  0.00  0.00    +0.064 C 
ENDROOT
BRANCH   6   8
ATOM      8  C   UNL     1      -0.287   5.009   0.090  0.00  0.00    +0.054 A 
ATOM      9  C   UNL     1       0.963   5.580  -0.010  0.00  0.00    +0.027 A 
ATOM     10  C   UNL     1       2.108   4.789  -0.006  0.00  0.00    +0.003 A 
ATOM     11  C   UNL     1       2.027   3.434   0.095  0.00  0.00    +0.008 A 
ATOM     12  C   UNL     1       0.771   2.812   0.200  0.00  0.00    -0.016 A 
ATOM     13  C   UNL     1      -0.402   3.607   0.197  0.00  0.00    +0.006 A 
ATOM     14  C   UNL     1      -1.656   2.984   0.301  0.00  0.00    +0.010 A 
ATOM     15  C   UNL     1      -1.730   1.628   0.397  0.00  0.00    +0.001 A 
ATOM     16  C   UNL     1      -0.576   0.847   0.405  0.00  0.00    +0.001 A 
ATOM     17  C   UNL     1       0.656   1.415   0.306  0.00  0.00    +0.008 A 
ENDBRANCH   6   8
BRANCH   4  18
ATOM     18  C   UNL     1      -4.157   7.562  -1.465  0.00  0.00    +0.033 C 
ATOM     19  C   UNL     1      -4.942   8.591  -0.985  0.00  0.00    +0.114 C 
BRANCH  19  20
ATOM     20  C   UNL     1      -6.052   9.109  -1.798  0.00  0.00    +0.252 C 
ATOM     21  O   UNL     1      -6.278   8.630  -2.894  0.00  0.00    -0.270 OA
ATOM     22  N   UNL     1      -6.819  10.113  -1.330  0.00  0.00    -0.325 N 
ATOM     23  H   UNL     1      -6.639  10.495  -0.457  0.00  0.00    +0.145 HD
ATOM     24  H   UNL     1      -7.551  10.455  -1.867  0.00  0.00    +0.145 HD
ENDBRANCH  19  20
BRANCH  19  25
ATOM     25  C   UNL     1      -4.677   9.154   0.304  0.00  0.00    +0.104 C 
ATOM     26  N   UNL     1      -4.466   9.600   1.327  0.00  0.00    -0.191 NA
ENDBRANCH  19  25
ENDBRANCH   4  18
TORSDOF 4
