REMARK  Name = ZINC12776273
REMARK  6 active torsions:
REMARK  status: ('A' for Active; 'I' for Inactive)
REMARK    1  A    between atoms: C_4  and  S_18
REMARK    2  A    between atoms: C_5  and  C_7
REMARK    3  A    between atoms: C_7  and  N_8
REMARK    4  A    between atoms: C_9  and  C_11
REMARK    5  A    between atoms: C_16  and  O_17
REMARK    6  A    between atoms: S_18  and  N_21
REMARK                            x       y       z     vdW  Elec       q    Type
REMARK                         _______ _______ _______ _____ _____    ______ ____
ROOT
ATOM      1  C   UNL     1      -1.518   7.336   1.608  0.00  0.00    +0.000 A 
ATOM      2  C   UNL     1      -1.118   8.011   0.469  0.00  0.00    +0.002 A 
ATOM      3  C   UNL     1      -1.242   7.410  -0.770  0.00  0.00    +0.029 A 
ATOM      4  C   UNL     1      -1.766   6.134  -0.870  0.00  0.00    +0.110 A 
ATOM      5  C   UNL     1      -2.166   5.460   0.269  0.00  0.00    -0.004 A 
ATOM      6  C   UNL     1      -2.047   6.063   1.507  0.00  0.00    +0.007 A 
ENDROOT
BRANCH   4   7
ATOM      7  S   UNL     1      -1.924   5.368  -2.449  0.00  0.00    +0.061 S 
ATOM      8  O   UNL     1      -1.288   4.101  -2.351  0.00  0.00    -0.153 OA
ATOM      9  O   UNL     1      -3.285   5.510  -2.834  0.00  0.00    -0.153 OA
BRANCH   7  10
ATOM     10  N   UNL     1      -1.033   6.264  -3.519  0.00  0.00    -0.172 NA
ATOM     11  C   UNL     1      -1.666   7.297  -4.354  0.00  0.00    +0.137 C 
ATOM     12  C   UNL     1      -0.857   8.596  -4.205  0.00  0.00    +0.177 C 
ATOM     13  O   UNL     1       0.521   8.322  -4.471  0.00  0.00    -0.377 OA
ATOM     14  C   UNL     1       1.122   7.402  -3.557  0.00  0.00    +0.177 C 
ATOM     15  C   UNL     1       0.415   6.046  -3.668  0.00  0.00    +0.137 C 
ENDBRANCH   7  10
ENDBRANCH   4   7
BRANCH   5  16
ATOM     16  C   UNL     1      -2.737   4.069   0.159  0.00  0.00    +0.141 C 
BRANCH  16  17
ATOM     17  N   UNL     1      -1.644   3.101   0.038  0.00  0.00    -0.307 N 
ATOM     18  C   UNL     1      -1.919   1.797  -0.167  0.00  0.00    +0.248 C 
ATOM     19  O   UNL     1      -3.068   1.438  -0.343  0.00  0.00    -0.270 OA
ATOM     20  H   UNL     1      -0.723   3.398   0.105  0.00  0.00    +0.149 HD
BRANCH  18  21
ATOM     21  C   UNL     1      -0.827   0.806  -0.178  0.00  0.00    +0.078 A 
ATOM     22  C   UNL     1       0.503   1.225  -0.086  0.00  0.00    +0.017 A 
ATOM     23  C   UNL     1       1.519   0.294  -0.103  0.00  0.00    +0.001 A 
ATOM     24  C   UNL     1       1.229  -1.056  -0.210  0.00  0.00    +0.004 A 
ATOM     25  C   UNL     1      -0.081  -1.484  -0.301  0.00  0.00    +0.046 A 
ATOM     26  C   UNL     1      -1.116  -0.561  -0.286  0.00  0.00    +0.129 A 
BRANCH  26  27
ATOM     27  O   UNL     1      -2.403  -0.979  -0.377  0.00  0.00    -0.506 OA
ATOM     28  H   UNL     1      -2.735  -1.040  -1.283  0.00  0.00    +0.292 HD
ENDBRANCH  26  27
ENDBRANCH  18  21
ENDBRANCH  16  17
ENDBRANCH   5  16
TORSDOF 6
