REMARK  Name = ZINC55477598
REMARK  6 active torsions:
REMARK  status: ('A' for Active; 'I' for Inactive)
REMARK    1  A    between atoms: C_1  and  C_2
REMARK    2  A    between atoms: C_3  and  C_13
REMARK    3  A    between atoms: C_4  and  C_12
REMARK    4  A    between atoms: C_13  and  C_14
REMARK    5  A    between atoms: N_16  and  C_17
REMARK    6  A    between atoms: N_26  and  C_28
REMARK                            x       y       z     vdW  Elec       q    Type
REMARK                         _______ _______ _______ _____ _____    ______ ____
ROOT
ATOM      1  C   UNL     1      -2.893   0.357   1.434  0.00  0.00    +0.218 C 
ATOM      2  O   UNL     1      -2.160   0.040   2.347  0.00  0.00    -0.275 OA
ATOM      3  N   UNL     1      -4.040   1.016   1.689  0.00  0.00    -0.312 N 
ATOM      4  H   UNL     1      -4.626   1.269   0.959  0.00  0.00    +0.149 HD
ENDROOT
BRANCH   3   5
ATOM      5  C   UNL     1      -4.401   1.349   3.066  0.00  0.00    +0.076 C 
ATOM      6  C   UNL     1      -3.769   2.682   3.474  0.00  0.00    -0.007 C 
ATOM      7  C   UNL     1      -4.065   2.951   4.945  0.00  0.00    +0.003 C 
ATOM      8  C   UNL     1      -5.552   2.932   5.259  0.00  0.00    +0.001 C 
ATOM      9  C   UNL     1      -6.279   1.739   4.658  0.00  0.00    +0.003 C 
ATOM     10  C   UNL     1      -5.918   1.505   3.195  0.00  0.00    -0.007 C 
ATOM     11  C   UNL     1      -6.410   2.638   2.307  0.00  0.00    -0.073 C 
ATOM     12  N   UNL     1      -5.738   3.907   2.565  0.00  0.00    +0.382 N 
ATOM     13  C   UNL     1      -4.283   3.804   2.584  0.00  0.00    -0.073 C 
ATOM     14  H   UNL     1      -6.071   4.311   3.426  0.00  0.00    -0.081 HD
BRANCH  12  15
ATOM     15  C   UNL     1      -6.113   4.845   1.498  0.00  0.00    -0.069 C 
ATOM     16  C   UNL     1      -6.642   6.218   1.917  0.00  0.00    -0.017 C 
ATOM     17  C   UNL     1      -7.598   5.174   1.336  0.00  0.00    -0.017 C 
ENDBRANCH  12  15
ENDBRANCH   3   5
BRANCH   1  18
ATOM     18  C   UNL     1      -2.520   0.013   0.015  0.00  0.00    +0.134 C 
BRANCH  18  21
ATOM     19  C   UNL     1      -0.018   1.503   0.010  0.00  0.00    +0.066 C 
ATOM     20  C   UNL     1       0.002  -0.004   0.002  0.00  0.00    +0.047 A 
ATOM     21  C   UNL     1      -1.202  -0.717   0.004  0.00  0.00    +0.004 A 
ATOM     22  C   UNL     1      -1.169  -2.075  -0.004  0.00  0.00    +0.049 A 
ATOM     23  N   UNL     1       0.035  -2.706  -0.013  0.00  0.00    -0.199 N 
ATOM     24  C   UNL     1       1.192  -1.980  -0.014  0.00  0.00    +0.255 A 
ATOM     25  N   UNL     1       1.151  -0.643  -0.012  0.00  0.00    -0.216 NA
ATOM     26  N   UNL     1       2.202  -2.844  -0.023  0.00  0.00    -0.176 NA
ATOM     27  C   UNL     1       1.728  -4.088  -0.027  0.00  0.00    +0.234 A 
ATOM     28  N   UNL     1       0.411  -4.055  -0.021  0.00  0.00    -0.128 NA
ATOM     29  N   UNL     1       2.504  -5.244  -0.036  0.00  0.00    -0.326 N 
ATOM     30  C   UNL     1      -2.449  -2.871  -0.001  0.00  0.00    +0.066 C 
ATOM     31  H   UNL     1       3.471  -5.179  -0.040  0.00  0.00    +0.145 HD
ATOM     32  H   UNL     1       2.076  -6.115  -0.039  0.00  0.00    +0.145 HD
ENDBRANCH  18  21
ENDBRANCH   1  18
TORSDOF 4
