REMARK  Name = ZINC20466283
REMARK  10 active torsions:
REMARK  status: ('A' for Active; 'I' for Inactive)
REMARK    1  A    between atoms: C_1  and  C_2
REMARK    2  A    between atoms: C_4  and  N_31
REMARK    3  A    between atoms: C_8  and  C_30
REMARK    4  A    between atoms: C_11  and  O_29
REMARK    5  A    between atoms: C_13  and  C_17
REMARK    6  A    between atoms: C_17  and  C_19
REMARK    7  A    between atoms: C_17  and  C_20
REMARK    8  A    between atoms: N_22  and  C_23
REMARK    9  A    between atoms: C_23  and  C_24
REMARK   10  A    between atoms: C_32  and  C_34
REMARK                            x       y       z     vdW  Elec       q    Type
REMARK                         _______ _______ _______ _____ _____    ______ ____
ROOT
ATOM      1  C   UNL     1       3.670   2.871   1.038  0.00  0.00    +0.010 C 
ATOM      2  C   UNL     1       3.064   3.355   2.357  0.00  0.00    +0.012 C 
ATOM      3  C   UNL     1       3.402   2.360   3.470  0.00  0.00    +0.076 C 
ATOM      4  C   UNL     1       2.796   2.845   4.788  0.00  0.00    +0.023 C 
ATOM      5  C   UNL     1       1.277   2.950   4.643  0.00  0.00    +0.009 C 
ATOM      6  C   UNL     1       0.939   3.945   3.531  0.00  0.00    -0.027 C 
ATOM      7  C   UNL     1       1.544   3.461   2.212  0.00  0.00    +0.028 C 
ATOM      8  C   UNL     1       1.206   4.455   1.100  0.00  0.00    +0.122 C 
ATOM      9  C   UNL     1      -0.313   4.561   0.955  0.00  0.00    +0.029 C 
ATOM     10  C   UNL     1      -0.919   5.045   2.273  0.00  0.00    +0.007 C 
ATOM     11  C   UNL     1      -0.581   4.051   3.386  0.00  0.00    +0.007 C 
ATOM     12  C   UNL     1       1.514   5.318   3.883  0.00  0.00    +0.011 C 
ENDROOT
BRANCH   3  13
ATOM     13  N   UNL     1       4.857   2.259   3.608  0.00  0.00    -0.308 N 
ATOM     14  C   UNL     1       5.409   1.142   4.123  0.00  0.00    +0.244 C 
ATOM     15  O   UNL     1       4.699   0.219   4.471  0.00  0.00    -0.270 OA
ATOM     16  H   UNL     1       5.499   3.095   3.293  0.00  0.00    +0.149 HD
BRANCH  14  17
ATOM     17  C   UNL     1       6.877   1.040   4.263  0.00  0.00    +0.037 A 
ATOM     18  C   UNL     1       7.695   2.096   3.859  0.00  0.00    +0.013 A 
ATOM     19  C   UNL     1       9.064   1.997   3.997  0.00  0.00    +0.001 A 
ATOM     20  C   UNL     1       9.627   0.849   4.526  0.00  0.00    +0.000 A 
ATOM     21  C   UNL     1       8.822  -0.204   4.923  0.00  0.00    +0.001 A 
ATOM     22  C   UNL     1       7.451  -0.115   4.795  0.00  0.00    +0.013 A 
ENDBRANCH  14  17
ENDBRANCH   3  13
BRANCH   9  23
ATOM     23  C   UNL     1      -0.888   3.188   0.603  0.00  0.00    +0.077 C 
ATOM     24  C   UNL     1      -0.226   2.670  -0.675  0.00  0.00    +0.017 C 
BRANCH  23  25
ATOM     25  C   UNL     1      -2.375   3.307   0.386  0.00  0.00    +0.217 C 
ATOM     26  O   UNL     1      -2.921   4.384   0.501  0.00  0.00    -0.276 OA
ATOM     27  N   UNL     1      -3.098   2.216   0.064  0.00  0.00    -0.308 N 
ATOM     28  H   UNL     1      -2.604   1.239  -0.041  0.00  0.00    +0.149 HD
BRANCH  27  29
ATOM     29  C   UNL     1      -4.543   2.332  -0.147  0.00  0.00    +0.178 C 
BRANCH  29  30
ATOM     30  C   UNL     1      -5.110   0.979  -0.494  0.00  0.00    +0.122 A 
ATOM     31  C   UNL     1      -5.577   0.073   0.384  0.00  0.00    +0.046 A 
ATOM     32  C   UNL     1      -6.008  -1.043  -0.369  0.00  0.00    +0.041 A 
ATOM     33  C   UNL     1      -5.779  -0.753  -1.662  0.00  0.00    +0.195 A 
ATOM     34  O   UNL     1      -5.241   0.476  -1.732  0.00  0.00    -0.466 OA
ENDBRANCH  29  30
ENDBRANCH  27  29
ENDBRANCH  23  25
ENDBRANCH   9  23
BRANCH   8  35
ATOM     35  O   UNL     1       1.772   4.003  -0.132  0.00  0.00    -0.391 OA
ATOM     36  H   UNL     1       1.633   4.593  -1.050  0.00  0.00    +0.210 HD
ENDBRANCH   8  35
TORSDOF 7
