REMARK  Name = ZINC40152816
REMARK  9 active torsions:
REMARK  status: ('A' for Active; 'I' for Inactive)
REMARK    1  A    between atoms: C_1  and  C_2
REMARK    2  A    between atoms: C_2  and  C_3
REMARK    3  A    between atoms: C_3  and  C_4
REMARK    4  A    between atoms: C_3  and  C_5
REMARK    5  A    between atoms: C_3  and  N_20
REMARK    6  A    between atoms: C_5  and  N_6
REMARK    7  A    between atoms: C_7  and  C_9
REMARK    8  A    between atoms: C_13  and  N_16
REMARK    9  A    between atoms: C_14  and  N_15
REMARK                            x       y       z     vdW  Elec       q    Type
REMARK                         _______ _______ _______ _____ _____    ______ ____
ROOT
ATOM      1  N   UNL     1       1.010  -0.226  -3.749  0.00  0.00    -0.310 N 
ATOM      2  C   UNL     1       0.361   0.171  -4.861  0.00  0.00    +0.246 C 
ATOM      3  O   UNL     1      -0.428   1.094  -4.807  0.00  0.00    -0.270 OA
ATOM      4  H   UNL     1       1.640  -0.963  -3.792  0.00  0.00    +0.149 HD
ENDROOT
BRANCH   2   5
ATOM      5  C   UNL     1       0.607  -0.514  -6.143  0.00  0.00    +0.062 A 
ATOM      6  C   UNL     1       1.447  -1.631  -6.193  0.00  0.00    +0.053 A 
ATOM      7  C   UNL     1       1.673  -2.267  -7.396  0.00  0.00    +0.126 A 
ATOM      8  C   UNL     1       1.071  -1.804  -8.557  0.00  0.00    +0.073 A 
ATOM      9  C   UNL     1       0.241  -0.703  -8.522  0.00  0.00    +0.150 A 
ATOM     10  C   UNL     1      -0.004  -0.053  -7.319  0.00  0.00    +0.068 A 
ATOM     11  F   UNL     1       2.485  -3.346  -7.443  0.00  0.00    -0.205 F 
BRANCH  10  12
ATOM     12  N   UNL     1      -0.846   1.052  -7.281  0.00  0.00    -0.356 N 
ATOM     13  H   UNL     1      -0.866   1.672  -8.026  0.00  0.00    +0.142 HD
ATOM     14  H   UNL     1      -1.413   1.204  -6.508  0.00  0.00    +0.142 HD
ENDBRANCH  10  12
BRANCH   9  15
ATOM     15  N   UNL     1      -0.395  -0.217  -9.767  0.00  0.00    +0.058 N 
ATOM     16  O   UNL     1      -0.237  -0.821 -10.802  0.00  0.00    -0.126 OA
ATOM     17  O   UNL     1      -1.072   0.785  -9.749  0.00  0.00    -0.126 OA
ENDBRANCH   9  15
ENDBRANCH   2   5
BRANCH   1  18
ATOM     18  C   UNL     1       0.765   0.455  -2.475  0.00  0.00    +0.126 C 
BRANCH  18  19
ATOM     19  C   UNL     1       1.747  -0.064  -1.422  0.00  0.00    +0.034 C 
ATOM     20  C   UNL     1       1.702  -1.593  -1.393  0.00  0.00    +0.029 C 
BRANCH  19  21
ATOM     21  N   UNL     1       3.106   0.380  -1.759  0.00  0.00    -0.291 NA
ATOM     22  C   UNL     1       3.522  -0.144  -3.068  0.00  0.00    +0.113 C 
ATOM     23  C   UNL     1       4.916   0.390  -3.406  0.00  0.00    +0.175 C 
ATOM     24  O   UNL     1       5.826   0.026  -2.364  0.00  0.00    -0.377 OA
ATOM     25  C   UNL     1       5.452   0.521  -1.075  0.00  0.00    +0.175 C 
ATOM     26  C   UNL     1       4.062  -0.012  -0.714  0.00  0.00    +0.113 C 
ENDBRANCH  19  21
BRANCH  19  28
ATOM     27  C   UNL     1       1.517   2.005  -0.042  0.00  0.00    +0.006 C 
ATOM     28  C   UNL     1       1.357   0.484  -0.048  0.00  0.00    +0.020 C 
ENDBRANCH  19  28
ENDBRANCH  18  19
ENDBRANCH   1  18
TORSDOF 7
