REMARK  Name = ZINC64423635
REMARK  3 active torsions:
REMARK  status: ('A' for Active; 'I' for Inactive)
REMARK    1  A    between atoms: C_4  and  C_7
REMARK    2  A    between atoms: C_10  and  C_13
REMARK    3  A    between atoms: C_17  and  C_19
REMARK                            x       y       z     vdW  Elec       q    Type
REMARK                         _______ _______ _______ _____ _____    ______ ____
ROOT
ATOM      1  C   UNL     1       5.646  -3.128  -1.330  0.00  0.00    +0.086 C 
ATOM      2  C   UNL     1       5.367  -4.639  -1.242  0.00  0.00    +0.118 C 
ATOM      3  N   UNL     1       6.675  -4.817  -1.903  0.00  0.00    -0.299 N 
ATOM      4  C   UNL     1       7.136  -3.508  -1.401  0.00  0.00    +0.118 C 
ATOM      5  C   UNL     1       7.226  -5.786  -2.660  0.00  0.00    +0.242 C 
ATOM      6  O   UNL     1       6.592  -6.786  -2.921  0.00  0.00    -0.273 OA
ENDROOT
BRANCH   5   7
ATOM      7  C   UNL     1       8.630  -5.626  -3.183  0.00  0.00    +0.190 C 
ATOM      8  C   UNL     1       9.608  -5.540  -2.032  0.00  0.00    +0.016 C 
ATOM      9  C   UNL     1      10.449  -6.590  -2.176  0.00  0.00    -0.004 A 
ATOM     10  C   UNL     1      11.601  -7.055  -1.394  0.00  0.00    +0.010 A 
ATOM     11  C   UNL     1      12.261  -8.165  -1.796  0.00  0.00    +0.001 A 
ATOM     12  C   UNL     1      11.875  -8.880  -2.938  0.00  0.00    +0.002 A 
ATOM     13  C   UNL     1      10.828  -8.514  -3.707  0.00  0.00    +0.026 A 
ATOM     14  C   UNL     1      10.061  -7.362  -3.378  0.00  0.00    +0.043 A 
ATOM     15  N   UNL     1       9.020  -6.811  -3.956  0.00  0.00    -0.370 N 
ATOM     16  H   UNL     1       8.581  -7.132  -4.759  0.00  0.00    +0.161 HD
ENDBRANCH   5   7
BRANCH   1  20
ATOM     17  C   UNL     1       3.697  -0.686  -0.037  0.00  0.00    +0.168 C 
ATOM     18  N   UNL     1       4.853  -0.109  -0.040  0.00  0.00    -0.067 NA
ATOM     19  O   UNL     1       5.896  -1.066  -0.057  0.00  0.00    -0.369 OA
ATOM     20  C   UNL     1       5.266  -2.356  -0.065  0.00  0.00    +0.298 C 
ATOM     21  N   UNL     1       3.825  -2.063  -0.046  0.00  0.00    -0.289 N 
ATOM     22  H   UNL     1       3.103  -2.711  -0.043  0.00  0.00    +0.151 HD
BRANCH  17  26
ATOM     23  C   UNL     1      -0.017   1.379   0.010  0.00  0.00    +0.000 A 
ATOM     24  C   UNL     1       1.169   2.093   0.002  0.00  0.00    +0.001 A 
ATOM     25  C   UNL     1       2.377   1.428  -0.013  0.00  0.00    +0.011 A 
ATOM     26  C   UNL     1       2.403   0.033  -0.021  0.00  0.00    +0.018 A 
ATOM     27  C   UNL     1       1.205  -0.680  -0.013  0.00  0.00    +0.011 A 
ATOM     28  C   UNL     1       0.002  -0.004   0.002  0.00  0.00    +0.001 A 
ENDBRANCH  17  26
ENDBRANCH   1  20
TORSDOF 3
