REMARK  Name = ZINC17398714
REMARK  12 active torsions:
REMARK  status: ('A' for Active; 'I' for Inactive)
REMARK    1  A    between atoms: C_1  and  C_2
REMARK    2  A    between atoms: C_4  and  C_14
REMARK    3  A    between atoms: C_6  and  S_9
REMARK    4  A    between atoms: C_7  and  C_8
REMARK    5  A    between atoms: S_9  and  N_12
REMARK    6  A    between atoms: N_12  and  C_13
REMARK    7  A    between atoms: N_16  and  N_17
REMARK    8  A    between atoms: C_18  and  O_20
REMARK    9  A    between atoms: O_20  and  C_21
REMARK   10  A    between atoms: C_21  and  C_22
REMARK   11  A    between atoms: C_21  and  C_23
REMARK   12  A    between atoms: C_21  and  C_24
REMARK                            x       y       z     vdW  Elec       q    Type
REMARK                         _______ _______ _______ _____ _____    ______ ____
ROOT
ATOM      1  C   UNL     1      -0.095   1.391  -0.257  0.00  0.00    +0.044 C 
ATOM      2  C   UNL     1      -0.135  -0.115  -0.191  0.00  0.00    -0.045 A 
ATOM      3  C   UNL     1      -0.254  -0.852  -1.351  0.00  0.00    +0.016 A 
ATOM      4  C   UNL     1      -0.290  -2.245  -1.288  0.00  0.00    +0.040 A 
ATOM      5  C   UNL     1      -0.205  -2.884  -0.049  0.00  0.00    +0.042 A 
ATOM      6  C   UNL     1      -0.086  -2.135   1.103  0.00  0.00    +0.109 A 
ATOM      7  C   UNL     1      -0.045  -0.754   1.033  0.00  0.00    -0.021 A 
ATOM      8  C   UNL     1       0.091   0.058   2.295  0.00  0.00    +0.046 C 
ENDROOT
BRANCH   4   9
ATOM      9  C   UNL     1      -0.419  -3.042  -2.527  0.00  0.00    +0.260 C 
ATOM     10  O   UNL     1      -0.450  -4.256  -2.469  0.00  0.00    -0.269 OA
ATOM     11  N   UNL     1      -0.501  -2.422  -3.721  0.00  0.00    -0.228 N 
ATOM     12  H   UNL     1      -0.476  -1.454  -3.767  0.00  0.00    +0.173 HD
BRANCH  11  13
ATOM     13  N   UNL     1      -0.623  -3.177  -4.895  0.00  0.00    -0.199 N 
ATOM     14  C   UNL     1      -0.705  -2.557  -6.089  0.00  0.00    +0.417 C 
ATOM     15  O   UNL     1      -0.811  -3.211  -7.107  0.00  0.00    -0.225 OA
ATOM     16  H   UNL     1      -0.648  -4.145  -4.848  0.00  0.00    +0.176 HD
BRANCH  14  17
ATOM     17  O   UNL     1      -0.671  -1.212  -6.153  0.00  0.00    -0.444 OA
BRANCH  17  18
ATOM     18  C   UNL     1      -0.763  -0.623  -7.451  0.00  0.00    +0.107 C 
ATOM     19  C   UNL     1      -2.085  -1.032  -8.105  0.00  0.00    +0.055 C 
ATOM     20  C   UNL     1      -0.707   0.901  -7.324  0.00  0.00    +0.055 C 
ATOM     21  C   UNL     1       0.404  -1.106  -8.315  0.00  0.00    +0.055 C 
ENDBRANCH  17  18
ENDBRANCH  14  17
ENDBRANCH  11  13
ENDBRANCH   4   9
BRANCH   6  22
ATOM     22  S   UNL     1       0.022  -2.940   2.667  0.00  0.00    +0.058 S 
ATOM     23  O   UNL     1      -0.116  -4.332   2.418  0.00  0.00    -0.153 OA
ATOM     24  O   UNL     1       1.155  -2.392   3.328  0.00  0.00    -0.153 OA
BRANCH  22  25
ATOM     25  N   UNL     1      -1.305  -2.482   3.545  0.00  0.00    -0.193 NA
ATOM     26  C   UNL     1      -2.646  -2.880   3.108  0.00  0.00    +0.127 C 
ATOM     27  H   UNL     1      -1.195  -1.951   4.349  0.00  0.00    +0.148 HD
ENDBRANCH  22  25
ENDBRANCH   6  22
TORSDOF 6
