REMARK  Name = ZINC38596018
REMARK  13 active torsions:
REMARK  status: ('A' for Active; 'I' for Inactive)
REMARK    1  A    between atoms: C_1  and  C_2
REMARK    2  A    between atoms: C_2  and  C_4
REMARK    3  A    between atoms: C_2  and  N_24
REMARK    4  A    between atoms: C_4  and  C_6
REMARK    5  A    between atoms: C_4  and  N_11
REMARK    6  A    between atoms: N_14  and  C_17
REMARK    7  A    between atoms: C_17  and  C_18
REMARK    8  A    between atoms: C_25  and  C_27
REMARK    9  A    between atoms: C_29  and  O_38
REMARK   10  A    between atoms: C_30  and  O_36
REMARK   11  A    between atoms: C_32  and  N_33
REMARK   12  A    between atoms: O_36  and  C_37
REMARK   13  A    between atoms: O_38  and  C_39
REMARK                            x       y       z     vdW  Elec       q    Type
REMARK                         _______ _______ _______ _____ _____    ______ ____
ROOT
ATOM      1  C   UNL     1       0.633   0.693  -0.473  0.00  0.00    +0.113 C 
ENDROOT
BRANCH   1   2
ATOM      2  N   UNL     1       1.901   1.408  -0.281  0.00  0.00    -0.297 NA
ATOM      3  C   UNL     1       2.670   0.828   0.830  0.00  0.00    +0.066 C 
ATOM      4  C   UNL     1       3.953   1.636   1.036  0.00  0.00    -0.063 C 
ATOM      5  N   UNL     1       4.749   1.614  -0.198  0.00  0.00    +0.384 N 
ATOM      6  C   UNL     1       3.978   2.219  -1.292  0.00  0.00    -0.063 C 
ATOM      7  C   UNL     1       2.695   1.415  -1.517  0.00  0.00    +0.066 C 
ATOM      8  H   UNL     1       4.976   0.659  -0.435  0.00  0.00    -0.081 HD
BRANCH   5   9
ATOM      9  C   UNL     1       5.989   2.375   0.006  0.00  0.00    -0.043 C 
BRANCH   9  10
ATOM     10  C   UNL     1       6.862   2.250  -1.217  0.00  0.00    -0.064 A 
ATOM     11  C   UNL     1       7.777   1.218  -1.310  0.00  0.00    +0.002 A 
ATOM     12  C   UNL     1       8.578   1.104  -2.431  0.00  0.00    +0.000 A 
ATOM     13  C   UNL     1       8.463   2.021  -3.459  0.00  0.00    +0.000 A 
ATOM     14  C   UNL     1       7.547   3.052  -3.366  0.00  0.00    +0.000 A 
ATOM     15  C   UNL     1       6.743   3.164  -2.247  0.00  0.00    +0.002 A 
ENDBRANCH   9  10
ENDBRANCH   5   9
ENDBRANCH   1   2
BRANCH   1  16
ATOM     16  C   UNL     1      -0.166   1.370  -1.557  0.00  0.00    +0.009 A 
ATOM     17  C   UNL     1      -0.917   0.814  -2.538  0.00  0.00    +0.013 A 
ATOM     18  C   UNL     1      -1.571   1.640  -3.432  0.00  0.00    +0.008 A 
ATOM     19  C   UNL     1      -1.443   2.983  -3.301  0.00  0.00    +0.045 A 
ATOM     20  S   UNL     1      -0.376   3.114  -1.875  0.00  0.00    -0.100 S 
ENDBRANCH   1  16
BRANCH   1  22
ATOM     21  C   UNL     1      -0.344   2.151   1.305  0.00  0.00    +0.030 C 
ATOM     22  C   UNL     1      -0.164   0.706   0.833  0.00  0.00    +0.092 C 
BRANCH  22  23
ATOM     23  N   UNL     1      -1.478   0.099   0.609  0.00  0.00    -0.307 N 
ATOM     24  C   UNL     1      -2.147  -0.458   1.639  0.00  0.00    +0.247 C 
ATOM     25  O   UNL     1      -1.659  -0.455   2.753  0.00  0.00    -0.270 OA
ATOM     26  H   UNL     1      -1.867   0.097  -0.279  0.00  0.00    +0.149 HD
BRANCH  24  27
ATOM     27  C   UNL     1      -3.471  -1.070   1.414  0.00  0.00    +0.071 A 
ATOM     28  C   UNL     1      -4.495  -0.326   0.822  0.00  0.00    +0.064 A 
ATOM     29  C   UNL     1      -5.732  -0.904   0.613  0.00  0.00    +0.162 A 
ATOM     30  C   UNL     1      -5.957  -2.226   0.993  0.00  0.00    +0.164 A 
ATOM     31  C   UNL     1      -4.939  -2.965   1.580  0.00  0.00    +0.082 A 
ATOM     32  C   UNL     1      -3.701  -2.396   1.787  0.00  0.00    +0.142 A 
BRANCH  32  33
ATOM     33  N   UNL     1      -2.616  -3.189   2.408  0.00  0.00    +0.057 N 
ATOM     34  O   UNL     1      -2.848  -4.293   2.843  0.00  0.00    -0.126 OA
ATOM     35  O   UNL     1      -1.499  -2.733   2.481  0.00  0.00    -0.126 OA
ENDBRANCH  32  33
BRANCH  30  36
ATOM     36  O   UNL     1      -7.174  -2.793   0.787  0.00  0.00    -0.491 OA
ATOM     37  C   UNL     1      -7.335  -4.152   1.200  0.00  0.00    +0.277 C 
ENDBRANCH  30  36
BRANCH  29  38
ATOM     38  O   UNL     1      -6.731  -0.182   0.038  0.00  0.00    -0.491 OA
ATOM     39  C   UNL     1      -6.431   1.167  -0.325  0.00  0.00    +0.277 C 
ENDBRANCH  29  38
ENDBRANCH  24  27
ENDBRANCH  22  23
ENDBRANCH   1  22
TORSDOF 10
