REMARK  Name = ZINC65553815
REMARK  3 active torsions:
REMARK  status: ('A' for Active; 'I' for Inactive)
REMARK    1  A    between atoms: C_8  and  N_10
REMARK    2  A    between atoms: N_10  and  C_11
REMARK    3  A    between atoms: C_14  and  C_16
REMARK                            x       y       z     vdW  Elec       q    Type
REMARK                         _______ _______ _______ _____ _____    ______ ____
ROOT
ATOM      1  N   UNL     1       4.175  -2.730   0.200  0.00  0.00    -0.294 N 
ATOM      2  C   UNL     1       4.120  -3.119   1.489  0.00  0.00    +0.224 C 
ATOM      3  O   UNL     1       3.137  -2.875   2.155  0.00  0.00    -0.275 OA
ENDROOT
BRANCH   2   4
ATOM      4  C   UNL     1       5.281  -3.859   2.102  0.00  0.00    +0.116 C 
ATOM      5  C   UNL     1       4.966  -5.355   2.146  0.00  0.00    +0.113 C 
ATOM      6  C   UNL     1       3.913  -5.626   3.187  0.00  0.00    +0.218 C 
ATOM      7  O   UNL     1       3.090  -6.496   2.994  0.00  0.00    -0.275 OA
ATOM      8  N   UNL     1       3.875  -4.916   4.329  0.00  0.00    -0.285 N 
ATOM      9  C   UNL     1       4.805  -3.899   4.562  0.00  0.00    +0.037 A 
ATOM     10  C   UNL     1       5.516  -3.353   3.501  0.00  0.00    -0.014 A 
ATOM     11  C   UNL     1       6.436  -2.349   3.731  0.00  0.00    +0.006 A 
ATOM     12  C   UNL     1       6.649  -1.887   5.017  0.00  0.00    +0.000 A 
ATOM     13  C   UNL     1       5.943  -2.429   6.076  0.00  0.00    +0.002 A 
ATOM     14  C   UNL     1       5.021  -3.432   5.852  0.00  0.00    +0.023 A 
ATOM     15  H   UNL     1       3.197  -5.111   4.995  0.00  0.00    +0.155 HD
ENDBRANCH   2   4
BRANCH   1  23
ATOM     16  C   UNL     1      -1.326  -0.288   0.217  0.00  0.00    +0.000 A 
ATOM     17  C   UNL     1      -0.653   0.834   0.661  0.00  0.00    +0.000 A 
ATOM     18  C   UNL     1       0.723   0.809   0.787  0.00  0.00    +0.004 A 
ATOM     19  C   UNL     1       1.430  -0.339   0.468  0.00  0.00    -0.042 A 
ATOM     20  C   UNL     1       0.757  -1.461   0.024  0.00  0.00    -0.042 A 
ATOM     21  C   UNL     1      -0.622  -1.433  -0.101  0.00  0.00    +0.004 A 
ATOM     22  C   UNL     1       1.745  -2.573  -0.256  0.00  0.00    +0.058 C 
ATOM     23  C   UNL     1       3.119  -1.877  -0.353  0.00  0.00    +0.085 C 
ATOM     24  C   UNL     1       2.917  -0.620   0.518  0.00  0.00    +0.058 C 
ENDBRANCH   1  23
BRANCH   1  25
ATOM     25  C   UNL     1       5.290  -3.158  -0.649  0.00  0.00    +0.076 C 
ATOM     26  C   UNL     1       6.037  -4.431  -0.244  0.00  0.00    +0.024 C 
ATOM     27  C   UNL     1       6.700  -3.064  -0.063  0.00  0.00    +0.024 C 
ENDBRANCH   1  25
TORSDOF 3
