REMARK  Name = ZINC04989146
REMARK  7 active torsions:
REMARK  status: ('A' for Active; 'I' for Inactive)
REMARK    1  A    between atoms: C_1  and  C_2
REMARK    2  A    between atoms: C_14  and  C_15
REMARK    3  A    between atoms: C_15  and  O_17
REMARK    4  A    between atoms: O_17  and  C_18
REMARK    5  A    between atoms: C_18  and  C_20
REMARK    6  A    between atoms: C_18  and  C_21
REMARK    7  A    between atoms: N_23  and  C_24
REMARK                            x       y       z     vdW  Elec       q    Type
REMARK                         _______ _______ _______ _____ _____    ______ ____
ROOT
ATOM      1  C   UNL     1       6.190   2.296   2.074  0.00  0.00    +0.048 C 
ATOM      2  C   UNL     1       5.851   0.967   1.449  0.00  0.00    +0.010 A 
ATOM      3  C   UNL     1       6.696  -0.168   1.368  0.00  0.00    +0.025 A 
ATOM      4  C   UNL     1       8.014  -0.423   1.799  0.00  0.00    +0.012 A 
ATOM      5  C   UNL     1       8.591  -1.629   1.586  0.00  0.00    +0.009 A 
ATOM      6  C   UNL     1       7.880  -2.653   0.925  0.00  0.00    -0.014 A 
ATOM      7  C   UNL     1       8.469  -3.907   0.699  0.00  0.00    +0.008 A 
ATOM      8  C   UNL     1       7.761  -4.881   0.060  0.00  0.00    +0.001 A 
ATOM      9  C   UNL     1       6.459  -4.651  -0.374  0.00  0.00    +0.001 A 
ATOM     10  C   UNL     1       5.857  -3.445  -0.171  0.00  0.00    +0.012 A 
ATOM     11  C   UNL     1       6.556  -2.420   0.483  0.00  0.00    +0.025 A 
ATOM     12  C   UNL     1       5.960  -1.160   0.710  0.00  0.00    +0.144 A 
ATOM     13  O   UNL     1       4.750  -0.649   0.421  0.00  0.00    -0.447 OA
ATOM     14  C   UNL     1       4.676   0.627   0.856  0.00  0.00    +0.216 A 
ENDROOT
BRANCH  14  15
ATOM     15  C   UNL     1       3.510   1.506   0.715  0.00  0.00    +0.376 C 
ATOM     16  O   UNL     1       3.549   2.642   1.148  0.00  0.00    -0.241 OA
BRANCH  15  17
ATOM     17  O   UNL     1       2.395   1.055   0.104  0.00  0.00    -0.447 OA
BRANCH  17  18
ATOM     18  C   UNL     1       1.280   1.980   0.001  0.00  0.00    +0.259 C 
ATOM     19  C   UNL     1       1.394   2.772  -1.304  0.00  0.00    +0.062 C 
BRANCH  18  20
ATOM     20  C   UNL     1      -0.014   1.209   0.009  0.00  0.00    +0.254 C 
ATOM     21  O   UNL     1       0.002  -0.004   0.002  0.00  0.00    -0.272 OA
ATOM     22  N   UNL     1      -1.191   1.867   0.018  0.00  0.00    -0.309 N 
ATOM     23  H   UNL     1      -1.204   2.837   0.023  0.00  0.00    +0.149 HD
BRANCH  22  24
ATOM     24  C   UNL     1      -2.449   1.117   0.020  0.00  0.00    +0.073 C 
ATOM     25  C   UNL     1      -2.882   0.807  -1.428  0.00  0.00    +0.022 C 
ATOM     26  C   UNL     1      -4.425   0.944  -1.401  0.00  0.00    +0.002 C 
ATOM     27  C   UNL     1      -4.644   2.148  -0.452  0.00  0.00    +0.002 C 
ATOM     28  C   UNL     1      -3.570   1.970   0.641  0.00  0.00    +0.022 C 
ENDBRANCH  22  24
ENDBRANCH  18  20
ENDBRANCH  17  18
ENDBRANCH  15  17
ENDBRANCH  14  15
TORSDOF 5
