REMARK  Name = ZINC15674353
REMARK  7 active torsions:
REMARK  status: ('A' for Active; 'I' for Inactive)
REMARK    1  A    between atoms: C_1  and  C_2
REMARK    2  A    between atoms: C_5  and  C_9
REMARK    3  A    between atoms: C_11  and  C_14
REMARK    4  A    between atoms: C_17  and  O_31
REMARK    5  A    between atoms: C_20  and  C_21
REMARK    6  A    between atoms: C_20  and  N_52
REMARK    7  A    between atoms: N_29  and  C_30
REMARK                            x       y       z     vdW  Elec       q    Type
REMARK                         _______ _______ _______ _____ _____    ______ ____
ROOT
ATOM      1  C   UNL     1      -0.013   1.086   0.008  0.00  0.00    +0.025 C 
ATOM      2  C   UNL     1      -0.821   1.628  -1.197  0.00  0.00    +0.023 C 
ATOM      3  C   UNL     1      -2.287   1.508  -0.707  0.00  0.00    +0.097 C 
ATOM      4  C   UNL     1      -2.196   1.469   0.830  0.00  0.00    -0.046 C 
ATOM      5  N   UNL     1      -0.771   1.596   1.156  0.00  0.00    +0.394 N 
ATOM      6  H   UNL     1      -0.537   2.583   1.315  0.00  0.00    -0.080 HD
ENDROOT
BRANCH   1   9
ATOM      7  C   UNL     1       3.492   1.864  -0.163  0.00  0.00    +0.202 A 
ATOM      8  N   UNL     1       2.485   0.968  -0.272  0.00  0.00    -0.193 NA
ATOM      9  C   UNL     1       1.391   1.635  -0.002  0.00  0.00    +0.214 A 
ATOM     10  O   UNL     1       1.753   2.893   0.267  0.00  0.00    -0.339 OA
ATOM     11  N   UNL     1       2.956   3.009   0.171  0.00  0.00    -0.056 NA
BRANCH   7  16
ATOM     12  C   UNL     1       9.099   0.829  -0.991  0.00  0.00    +0.047 C 
ATOM     13  C   UNL     1       7.632   1.099  -0.775  0.00  0.00    -0.015 A 
ATOM     14  C   UNL     1       7.210   2.368  -0.422  0.00  0.00    +0.007 A 
ATOM     15  C   UNL     1       5.868   2.621  -0.222  0.00  0.00    +0.012 A 
ATOM     16  C   UNL     1       4.936   1.596  -0.377  0.00  0.00    +0.025 A 
ATOM     17  C   UNL     1       5.366   0.318  -0.727  0.00  0.00    +0.050 A 
ATOM     18  C   UNL     1       6.712   0.075  -0.930  0.00  0.00    +0.127 A 
ATOM     19  F   UNL     1       7.130  -1.162  -1.275  0.00  0.00    -0.205 F 
ENDBRANCH   7  16
ENDBRANCH   1   9
BRANCH   3  20
ATOM     20  O   UNL     1      -2.877   0.303  -1.199  0.00  0.00    -0.394 OA
ATOM     21  H   UNL     1      -3.780   0.152  -0.889  0.00  0.00    +0.210 HD
ENDBRANCH   3  20
BRANCH   5  22
ATOM     22  C   UNL     1      -0.451   0.813   2.387  0.00  0.00    -0.002 C 
BRANCH  22  23
ATOM     23  C   UNL     1      -1.033   1.498   3.597  0.00  0.00    +0.094 A 
ATOM     24  N   UNL     1      -2.225   1.284   4.073  0.00  0.00    -0.234 NA
ATOM     25  C   UNL     1      -2.427   2.065   5.165  0.00  0.00    +0.089 A 
ATOM     26  C   UNL     1      -3.501   2.236   6.043  0.00  0.00    +0.030 A 
ATOM     27  C   UNL     1      -3.400   3.123   7.077  0.00  0.00    +0.002 A 
ATOM     28  C   UNL     1      -2.240   3.859   7.268  0.00  0.00    +0.002 A 
ATOM     29  C   UNL     1      -1.168   3.708   6.414  0.00  0.00    +0.028 A 
ATOM     30  C   UNL     1      -1.252   2.811   5.358  0.00  0.00    +0.069 A 
ATOM     31  N   UNL     1      -0.387   2.426   4.353  0.00  0.00    -0.332 N 
ATOM     32  C   UNL     1       0.973   2.926   4.139  0.00  0.00    +0.150 C 
ENDBRANCH  22  23
ENDBRANCH   5  22
TORSDOF 5
