REMARK  Name = ZINC00955867
REMARK  6 active torsions:
REMARK  status: ('A' for Active; 'I' for Inactive)
REMARK    1  A    between atoms: C_1  and  C_2
REMARK    2  A    between atoms: C_3  and  C_21
REMARK    3  A    between atoms: C_4  and  C_12
REMARK    4  A    between atoms: C_15  and  O_19
REMARK    5  A    between atoms: O_19  and  C_20
REMARK    6  A    between atoms: N_23  and  C_24
REMARK                            x       y       z     vdW  Elec       q    Type
REMARK                         _______ _______ _______ _____ _____    ______ ____
ROOT
ATOM      1  C   UNL     1      -0.018   1.502   0.016  0.00  0.00    +0.061 C 
ATOM      2  C   UNL     1       0.002  -0.004  -0.004  0.00  0.00    +0.018 C 
ATOM      3  C   UNL     1      -1.163  -0.668  -0.004  0.00  0.00    +0.060 C 
ATOM      4  C   UNL     1      -1.253  -2.171  -0.034  0.00  0.00    +0.177 C 
ATOM      5  N   UNL     1       0.065  -2.742   0.229  0.00  0.00    -0.221 N 
ATOM      6  C   UNL     1       1.211  -2.018   0.225  0.00  0.00    +0.218 A 
ATOM      7  N   UNL     1       2.200  -2.828   0.486  0.00  0.00    -0.201 NA
ATOM      8  C   UNL     1       1.728  -4.066   0.666  0.00  0.00    +0.247 A 
ATOM      9  N   UNL     1       0.427  -4.056   0.519  0.00  0.00    -0.156 NA
ATOM     10  N   UNL     1       1.213  -0.652  -0.027  0.00  0.00    -0.287 N 
ATOM     11  H   UNL     1       2.037  -0.173  -0.209  0.00  0.00    +0.155 HD
ENDROOT
BRANCH   4  12
ATOM     12  C   UNL     1      -1.734  -2.618  -1.391  0.00  0.00    -0.017 A 
ATOM     13  C   UNL     1      -0.998  -2.308  -2.520  0.00  0.00    +0.010 A 
ATOM     14  C   UNL     1      -1.436  -2.716  -3.765  0.00  0.00    +0.047 A 
ATOM     15  C   UNL     1      -2.615  -3.438  -3.882  0.00  0.00    +0.134 A 
ATOM     16  C   UNL     1      -3.352  -3.748  -2.748  0.00  0.00    +0.060 A 
ATOM     17  C   UNL     1      -2.906  -3.341  -1.504  0.00  0.00    +0.025 A 
ATOM     18 BR   UNL     1      -4.960  -4.730  -2.903  0.00  0.00    -0.047 Br
BRANCH  15  19
ATOM     19  O   UNL     1      -3.048  -3.840  -5.106  0.00  0.00    -0.494 OA
ATOM     20  C   UNL     1      -2.239  -3.485  -6.229  0.00  0.00    +0.277 C 
ENDBRANCH  15  19
ENDBRANCH   4  12
BRANCH   3  21
ATOM     21  C   UNL     1      -2.364   0.079   0.027  0.00  0.00    +0.248 C 
ATOM     22  O   UNL     1      -2.324   1.296   0.053  0.00  0.00    -0.270 OA
ATOM     23  N   UNL     1      -3.553  -0.556   0.029  0.00  0.00    -0.282 N 
ATOM     24  H   UNL     1      -3.587  -1.522  -0.059  0.00  0.00    +0.155 HD
BRANCH  23  25
ATOM     25  C   UNL     1      -4.737   0.176   0.156  0.00  0.00    +0.034 A 
ATOM     26  C   UNL     1      -4.842   1.435  -0.422  0.00  0.00    +0.023 A 
ATOM     27  C   UNL     1      -6.013   2.156  -0.295  0.00  0.00    +0.002 A 
ATOM     28  C   UNL     1      -7.080   1.627   0.407  0.00  0.00    +0.000 A 
ATOM     29  C   UNL     1      -6.979   0.374   0.985  0.00  0.00    +0.002 A 
ATOM     30  C   UNL     1      -5.813  -0.355   0.855  0.00  0.00    +0.023 A 
ENDBRANCH  23  25
ENDBRANCH   3  21
TORSDOF 4
