REMARK  Name = ZINC39631539
REMARK  17 active torsions:
REMARK  status: ('A' for Active; 'I' for Inactive)
REMARK    1  A    between atoms: C_1  and  C_2
REMARK    2  A    between atoms: C_2  and  C_4
REMARK    3  A    between atoms: C_2  and  N_11
REMARK    4  A    between atoms: C_4  and  C_5
REMARK    5  A    between atoms: C_5  and  C_6
REMARK    6  A    between atoms: C_6  and  C_7
REMARK    7  A    between atoms: C_7  and  C_8
REMARK    8  A    between atoms: C_7  and  C_9
REMARK    9  A    between atoms: C_7  and  O_10
REMARK   10  A    between atoms: C_12  and  C_14
REMARK   11  A    between atoms: C_25  and  C_27
REMARK   12  A    between atoms: C_29  and  O_37
REMARK   13  A    between atoms: C_30  and  O_35
REMARK   14  A    between atoms: C_31  and  O_33
REMARK   15  A    between atoms: O_33  and  C_34
REMARK   16  A    between atoms: O_35  and  C_36
REMARK   17  A    between atoms: O_37  and  C_38
REMARK                            x       y       z     vdW  Elec       q    Type
REMARK                         _______ _______ _______ _____ _____    ______ ____
ROOT
ATOM      1  C   UNL     1      -4.036  -1.421  -0.881  0.00  0.00    +0.100 C 
ATOM      2  C   UNL     1      -4.674  -0.290  -0.042  0.00  0.00    +0.121 C 
ATOM      3  N   UNL     1      -5.228   0.652  -1.043  0.00  0.00    -0.296 N 
ATOM      4  C   UNL     1      -5.789  -0.223  -2.101  0.00  0.00    +0.115 C 
ATOM      5  C   UNL     1      -4.773  -1.375  -2.230  0.00  0.00    -0.004 C 
ATOM      6  C   UNL     1      -5.499  -2.694  -2.479  0.00  0.00    -0.010 C 
ATOM      7  C   UNL     1      -6.176  -2.647  -3.852  0.00  0.00    -0.082 C 
ATOM      8  N   UNL     1      -5.164  -2.418  -4.891  0.00  0.00    +0.379 N 
ATOM      9  C   UNL     1      -4.536  -1.106  -4.697  0.00  0.00    -0.082 C 
ATOM     10  C   UNL     1      -3.789  -1.088  -3.360  0.00  0.00    -0.010 C 
ATOM     11  C   UNL     1      -5.223   1.999  -1.002  0.00  0.00    +0.247 C 
ATOM     12  O   UNL     1      -4.613   2.578  -0.124  0.00  0.00    -0.270 OA
ATOM     13  H   UNL     1      -4.460  -3.138  -4.837  0.00  0.00    -0.086 HD
ATOM     14  H   UNL     1      -5.604  -2.448  -5.799  0.00  0.00    -0.086 HD
ENDROOT
BRANCH  11  15
ATOM     15  C   UNL     1      -5.959   2.771  -2.022  0.00  0.00    +0.044 A 
ATOM     16  C   UNL     1      -6.994   2.170  -2.743  0.00  0.00    +0.062 A 
ATOM     17  C   UNL     1      -7.681   2.896  -3.698  0.00  0.00    +0.166 A 
ATOM     18  C   UNL     1      -7.343   4.225  -3.941  0.00  0.00    +0.204 A 
ATOM     19  C   UNL     1      -6.313   4.826  -3.224  0.00  0.00    +0.166 A 
ATOM     20  C   UNL     1      -5.626   4.106  -2.264  0.00  0.00    +0.062 A 
BRANCH  19  21
ATOM     21  O   UNL     1      -5.985   6.124  -3.464  0.00  0.00    -0.491 OA
ATOM     22  C   UNL     1      -4.917   6.677  -2.691  0.00  0.00    +0.277 C 
ENDBRANCH  19  21
BRANCH  18  23
ATOM     23  O   UNL     1      -8.021   4.936  -4.880  0.00  0.00    -0.488 OA
ATOM     24  C   UNL     1      -9.179   5.650  -4.443  0.00  0.00    +0.277 C 
ENDBRANCH  18  23
BRANCH  17  25
ATOM     25  O   UNL     1      -8.689   2.312  -4.400  0.00  0.00    -0.491 OA
ATOM     26  C   UNL     1      -8.982   0.946  -4.100  0.00  0.00    +0.277 C 
ENDBRANCH  17  25
ENDBRANCH  11  15
BRANCH   1  28
ATOM     27  N   UNL     1      -1.725  -2.190  -1.312  0.00  0.00    -0.312 N 
ATOM     28  C   UNL     1      -2.565  -1.162  -1.078  0.00  0.00    +0.218 C 
ATOM     29  O   UNL     1      -2.136  -0.028  -1.026  0.00  0.00    -0.275 OA
ATOM     30  H   UNL     1      -2.068  -3.096  -1.353  0.00  0.00    +0.149 HD
BRANCH  27  32
ATOM     31  C   UNL     1       0.399  -1.873  -0.141  0.00  0.00    +0.028 C 
ATOM     32  C   UNL     1      -0.294  -1.938  -1.503  0.00  0.00    +0.070 C 
BRANCH  32  33
ATOM     33  C   UNL     1       0.316  -3.070  -2.333  0.00  0.00    +0.022 C 
BRANCH  33  34
ATOM     34  C   UNL     1      -0.289  -3.056  -3.738  0.00  0.00    +0.005 C 
BRANCH  34  35
ATOM     35  C   UNL     1       0.321  -4.187  -4.567  0.00  0.00    +0.034 C 
BRANCH  35  36
ATOM     36  C   UNL     1      -0.284  -4.174  -5.972  0.00  0.00    +0.061 C 
ATOM     37  C   UNL     1       0.232  -5.378  -6.762  0.00  0.00    +0.041 C 
ATOM     38  C   UNL     1      -1.809  -4.245  -5.871  0.00  0.00    +0.041 C 
BRANCH  36  39
ATOM     39  O   UNL     1       0.093  -2.969  -6.641  0.00  0.00    -0.389 OA
ATOM     40  H   UNL     1       1.048  -2.857  -6.741  0.00  0.00    +0.210 HD
ENDBRANCH  36  39
ENDBRANCH  35  36
ENDBRANCH  34  35
ENDBRANCH  33  34
ENDBRANCH  32  33
ENDBRANCH  27  32
ENDBRANCH   1  28
TORSDOF 11
