REMARK  Name = ZINC53126433
REMARK  7 active torsions:
REMARK  status: ('A' for Active; 'I' for Inactive)
REMARK    1  A    between atoms: C_1  and  C_2
REMARK    2  A    between atoms: C_7  and  C_9
REMARK    3  A    between atoms: C_7  and  N_11
REMARK    4  A    between atoms: C_9  and  O_10
REMARK    5  A    between atoms: N_11  and  C_12
REMARK    6  A    between atoms: C_12  and  C_14
REMARK    7  A    between atoms: C_12  and  C_15
REMARK                            x       y       z     vdW  Elec       q    Type
REMARK                         _______ _______ _______ _____ _____    ______ ____
ROOT
ATOM      1  N   UNL     1       1.184  -2.630   2.874  0.00  0.00    +0.392 N 
ATOM      2  H   UNL     1       1.992  -2.026   2.914  0.00  0.00    -0.084 HD
ATOM      3  H   UNL     1       0.769  -2.696   3.791  0.00  0.00    -0.084 HD
ENDROOT
BRANCH   1   9
ATOM      4  C   UNL     1      -3.092  -3.504   0.545  0.00  0.00    +0.007 C 
ATOM      5  C   UNL     1      -1.955  -2.501   0.747  0.00  0.00    -0.015 C 
ATOM      6  C   UNL     1      -1.273  -2.225  -0.595  0.00  0.00    +0.003 C 
ATOM      7  C   UNL     1      -0.136  -1.222  -0.393  0.00  0.00    -0.001 C 
ATOM      8  C   UNL     1       0.885  -1.800   0.590  0.00  0.00    -0.010 C 
ATOM      9  C   UNL     1       0.204  -2.075   1.931  0.00  0.00    -0.043 C 
ATOM     10  C   UNL     1      -0.934  -3.078   1.729  0.00  0.00    -0.007 C 
BRANCH   9  11
ATOM     11  C   UNL     1      -0.362  -0.769   2.493  0.00  0.00    +0.143 C 
BRANCH  11  12
ATOM     12  O   UNL     1       0.711   0.129   2.784  0.00  0.00    -0.396 OA
ATOM     13  H   UNL     1       0.432   0.948   3.215  0.00  0.00    +0.209 HD
ENDBRANCH  11  12
ENDBRANCH   9  11
ENDBRANCH   1   9
BRANCH   1  14
ATOM     14  C   UNL     1       1.594  -3.967   2.424  0.00  0.00    +0.014 C 
ATOM     15  C   UNL     1       2.570  -3.834   1.253  0.00  0.00    -0.004 C 
BRANCH  14  16
ATOM     16  C   UNL     1       2.268  -4.694   3.559  0.00  0.00    +0.201 C 
ATOM     17  O   UNL     1       2.701  -4.072   4.506  0.00  0.00    -0.277 OA
ATOM     18  N   UNL     1       2.388  -6.036   3.522  0.00  0.00    -0.303 N 
ATOM     19  C   UNL     1       2.924  -6.716   4.680  0.00  0.00    +0.107 C 
ATOM     20  C   UNL     1       4.465  -6.808   4.562  0.00  0.00    +0.019 C 
ATOM     21  C   UNL     1       4.841  -7.771   3.516  0.00  0.00    +0.002 C 
ATOM     22  C   UNL     1       4.377  -7.389   2.114  0.00  0.00    +0.002 C 
ATOM     23  C   UNL     1       2.959  -7.862   1.910  0.00  0.00    +0.019 C 
ATOM     24  C   UNL     1       1.963  -6.751   2.303  0.00  0.00    +0.107 C 
ENDBRANCH  14  16
ENDBRANCH   1  14
TORSDOF 5
