REMARK  Name = ZINC13726581
REMARK  14 active torsions:
REMARK  status: ('A' for Active; 'I' for Inactive)
REMARK    1  A    between atoms: C_1  and  C_2
REMARK    2  A    between atoms: C_3  and  C_9
REMARK    3  A    between atoms: C_4  and  C_8
REMARK    4  A    between atoms: N_5  and  C_7
REMARK    5  A    between atoms: C_9  and  C_11
REMARK    6  A    between atoms: N_15  and  C_28
REMARK    7  A    between atoms: C_16  and  C_18
REMARK    8  A    between atoms: C_21  and  C_24
REMARK    9  A    between atoms: C_24  and  O_26
REMARK   10  A    between atoms: O_26  and  C_27
REMARK   11  A    between atoms: C_28  and  C_29
REMARK   12  A    between atoms: C_29  and  N_30
REMARK   13  A    between atoms: N_30  and  C_31
REMARK   14  A    between atoms: N_30  and  C_32
REMARK                            x       y       z     vdW  Elec       q    Type
REMARK                         _______ _______ _______ _____ _____    ______ ____
ROOT
ATOM      1  C   UNL     1      -0.010  -4.788   1.035  0.00  0.00    +0.076 C 
ATOM      2  C   UNL     1      -0.065  -5.937   1.748  0.00  0.00    +0.249 C 
ATOM      3  C   UNL     1      -0.058  -7.086   0.819  0.00  0.00    +0.288 C 
ATOM      4  O   UNL     1      -0.099  -8.254   1.154  0.00  0.00    -0.266 OA
ATOM      5  N   UNL     1       0.001  -6.649  -0.452  0.00  0.00    -0.285 N 
ATOM      6  C   UNL     1       0.029  -5.182  -0.423  0.00  0.00    +0.145 C 
ATOM      7  O   UNL     1      -0.119  -6.020   3.098  0.00  0.00    -0.282 OA
ENDROOT
BRANCH   6   8
ATOM      8  C   UNL     1       1.298  -4.678  -1.061  0.00  0.00    -0.022 A 
ATOM      9  C   UNL     1       2.474  -5.393  -0.914  0.00  0.00    +0.006 A 
ATOM     10  C   UNL     1       3.638  -4.941  -1.500  0.00  0.00    +0.015 A 
ATOM     11  C   UNL     1       3.630  -3.753  -2.234  0.00  0.00    +0.059 A 
ATOM     12  C   UNL     1       2.442  -3.034  -2.373  0.00  0.00    +0.015 A 
ATOM     13  C   UNL     1       1.284  -3.501  -1.787  0.00  0.00    +0.006 A 
BRANCH  11  14
ATOM     14  C   UNL     1       4.874  -3.259  -2.858  0.00  0.00    +0.339 C 
ATOM     15  O   UNL     1       4.865  -2.225  -3.496  0.00  0.00    -0.245 OA
BRANCH  14  16
ATOM     16  O   UNL     1       6.019  -3.955  -2.722  0.00  0.00    -0.464 OA
ATOM     17  C   UNL     1       7.203  -3.411  -3.362  0.00  0.00    +0.280 C 
ENDBRANCH  14  16
ENDBRANCH  11  14
ENDBRANCH   6   8
BRANCH   1  18
ATOM     18  C   UNL     1       0.002  -3.424   1.574  0.00  0.00    +0.199 C 
ATOM     19  O   UNL     1       1.040  -2.789   1.598  0.00  0.00    -0.287 OA
BRANCH  18  22
ATOM     20  C   UNL     1      -2.888  -4.731   1.435  0.00  0.00    +0.068 C 
ATOM     21  C   UNL     1      -2.535  -3.392   2.032  0.00  0.00    +0.071 A 
ATOM     22  C   UNL     1      -1.243  -2.822   2.086  0.00  0.00    +0.065 A 
ATOM     23  C   UNL     1      -1.366  -1.595   2.710  0.00  0.00    +0.047 A 
ATOM     24  N   UNL     1      -2.662  -1.429   3.018  0.00  0.00    -0.271 N 
ATOM     25  N   UNL     1      -3.368  -2.560   2.593  0.00  0.00    -0.176 NA
ATOM     26  C   UNL     1      -3.239  -0.263   3.691  0.00  0.00    +0.172 C 
ATOM     27  C   UNL     1      -0.250  -0.623   2.993  0.00  0.00    +0.066 C 
ENDBRANCH  18  22
ENDBRANCH   1  18
BRANCH   5  28
ATOM     28  C   UNL     1       0.026  -7.489  -1.652  0.00  0.00    +0.090 C 
BRANCH  28  29
ATOM     29  C   UNL     1      -1.406  -7.746  -2.124  0.00  0.00    -0.060 C 
BRANCH  29  30
ATOM     30  N   UNL     1      -1.381  -8.588  -3.328  0.00  0.00    +0.377 N 
ATOM     31  C   UNL     1      -0.868  -9.930  -3.021  0.00  0.00    -0.097 C 
ATOM     32  C   UNL     1      -2.712  -8.662  -3.946  0.00  0.00    -0.097 C 
ATOM     33  H   UNL     1      -0.698  -8.122  -4.052  0.00  0.00    -0.083 HD
ENDBRANCH  29  30
ENDBRANCH  28  29
ENDBRANCH   5  28
TORSDOF 8
