REMARK  Name = ZINC13503464
REMARK  10 active torsions:
REMARK  status: ('A' for Active; 'I' for Inactive)
REMARK    1  A    between atoms: C_1  and  N_2
REMARK    2  A    between atoms: N_2  and  C_3
REMARK    3  A    between atoms: N_2  and  C_4
REMARK    4  A    between atoms: C_7  and  N_10
REMARK    5  A    between atoms: C_11  and  C_13
REMARK    6  A    between atoms: C_14  and  N_30
REMARK    7  A    between atoms: C_19  and  O_28
REMARK    8  A    between atoms: C_20  and  O_26
REMARK    9  A    between atoms: O_26  and  C_27
REMARK   10  A    between atoms: O_28  and  C_29
REMARK                            x       y       z     vdW  Elec       q    Type
REMARK                         _______ _______ _______ _____ _____    ______ ____
ROOT
ATOM      1  C   UNL     1      -0.033   1.369   0.172  0.00  0.00    +0.097 A 
ATOM      2  C   UNL     1      -0.022   0.001   0.318  0.00  0.00    +0.053 A 
ATOM      3  C   UNL     1       1.260  -0.692   0.261  0.00  0.00    +0.030 A 
ATOM      4  C   UNL     1       1.497  -2.075   0.386  0.00  0.00    +0.022 A 
ATOM      5  C   UNL     1       2.808  -2.545   0.301  0.00  0.00    +0.005 A 
ATOM      6  C   UNL     1       3.111  -3.916   0.419  0.00  0.00    +0.059 A 
ATOM      7  C   UNL     1       4.407  -4.327   0.330  0.00  0.00    +0.162 A 
ATOM      8  C   UNL     1       5.452  -3.413   0.123  0.00  0.00    +0.164 A 
ATOM      9  C   UNL     1       5.215  -2.075   0.003  0.00  0.00    +0.077 A 
ATOM     10  C   UNL     1       3.899  -1.593   0.086  0.00  0.00    +0.076 A 
ATOM     11  N   UNL     1       3.619  -0.292  -0.025  0.00  0.00    -0.239 NA
ATOM     12  C   UNL     1       2.386   0.148   0.054  0.00  0.00    +0.111 A 
ATOM     13  S   UNL     1       1.686   1.779  -0.050  0.00  0.00    -0.062 S 
ENDROOT
BRANCH   1  15
ATOM     14  N   UNL     1      -0.966   3.569   0.026  0.00  0.00    -0.281 N 
ATOM     15  C   UNL     1      -1.147   2.243   0.187  0.00  0.00    +0.257 C 
ATOM     16  O   UNL     1      -2.269   1.796   0.345  0.00  0.00    -0.269 OA
ATOM     17  H   UNL     1      -0.069   3.933  -0.023  0.00  0.00    +0.155 HD
BRANCH  14  21
ATOM     18  C   UNL     1      -4.264   6.104  -0.259  0.00  0.00    +0.029 A 
ATOM     19  C   UNL     1      -3.096   6.550   0.345  0.00  0.00    +0.025 A 
ATOM     20  C   UNL     1      -2.004   5.711   0.439  0.00  0.00    +0.025 A 
ATOM     21  C   UNL     1      -2.074   4.420  -0.069  0.00  0.00    +0.034 A 
ATOM     22  C   UNL     1      -3.241   3.976  -0.677  0.00  0.00    +0.025 A 
ATOM     23  C   UNL     1      -4.335   4.814  -0.767  0.00  0.00    +0.025 A 
BRANCH  18  25
ATOM     24  C   UNL     1      -5.298   8.316   0.183  0.00  0.00    +0.129 C 
ATOM     25  N   UNL     1      -5.371   6.955  -0.354  0.00  0.00    -0.336 N 
ATOM     26  C   UNL     1      -6.604   6.484  -0.990  0.00  0.00    +0.129 C 
ENDBRANCH  18  25
ENDBRANCH  14  21
ENDBRANCH   1  15
BRANCH   2  27
ATOM     27  N   UNL     1      -1.201  -0.701   0.516  0.00  0.00    -0.356 N 
ATOM     28  H   UNL     1      -2.047  -0.228   0.552  0.00  0.00    +0.142 HD
ATOM     29  H   UNL     1      -1.180  -1.666   0.618  0.00  0.00    +0.142 HD
ENDBRANCH   2  27
BRANCH   8  30
ATOM     30  O   UNL     1       6.728  -3.872   0.042  0.00  0.00    -0.491 OA
ATOM     31  C   UNL     1       7.754  -2.900  -0.169  0.00  0.00    +0.277 C 
ENDBRANCH   8  30
BRANCH   7  32
ATOM     32  O   UNL     1       4.694  -5.651   0.444  0.00  0.00    -0.491 OA
ATOM     33  C   UNL     1       3.594  -6.538   0.653  0.00  0.00    +0.277 C 
ENDBRANCH   7  32
TORSDOF 6
