REMARK  Name = ZINC04163651
REMARK  6 active torsions:
REMARK  status: ('A' for Active; 'I' for Inactive)
REMARK    1  A    between atoms: C_1  and  C_2
REMARK    2  A    between atoms: C_2  and  C_3
REMARK    3  A    between atoms: C_10  and  N_27
REMARK    4  A    between atoms: C_11  and  C_25
REMARK    5  A    between atoms: N_19  and  C_22
REMARK    6  A    between atoms: C_22  and  C_23
REMARK                            x       y       z     vdW  Elec       q    Type
REMARK                         _______ _______ _______ _____ _____    ______ ____
ROOT
ATOM      1  C   UNL     1       0.707  -0.490  -1.238  0.00  0.00    +0.071 A 
ATOM      2  C   UNL     1       0.111  -0.758  -2.462  0.00  0.00    +0.061 A 
ATOM      3  C   UNL     1       1.087  -1.175  -3.326  0.00  0.00    +0.223 A 
ATOM      4  N   UNL     1       2.251  -1.166  -2.658  0.00  0.00    -0.246 N 
ATOM      5  H   UNL     1       3.118  -1.415  -3.016  0.00  0.00    +0.192 HD
ATOM      6  N   UNL     1       1.993  -0.728  -1.349  0.00  0.00    -0.176 NA
ATOM      7  O   UNL     1       0.827  -1.514  -4.613  0.00  0.00    -0.423 OA
ATOM      8  C   UNL     1      -0.377  -1.185  -5.122  0.00  0.00    +0.201 C 
ATOM      9  C   UNL     1      -1.424  -0.772  -4.369  0.00  0.00    +0.110 C 
ATOM     10  C   UNL     1      -1.330  -0.646  -2.873  0.00  0.00    +0.145 C 
ATOM     11  C   UNL     1      -2.172  -1.672  -2.186  0.00  0.00    -0.001 A 
ATOM     12  C   UNL     1      -2.136  -3.050  -2.208  0.00  0.00    +0.007 A 
ATOM     13  C   UNL     1      -3.081  -3.718  -1.438  0.00  0.00    +0.000 A 
ATOM     14  C   UNL     1      -4.012  -3.031  -0.686  0.00  0.00    +0.002 A 
ATOM     15  C   UNL     1      -4.056  -1.646  -0.661  0.00  0.00    +0.024 A 
ATOM     16  C   UNL     1      -3.113  -0.962  -1.430  0.00  0.00    +0.041 A 
ATOM     17  N   UNL     1      -2.929   0.400  -1.589  0.00  0.00    -0.266 N 
ATOM     18  C   UNL     1      -1.904   0.678  -2.422  0.00  0.00    +0.241 C 
ATOM     19  O   UNL     1      -1.517   1.781  -2.746  0.00  0.00    -0.274 OA
ENDROOT
BRANCH   8  20
ATOM     20  N   UNL     1      -0.552  -1.273  -6.481  0.00  0.00    -0.328 N 
ATOM     21  H   UNL     1       0.180  -1.566  -7.046  0.00  0.00    +0.145 HD
ATOM     22  H   UNL     1      -1.408  -1.043  -6.876  0.00  0.00    +0.145 HD
ENDBRANCH   8  20
BRANCH   1  24
ATOM     23  C   UNL     1      -0.019   1.526   0.010  0.00  0.00    +0.010 C 
ATOM     24  C   UNL     1       0.002  -0.004   0.002  0.00  0.00    +0.054 C 
ENDBRANCH   1  24
BRANCH   9  25
ATOM     25  C   UNL     1      -2.658  -0.445  -5.017  0.00  0.00    +0.102 C 
ATOM     26  N   UNL     1      -3.638  -0.186  -5.531  0.00  0.00    -0.191 NA
ENDBRANCH   9  25
BRANCH  17  27
ATOM     27  C   UNL     1      -3.751   1.419  -0.932  0.00  0.00    +0.140 C 
BRANCH  27  28
ATOM     28  C   UNL     1      -3.138   1.778   0.397  0.00  0.00    -0.015 C 
ATOM     29  C   UNL     1      -2.853   3.027   0.671  0.00  0.00    +0.005 C 
ENDBRANCH  27  28
ENDBRANCH  17  27
TORSDOF 5
