REMARK  Name = ZINC05514401
REMARK  8 active torsions:
REMARK  status: ('A' for Active; 'I' for Inactive)
REMARK    1  A    between atoms: C_1  and  O_2
REMARK    2  A    between atoms: O_2  and  C_3
REMARK    3  A    between atoms: C_6  and  C_11
REMARK    4  A    between atoms: C_8  and  O_9
REMARK    5  A    between atoms: O_9  and  C_10
REMARK    6  A    between atoms: C_25  and  N_30
REMARK    7  A    between atoms: C_26  and  C_27
REMARK    8  A    between atoms: C_27  and  N_29
REMARK                            x       y       z     vdW  Elec       q    Type
REMARK                         _______ _______ _______ _____ _____    ______ ____
ROOT
ATOM      1  C   UNL     1       2.453   1.418   0.099  0.00  0.00    +0.097 C 
ATOM      2  C   UNL     1       1.094   2.064   0.094  0.00  0.00    +0.092 A 
ATOM      3  C   UNL     1      -0.035   1.307  -0.010  0.00  0.00    +0.152 A 
ATOM      4  C   UNL     1      -1.337   1.993  -0.002  0.00  0.00    +0.060 A 
ATOM      5  C   UNL     1      -2.530   1.275  -0.098  0.00  0.00    +0.015 A 
ATOM      6  C   UNL     1      -3.732   1.948  -0.088  0.00  0.00    +0.001 A 
ATOM      7  C   UNL     1      -3.758   3.331   0.015  0.00  0.00    +0.004 A 
ATOM      8  C   UNL     1      -2.586   4.053   0.099  0.00  0.00    +0.047 A 
ATOM      9  C   UNL     1      -1.364   3.393   0.097  0.00  0.00    +0.143 A 
ATOM     10  O   UNL     1      -0.206   4.082   0.195  0.00  0.00    -0.422 OA
ATOM     11  C   UNL     1       0.984   3.462   0.196  0.00  0.00    +0.345 A 
ATOM     12  O   UNL     1       1.999   4.130   0.288  0.00  0.00    -0.245 OA
ATOM     13  O   UNL     1       0.023  -0.035  -0.111  0.00  0.00    -0.441 OA
ATOM     14  C   UNL     1       1.136  -0.689   0.265  0.00  0.00    +0.191 C 
ATOM     15  C   UNL     1       2.327  -0.052   0.385  0.00  0.00    +0.050 C 
ENDROOT
BRANCH   1  19
ATOM     16  C   UNL     1       4.284   1.966  -3.726  0.00  0.00    +0.162 A 
ATOM     17  C   UNL     1       3.088   1.275  -3.620  0.00  0.00    +0.050 A 
ATOM     18  C   UNL     1       2.501   1.095  -2.381  0.00  0.00    +0.008 A 
ATOM     19  C   UNL     1       3.100   1.612  -1.248  0.00  0.00    -0.031 A 
ATOM     20  C   UNL     1       4.293   2.303  -1.347  0.00  0.00    +0.054 A 
ATOM     21  C   UNL     1       4.889   2.482  -2.584  0.00  0.00    +0.162 A 
BRANCH  16  23
ATOM     22  C   UNL     1       4.188   1.582  -6.071  0.00  0.00    +0.277 C 
ATOM     23  O   UNL     1       4.866   2.139  -4.943  0.00  0.00    -0.491 OA
ENDBRANCH  16  23
BRANCH  21  24
ATOM     24  O   UNL     1       6.064   3.161  -2.683  0.00  0.00    -0.491 OA
ATOM     25  C   UNL     1       6.627   3.663  -1.470  0.00  0.00    +0.277 C 
ENDBRANCH  21  24
ENDBRANCH   1  19
BRANCH  14  26
ATOM     26  N   UNL     1       1.064  -2.032   0.534  0.00  0.00    -0.329 N 
ATOM     27  H   UNL     1       0.206  -2.483   0.526  0.00  0.00    +0.145 HD
ATOM     28  H   UNL     1       1.872  -2.530   0.733  0.00  0.00    +0.145 HD
ENDBRANCH  14  26
BRANCH  15  29
ATOM     29  C   UNL     1       3.462  -0.779   0.782  0.00  0.00    +0.079 C 
ATOM     30  S   UNL     1       3.927  -0.808   2.429  0.00  0.00    -0.035 S 
BRANCH  29  31
ATOM     31  N   UNL     1       4.186  -1.453  -0.134  0.00  0.00    -0.352 N 
ATOM     32  H   UNL     1       3.966  -1.378  -1.076  0.00  0.00    +0.143 HD
ATOM     33  H   UNL     1       4.925  -2.013   0.148  0.00  0.00    +0.143 HD
ENDBRANCH  29  31
ENDBRANCH  15  29
TORSDOF 6
