REMARK  Name = ZINC50971649
REMARK  9 active torsions:
REMARK  status: ('A' for Active; 'I' for Inactive)
REMARK    1  A    between atoms: C_1  and  O_2
REMARK    2  A    between atoms: O_2  and  C_3
REMARK    3  A    between atoms: C_5  and  O_21
REMARK    4  A    between atoms: C_6  and  C_11
REMARK    5  A    between atoms: C_7  and  O_9
REMARK    6  A    between atoms: O_9  and  C_10
REMARK    7  A    between atoms: C_11  and  C_13
REMARK    8  A    between atoms: C_11  and  O_20
REMARK    9  A    between atoms: O_21  and  C_22
REMARK                            x       y       z     vdW  Elec       q    Type
REMARK                         _______ _______ _______ _____ _____    ______ ____
ROOT
ATOM      1  C   UNL     1       0.606  -0.607  -1.056  0.00  0.00    +0.127 A 
ATOM      2  C   UNL     1       1.172   0.162  -2.061  0.00  0.00    +0.091 A 
ATOM      3  C   UNL     1       1.789  -0.454  -3.140  0.00  0.00    +0.133 A 
ATOM      4  C   UNL     1       1.839  -1.838  -3.214  0.00  0.00    +0.067 A 
ATOM      5  C   UNL     1       1.272  -2.606  -2.208  0.00  0.00    +0.133 A 
ATOM      6  C   UNL     1       0.660  -1.991  -1.127  0.00  0.00    +0.091 A 
ENDROOT
BRANCH   1   8
ATOM      7  C   UNL     1      -0.017   1.425   0.010  0.00  0.00    +0.277 C 
ATOM      8  O   UNL     1       0.002  -0.004   0.002  0.00  0.00    -0.495 OA
ENDBRANCH   1   8
BRANCH   5   9
ATOM      9  O   UNL     1       1.321  -3.962  -2.280  0.00  0.00    -0.495 OA
ATOM     10  C   UNL     1       0.718  -4.691  -1.209  0.00  0.00    +0.277 C 
ENDBRANCH   5   9
BRANCH   3  11
ATOM     11  O   UNL     1       2.344   0.299  -4.126  0.00  0.00    -0.495 OA
ATOM     12  C   UNL     1       2.255   1.719  -3.986  0.00  0.00    +0.277 C 
ENDBRANCH   3  11
BRANCH   4  13
ATOM     13  C   UNL     1       2.508  -2.506  -4.387  0.00  0.00    +0.180 C 
BRANCH  13  14
ATOM     14  C   UNL     1       3.866  -3.060  -3.952  0.00  0.00    +0.151 C 
ATOM     15  C   UNL     1       4.546  -3.739  -5.144  0.00  0.00    +0.034 C 
ATOM     16  C   UNL     1       5.930  -4.237  -4.716  0.00  0.00    +0.005 C 
ATOM     17  C   UNL     1       6.743  -3.055  -4.179  0.00  0.00    +0.028 C 
ATOM     18  C   UNL     1       5.978  -2.403  -3.024  0.00  0.00    +0.160 C 
ATOM     19  O   UNL     1       4.688  -1.990  -3.482  0.00  0.00    -0.374 OA
ENDBRANCH  13  14
BRANCH  13  20
ATOM     20  O   UNL     1       1.686  -3.576  -4.858  0.00  0.00    -0.384 OA
ATOM     21  H   UNL     1       1.516  -4.262  -4.197  0.00  0.00    +0.210 HD
ENDBRANCH  13  20
ENDBRANCH   4  13
TORSDOF 6
