REMARK  Name = ZINC11680799
REMARK  13 active torsions:
REMARK  status: ('A' for Active; 'I' for Inactive)
REMARK    1  A    between atoms: C_1  and  C_2
REMARK    2  A    between atoms: C_5  and  C_8
REMARK    3  A    between atoms: N_10  and  C_11
REMARK    4  A    between atoms: N_10  and  C_14
REMARK    5  A    between atoms: C_11  and  C_12
REMARK    6  A    between atoms: C_12  and  C_13
REMARK    7  A    between atoms: C_13  and  N_70
REMARK    8  A    between atoms: C_14  and  C_16
REMARK    9  A    between atoms: C_14  and  C_35
REMARK   10  A    between atoms: N_26  and  C_27
REMARK   11  A    between atoms: C_27  and  C_28
REMARK   12  A    between atoms: C_35  and  C_36
REMARK   13  A    between atoms: C_35  and  C_37
REMARK                            x       y       z     vdW  Elec       q    Type
REMARK                         _______ _______ _______ _____ _____    ______ ____
ROOT
ATOM      1  C   UNL     1      -4.760   1.434  -0.522  0.00  0.00    +0.145 C 
ENDROOT
BRANCH   1   2
ATOM      2  C   UNL     1      -3.607   2.356  -0.826  0.00  0.00    +0.134 A 
ATOM      3  N   UNL     1      -3.698   3.598  -0.461  0.00  0.00    -0.232 NA
ATOM      4  C   UNL     1      -2.700   4.485  -0.701  0.00  0.00    +0.080 A 
ATOM      5  C   UNL     1      -2.796   5.822  -0.310  0.00  0.00    +0.048 A 
ATOM      6  C   UNL     1      -1.752   6.683  -0.571  0.00  0.00    +0.043 A 
ATOM      7  C   UNL     1      -0.609   6.237  -1.224  0.00  0.00    +0.021 A 
ATOM      8  C   UNL     1      -0.495   4.934  -1.621  0.00  0.00    +0.017 A 
ATOM      9  C   UNL     1      -1.537   4.043  -1.369  0.00  0.00    +0.065 A 
ATOM     10  C   UNL     1      -1.468   2.632  -1.775  0.00  0.00    +0.262 A 
ATOM     11  O   UNL     1      -0.492   2.186  -2.349  0.00  0.00    -0.267 OA
ATOM     12  N   UNL     1      -2.524   1.843  -1.467  0.00  0.00    -0.290 N 
ATOM     13 CL   UNL     1      -1.867   8.344  -0.079  0.00  0.00    -0.083 Cl
BRANCH  12  14
ATOM     14  C   UNL     1      -2.506   0.427  -1.843  0.00  0.00    +0.161 C 
BRANCH  14  15
ATOM     15  C   UNL     1      -2.941   0.283  -3.278  0.00  0.00    -0.028 A 
ATOM     16  C   UNL     1      -4.283   0.154  -3.584  0.00  0.00    +0.005 A 
ATOM     17  C   UNL     1      -4.683   0.026  -4.902  0.00  0.00    +0.000 A 
ATOM     18  C   UNL     1      -3.739   0.016  -5.912  0.00  0.00    +0.000 A 
ATOM     19  C   UNL     1      -2.397   0.139  -5.606  0.00  0.00    +0.000 A 
ATOM     20  C   UNL     1      -1.998   0.273  -4.289  0.00  0.00    +0.005 A 
ENDBRANCH  14  15
ENDBRANCH  12  14
ENDBRANCH   1   2
BRANCH   1  23
ATOM     21  C   UNL     1      -6.965   1.631  -1.540  0.00  0.00    +0.247 C 
ATOM     22  O   UNL     1      -6.830   0.510  -1.990  0.00  0.00    -0.270 OA
ATOM     23  N   UNL     1      -6.022   2.148  -0.727  0.00  0.00    -0.287 N 
BRANCH  21  28
ATOM     24  C   UNL     1     -11.630   4.725  -2.874  0.00  0.00    +0.044 C 
ATOM     25  C   UNL     1     -10.408   3.914  -2.525  0.00  0.00    -0.050 A 
ATOM     26  C   UNL     1     -10.272   2.628  -3.015  0.00  0.00    +0.004 A 
ATOM     27  C   UNL     1      -9.156   1.881  -2.699  0.00  0.00    +0.013 A 
ATOM     28  C   UNL     1      -8.163   2.426  -1.883  0.00  0.00    +0.037 A 
ATOM     29  C   UNL     1      -8.309   3.722  -1.388  0.00  0.00    +0.013 A 
ATOM     30  C   UNL     1      -9.428   4.460  -1.715  0.00  0.00    +0.004 A 
ENDBRANCH  21  28
BRANCH  23  31
ATOM     31  C   UNL     1      -6.261   3.425  -0.050  0.00  0.00    +0.107 C 
BRANCH  31  32
ATOM     32  C   UNL     1      -6.045   4.574  -1.037  0.00  0.00    -0.001 C 
BRANCH  32  33
ATOM     33  C   UNL     1      -6.089   5.907  -0.286  0.00  0.00    -0.085 C 
BRANCH  33  36
ATOM     34  H   UNL     1      -6.021   7.905  -0.775  0.00  0.00    -0.090 HD
ATOM     35  H   UNL     1      -5.165   6.930  -1.815  0.00  0.00    -0.090 HD
ATOM     36  N   UNL     1      -6.016   7.010  -1.260  0.00  0.00    +0.378 N 
ATOM     37  H   UNL     1      -6.829   6.962  -1.886  0.00  0.00    -0.090 HD
ENDBRANCH  33  36
ENDBRANCH  32  33
ENDBRANCH  31  32
ENDBRANCH  23  31
ENDBRANCH   1  23
BRANCH   1  38
ATOM     38  C   UNL     1      -4.669   0.966   0.932  0.00  0.00    +0.011 C 
ATOM     39  C   UNL     1      -5.772  -0.058   1.208  0.00  0.00    +0.009 C 
ATOM     40  C   UNL     1      -3.303   0.323   1.177  0.00  0.00    +0.009 C 
ENDBRANCH   1  38
TORSDOF 10
