REMARK  Name = ZINC43553581
REMARK  11 active torsions:
REMARK  status: ('A' for Active; 'I' for Inactive)
REMARK    1  A    between atoms: C_1  and  C_2
REMARK    2  A    between atoms: C_2  and  C_3
REMARK    3  A    between atoms: C_3  and  N_4
REMARK    4  A    between atoms: C_5  and  C_7
REMARK    5  A    between atoms: C_7  and  C_8
REMARK    6  A    between atoms: C_16  and  C_18
REMARK    7  A    between atoms: C_26  and  C_36
REMARK    8  A    between atoms: C_29  and  O_35
REMARK    9  A    between atoms: C_31  and  C_32
REMARK   10  A    between atoms: C_31  and  C_33
REMARK   11  A    between atoms: C_33  and  O_34
REMARK                            x       y       z     vdW  Elec       q    Type
REMARK                         _______ _______ _______ _____ _____    ______ ____
ROOT
ATOM      1  C   UNL     1      -3.843  -4.706   0.126  0.00  0.00    +0.054 C 
ATOM      2  C   UNL     1      -4.473  -4.461   1.482  0.00  0.00    +0.058 A 
ATOM      3  C   UNL     1      -5.554  -5.202   1.833  0.00  0.00    +0.015 A 
ATOM      4  S   UNL     1      -5.933  -4.575   3.447  0.00  0.00    -0.057 S 
ATOM      5  C   UNL     1      -4.694  -3.436   3.537  0.00  0.00    +0.165 A 
ATOM      6  N   UNL     1      -4.073  -3.576   2.385  0.00  0.00    -0.229 NA
ATOM      7  N   UNL     1      -4.398  -2.562   4.575  0.00  0.00    -0.260 N 
ATOM      8  C   UNL     1      -5.153  -2.562   5.692  0.00  0.00    +0.256 C 
ATOM      9  O   UNL     1      -6.094  -3.328   5.790  0.00  0.00    -0.269 OA
ATOM     10  C   UNL     1      -6.226  -6.267   1.045  0.00  0.00    +0.049 C 
ATOM     11  C   UNL     1      -5.578  -6.476  -0.337  0.00  0.00    +0.011 C 
ATOM     12  C   UNL     1      -4.088  -6.160  -0.291  0.00  0.00    -0.019 C 
ATOM     13  C   UNL     1      -3.397  -7.142   0.646  0.00  0.00    +0.010 C 
ATOM     14  C   UNL     1      -3.559  -8.561   0.100  0.00  0.00    +0.032 C 
ATOM     15  C   UNL     1      -5.019  -8.946  -0.050  0.00  0.00    +0.123 C 
ATOM     16  C   UNL     1      -5.879  -7.914  -0.759  0.00  0.00    +0.021 C 
ATOM     17  C   UNL     1      -5.782  -8.099  -2.279  0.00  0.00    +0.016 C 
ATOM     18  C   UNL     1      -3.447  -6.273  -1.682  0.00  0.00    +0.012 C 
ATOM     19  H   UNL     1      -3.648  -1.952   4.496  0.00  0.00    +0.157 HD
ENDROOT
BRANCH   8  20
ATOM     20  C   UNL     1      -4.841  -1.640   6.787  0.00  0.00    +0.074 A 
ATOM     21  C   UNL     1      -5.480  -1.485   8.008  0.00  0.00    +0.021 A 
ATOM     22  C   UNL     1      -4.952  -0.527   8.840  0.00  0.00    +0.008 A 
ATOM     23  C   UNL     1      -3.873   0.183   8.427  0.00  0.00    +0.046 A 
ATOM     24  S   UNL     1      -3.537  -0.430   6.900  0.00  0.00    -0.092 S 
ENDBRANCH   8  20
BRANCH  15  25
ATOM     25  O   UNL     1      -5.573  -9.254   1.234  0.00  0.00    -0.391 OA
ATOM     26  H   UNL     1      -5.133  -9.986   1.687  0.00  0.00    +0.210 HD
ENDBRANCH  15  25
BRANCH   1  27
ATOM     27  C   UNL     1      -2.349  -4.402   0.166  0.00  0.00    +0.106 C 
BRANCH  27  29
ATOM     28  N   UNL     1      -0.893  -2.428   0.483  0.00  0.00    -0.315 N 
ATOM     29  C   UNL     1      -2.142  -2.930   0.409  0.00  0.00    +0.214 C 
ATOM     30  O   UNL     1      -3.099  -2.196   0.537  0.00  0.00    -0.276 OA
ATOM     31  H   UNL     1      -0.127  -3.015   0.381  0.00  0.00    +0.149 HD
BRANCH  28  32
ATOM     32  C   UNL     1      -0.692  -0.996   0.719  0.00  0.00    +0.104 C 
BRANCH  32  34
ATOM     33  C   UNL     1       1.018   0.804   1.005  0.00  0.00    +0.005 C 
ATOM     34  C   UNL     1       0.807  -0.692   0.759  0.00  0.00    +0.015 C 
ENDBRANCH  32  34
ENDBRANCH  28  32
ENDBRANCH  27  29
ENDBRANCH   1  27
BRANCH  16  35
ATOM     35  C   UNL     1      -7.356  -8.225  -0.405  0.00  0.00    +0.165 C 
BRANCH  35  36
ATOM     36  O   UNL     1      -7.666  -9.566  -0.789  0.00  0.00    -0.394 OA
ATOM     37  H   UNL     1      -8.576  -9.831  -0.597  0.00  0.00    +0.209 HD
ENDBRANCH  35  36
ENDBRANCH  16  35
TORSDOF 8
