REMARK  Name = ZINC65118354
REMARK  6 active torsions:
REMARK  status: ('A' for Active; 'I' for Inactive)
REMARK    1  A    between atoms: C_1  and  C_2
REMARK    2  A    between atoms: C_5  and  C_8
REMARK    3  A    between atoms: C_8  and  N_9
REMARK    4  A    between atoms: C_10  and  C_12
REMARK    5  A    between atoms: C_13  and  N_31
REMARK    6  A    between atoms: C_14  and  C_17
REMARK                            x       y       z     vdW  Elec       q    Type
REMARK                         _______ _______ _______ _____ _____    ______ ____
ROOT
ATOM      1  C   UNL     1       3.400  -6.543   0.380  0.00  0.00    +0.156 A 
ATOM      2  C   UNL     1       3.783  -7.838   0.720  0.00  0.00    +0.076 A 
ATOM      3  C   UNL     1       4.808  -8.344  -0.081  0.00  0.00    +0.115 A 
ATOM      4  S   UNL     1       5.099  -6.975  -1.183  0.00  0.00    +0.019 S 
ATOM      5  N   UNL     1       3.999  -5.931  -0.621  0.00  0.00    -0.203 NA
ENDROOT
BRANCH   3   6
ATOM      6  C   UNL     1       5.467  -9.650  -0.029  0.00  0.00    +0.257 C 
ATOM      7  O   UNL     1       4.801 -10.668  -0.015  0.00  0.00    -0.269 OA
ATOM      8  N   UNL     1       6.813  -9.724   0.003  0.00  0.00    -0.294 N 
ATOM      9  C   UNL     1       7.633  -8.515  -0.153  0.00  0.00    +0.127 C 
ATOM     10  C   UNL     1       8.574  -8.402   1.052  0.00  0.00    +0.125 C 
ATOM     11  N   UNL     1       9.247  -9.694   1.245  0.00  0.00    -0.314 N 
ATOM     12  C   UNL     1       8.427 -10.903   1.402  0.00  0.00    +0.125 C 
ATOM     13  C   UNL     1       7.486 -11.016   0.202  0.00  0.00    +0.127 C 
ATOM     14  C   UNL     1      10.635  -9.771   1.279  0.00  0.00    +0.099 A 
ATOM     15  C   UNL     1      11.389  -8.603   1.336  0.00  0.00    +0.042 A 
ATOM     16  C   UNL     1      12.769  -8.694   1.369  0.00  0.00    +0.005 A 
ATOM     17  C   UNL     1      13.350  -9.955   1.343  0.00  0.00    +0.018 A 
ATOM     18  C   UNL     1      12.541 -11.072   1.286  0.00  0.00    +0.084 A 
ATOM     19  N   UNL     1      11.227 -10.955   1.261  0.00  0.00    -0.350 N 
ATOM     20  H   UNL     1      10.681 -11.756   1.225  0.00  0.00    +0.166 HD
ENDBRANCH   3   6
BRANCH   1  22
ATOM     21  N   UNL     1       2.065  -4.562   0.900  0.00  0.00    -0.306 N 
ATOM     22  C   UNL     1       2.328  -5.863   1.130  0.00  0.00    +0.265 C 
ATOM     23  O   UNL     1       1.682  -6.477   1.958  0.00  0.00    -0.268 OA
ATOM     24  H   UNL     1       2.580  -4.072   0.240  0.00  0.00    +0.149 HD
BRANCH  21  25
ATOM     25  C   UNL     1       1.000  -3.886   1.646  0.00  0.00    +0.140 C 
BRANCH  25  30
ATOM     26  C   UNL     1       0.654   1.627  -0.049  0.00  0.00    +0.044 C 
ATOM     27  C   UNL     1       0.744   0.189   0.393  0.00  0.00    -0.050 A 
ATOM     28  C   UNL     1      -0.002  -0.780  -0.251  0.00  0.00    +0.003 A 
ATOM     29  C   UNL     1       0.081  -2.099   0.154  0.00  0.00    +0.005 A 
ATOM     30  C   UNL     1       0.910  -2.449   1.203  0.00  0.00    -0.030 A 
ATOM     31  C   UNL     1       1.658  -1.480   1.846  0.00  0.00    +0.005 A 
ATOM     32  C   UNL     1       1.578  -0.161   1.438  0.00  0.00    +0.003 A 
ENDBRANCH  25  30
ENDBRANCH  21  25
ENDBRANCH   1  22
BRANCH   2  33
ATOM     33  N   UNL     1       3.202  -8.557   1.756  0.00  0.00    -0.355 N 
ATOM     34  H   UNL     1       2.419  -8.207   2.210  0.00  0.00    +0.142 HD
ATOM     35  H   UNL     1       3.578  -9.409   2.027  0.00  0.00    +0.142 HD
ENDBRANCH   2  33
TORSDOF 5
