REMARK  Name = ZINC22472074
REMARK  12 active torsions:
REMARK  status: ('A' for Active; 'I' for Inactive)
REMARK    1  A    between atoms: C_1  and  C_2
REMARK    2  A    between atoms: C_5  and  C_36
REMARK    3  A    between atoms: C_6  and  S_8
REMARK    4  A    between atoms: S_8  and  N_11
REMARK    5  A    between atoms: N_11  and  C_12
REMARK    6  A    between atoms: C_17  and  C_18
REMARK    7  A    between atoms: C_18  and  O_20
REMARK    8  A    between atoms: O_20  and  C_21
REMARK    9  A    between atoms: C_21  and  C_23
REMARK   10  A    between atoms: C_21  and  C_24
REMARK   11  A    between atoms: N_26  and  C_27
REMARK   12  A    between atoms: C_32  and  N_33
REMARK                            x       y       z     vdW  Elec       q    Type
REMARK                         _______ _______ _______ _____ _____    ______ ____
ROOT
ATOM      1  C   UNL     1      -2.130   0.878   1.759  0.00  0.00    +0.062 A 
ATOM      2  C   UNL     1      -2.177  -0.440   1.321  0.00  0.00    +0.025 A 
ATOM      3  C   UNL     1      -3.317  -1.192   1.513  0.00  0.00    +0.002 A 
ATOM      4  C   UNL     1      -4.423  -0.643   2.143  0.00  0.00    +0.001 A 
ATOM      5  C   UNL     1      -4.396   0.661   2.585  0.00  0.00    +0.017 A 
ATOM      6  C   UNL     1      -3.247   1.436   2.402  0.00  0.00    +0.081 A 
ENDROOT
BRANCH   1   7
ATOM      7  N   UNL     1      -0.984   1.637   1.566  0.00  0.00    -0.215 N 
ATOM      8  H   UNL     1      -0.676   2.370   2.326  0.00  0.00    +0.174 HD
BRANCH   7   9
ATOM      9  S   UNL     1      -0.081   1.439   0.192  0.00  0.00    +0.073 S 
ATOM     10  O   UNL     1       0.219   0.053   0.100  0.00  0.00    -0.150 OA
ATOM     11  O   UNL     1       0.930   2.437   0.224  0.00  0.00    -0.150 OA
BRANCH   9  17
ATOM     12  C   UNL     1      -2.723   0.039  -4.095  0.00  0.00    +0.044 C 
ATOM     13  C   UNL     1      -2.315   1.124  -3.132  0.00  0.00    -0.049 A 
ATOM     14  C   UNL     1      -2.758   2.420  -3.324  0.00  0.00    +0.004 A 
ATOM     15  C   UNL     1      -2.383   3.416  -2.441  0.00  0.00    +0.005 A 
ATOM     16  C   UNL     1      -1.565   3.116  -1.367  0.00  0.00    -0.024 A 
ATOM     17  C   UNL     1      -1.123   1.821  -1.176  0.00  0.00    +0.112 A 
ATOM     18  C   UNL     1      -1.494   0.826  -2.062  0.00  0.00    +0.032 A 
ATOM     19  C   UNL     1      -1.157   4.202  -0.406  0.00  0.00    +0.046 C 
ENDBRANCH   9  17
ENDBRANCH   7   9
ENDBRANCH   1   7
BRANCH   6  20
ATOM     20  C   UNL     1      -3.208   2.829   2.878  0.00  0.00    +0.342 C 
ATOM     21  O   UNL     1      -2.208   3.500   2.713  0.00  0.00    -0.245 OA
BRANCH  20  22
ATOM     22  O   UNL     1      -4.282   3.360   3.495  0.00  0.00    -0.449 OA
BRANCH  22  23
ATOM     23  C   UNL     1      -4.173   4.739   3.937  0.00  0.00    +0.259 C 
ATOM     24  C   UNL     1      -3.625   4.775   5.365  0.00  0.00    +0.062 C 
BRANCH  23  25
ATOM     25  C   UNL     1      -5.534   5.386   3.905  0.00  0.00    +0.258 C 
ATOM     26  O   UNL     1      -6.513   4.724   3.633  0.00  0.00    -0.271 OA
ATOM     27  N   UNL     1      -5.663   6.699   4.179  0.00  0.00    -0.281 N 
ATOM     28  H   UNL     1      -4.768   7.317   4.342  0.00  0.00    +0.155 HD
BRANCH  27  29
ATOM     29  C   UNL     1      -6.935   7.276   4.255  0.00  0.00    +0.064 A 
ATOM     30  C   UNL     1      -8.002   6.544   4.760  0.00  0.00    +0.025 A 
ATOM     31  C   UNL     1      -9.255   7.119   4.839  0.00  0.00    +0.002 A 
ATOM     32  C   UNL     1      -9.451   8.418   4.408  0.00  0.00    +0.002 A 
ATOM     33  C   UNL     1      -8.392   9.148   3.900  0.00  0.00    +0.034 A 
ATOM     34  C   UNL     1      -7.135   8.581   3.823  0.00  0.00    +0.147 A 
BRANCH  34  35
ATOM     35  N   UNL     1      -6.001   9.362   3.279  0.00  0.00    +0.058 N 
ATOM     36  O   UNL     1      -6.152  10.538   2.997  0.00  0.00    -0.126 OA
ATOM     37  O   UNL     1      -4.918   8.830   3.113  0.00  0.00    -0.126 OA
ENDBRANCH  34  35
ENDBRANCH  27  29
ENDBRANCH  23  25
ENDBRANCH  22  23
ENDBRANCH  20  22
ENDBRANCH   6  20
TORSDOF 9
