REMARK  Name = ZINC20885326
REMARK  6 active torsions:
REMARK  status: ('A' for Active; 'I' for Inactive)
REMARK    1  A    between atoms: C_1  and  C_2
REMARK    2  A    between atoms: C_2  and  C_3
REMARK    3  A    between atoms: C_2  and  N_4
REMARK    4  A    between atoms: N_12  and  N_13
REMARK    5  A    between atoms: C_14  and  C_16
REMARK    6  A    between atoms: C_18  and  N_24
REMARK                            x       y       z     vdW  Elec       q    Type
REMARK                         _______ _______ _______ _____ _____    ______ ____
ROOT
ATOM      1  N   UNL     1       0.200  -0.130  -5.366  0.00  0.00    -0.201 N 
ATOM      2  C   UNL     1       0.173  -0.108  -6.714  0.00  0.00    +0.283 C 
ATOM      3  O   UNL     1       1.026  -0.698  -7.348  0.00  0.00    -0.267 OA
ATOM      4  H   UNL     1      -0.481   0.341  -4.860  0.00  0.00    +0.178 HD
ENDROOT
BRANCH   1  13
ATOM      5  N   UNL     1       0.688  -0.476  -1.203  0.00  0.00    -0.263 N 
ATOM      6  C   UNL     1       1.831  -1.268  -1.194  0.00  0.00    +0.046 A 
ATOM      7  C   UNL     1       2.584  -1.792  -0.149  0.00  0.00    +0.024 A 
ATOM      8  C   UNL     1       3.698  -2.562  -0.416  0.00  0.00    +0.002 A 
ATOM      9  C   UNL     1       4.079  -2.823  -1.721  0.00  0.00    +0.001 A 
ATOM     10  C   UNL     1       3.344  -2.312  -2.772  0.00  0.00    +0.012 A 
ATOM     11  C   UNL     1       2.220  -1.535  -2.514  0.00  0.00    +0.028 A 
ATOM     12  C   UNL     1       1.236  -0.852  -3.386  0.00  0.00    +0.153 C 
ATOM     13  N   UNL     1       1.211  -0.831  -4.697  0.00  0.00    -0.174 NA
ATOM     14  C   UNL     1       0.288  -0.204  -2.457  0.00  0.00    +0.272 C 
ATOM     15  O   UNL     1      -0.681   0.460  -2.772  0.00  0.00    -0.268 OA
BRANCH   5  17
ATOM     16  C   UNL     1      -0.019   1.526   0.010  0.00  0.00    +0.028 C 
ATOM     17  C   UNL     1       0.002  -0.004   0.002  0.00  0.00    +0.076 C 
ATOM     18  C   UNL     1      -1.433  -0.534   0.013  0.00  0.00    +0.028 C 
ENDBRANCH   5  17
ENDBRANCH   1  13
BRANCH   2  19
ATOM     19  C   UNL     1      -0.894   0.632  -7.421  0.00  0.00    +0.149 A 
ATOM     20  C   UNL     1      -0.919   0.645  -8.813  0.00  0.00    +0.094 A 
ATOM     21  C   UNL     1      -1.933   1.349  -9.465  0.00  0.00    +0.067 A 
ATOM     22  C   UNL     1      -2.882   2.011  -8.689  0.00  0.00    +0.100 A 
ATOM     23  C   UNL     1      -2.790   1.952  -7.307  0.00  0.00    +0.150 A 
ATOM     24  N   UNL     1      -1.824   1.275  -6.721  0.00  0.00    -0.228 NA
ATOM     25 CL   UNL     1      -3.969   2.775  -6.335  0.00  0.00    -0.060 Cl
ATOM     26 CL   UNL     1      -4.166   2.903  -9.445  0.00  0.00    -0.078 Cl
ATOM     27 CL   UNL     1       0.293  -0.200  -9.724  0.00  0.00    -0.079 Cl
BRANCH  21  28
ATOM     28  N   UNL     1      -1.994   1.388 -10.856  0.00  0.00    -0.356 N 
ATOM     29  H   UNL     1      -1.327   0.922 -11.384  0.00  0.00    +0.142 HD
ATOM     30  H   UNL     1      -2.704   1.880 -11.297  0.00  0.00    +0.142 HD
ENDBRANCH  21  28
ENDBRANCH   2  19
TORSDOF 4
