REMARK  Name = ZINC20567247
REMARK  5 active torsions:
REMARK  status: ('A' for Active; 'I' for Inactive)
REMARK    1  A    between atoms: N_16  and  C_19
REMARK    2  A    between atoms: C_19  and  C_20
REMARK    3  A    between atoms: C_20  and  C_21
REMARK    4  A    between atoms: C_21  and  N_22
REMARK    5  A    between atoms: C_28  and  C_30
REMARK                            x       y       z     vdW  Elec       q    Type
REMARK                         _______ _______ _______ _____ _____    ______ ____
ROOT
ATOM      1  C   UNL     1      -1.198   1.744   0.017  0.00  0.00    +0.001 A 
ATOM      2  C   UNL     1      -1.236   3.137   0.032  0.00  0.00    +0.001 A 
ATOM      3  C   UNL     1      -0.089   3.870   0.023  0.00  0.00    +0.012 A 
ATOM      4  C   UNL     1       1.153   3.215   0.006  0.00  0.00    +0.025 A 
ATOM      5  C   UNL     1       1.193   1.799   0.000  0.00  0.00    -0.014 A 
ATOM      6  C   UNL     1      -0.013   1.076   0.008  0.00  0.00    +0.008 A 
ATOM      7  C   UNL     1       2.436   1.145  -0.013  0.00  0.00    +0.009 A 
ATOM      8  C   UNL     1       3.584   1.873  -0.022  0.00  0.00    +0.009 A 
ATOM      9  C   UNL     1       3.559   3.268  -0.019  0.00  0.00    +0.011 A 
ATOM     10  C   UNL     1       2.362   3.944  -0.007  0.00  0.00    +0.142 A 
ATOM     11  O   UNL     1       2.324   5.297  -0.007  0.00  0.00    -0.437 OA
ATOM     12  C   UNL     1       3.402   6.009   0.383  0.00  0.00    +0.229 A 
ATOM     13  C   UNL     1       4.644   5.450   0.391  0.00  0.00    +0.069 A 
ATOM     14  C   UNL     1       5.745   6.235   0.807  0.00  0.00    +0.115 A 
ATOM     15  N   UNL     1       6.962   5.733   0.831  0.00  0.00    -0.384 N 
ATOM     16  N   UNL     1       5.509   7.542   1.187  0.00  0.00    -0.318 N 
ATOM     17  C   UNL     1       4.243   8.027   1.152  0.00  0.00    +0.204 A 
ATOM     18  N   UNL     1       3.241   7.289   0.767  0.00  0.00    -0.202 NA
ATOM     19  C   UNL     1       4.861   4.026  -0.032  0.00  0.00    +0.127 C 
ATOM     20  H   UNL     1       7.808   6.357   1.157  0.00  0.00    +0.157 HD
ATOM     21  H   UNL     1       7.133   4.691   0.525  0.00  0.00    +0.157 HD
ENDROOT
BRANCH  19  22
ATOM     22  C   UNL     1       5.437   4.002  -1.425  0.00  0.00    +0.117 A 
ATOM     23  C   UNL     1       6.622   3.469  -1.777  0.00  0.00    +0.045 A 
ATOM     24  C   UNL     1       6.761   3.667  -3.170  0.00  0.00    +0.041 A 
ATOM     25  C   UNL     1       5.654   4.308  -3.585  0.00  0.00    +0.195 A 
ATOM     26  O   UNL     1       4.853   4.503  -2.525  0.00  0.00    -0.467 OA
ENDBRANCH  19  22
BRANCH  16  27
ATOM     27  C   UNL     1       6.616   8.396   1.625  0.00  0.00    +0.126 C 
BRANCH  27  28
ATOM     28  C   UNL     1       7.285   9.030   0.403  0.00  0.00    +0.037 C 
BRANCH  28  29
ATOM     29  C   UNL     1       8.441   9.922   0.860  0.00  0.00    +0.086 C 
BRANCH  29  30
ATOM     30  N   UNL     1       9.083  10.530  -0.313  0.00  0.00    -0.298 NA
ATOM     31  C   UNL     1       9.743   9.510  -1.141  0.00  0.00    +0.112 C 
ATOM     32  C   UNL     1      10.346  10.178  -2.380  0.00  0.00    +0.175 C 
ATOM     33  O   UNL     1      11.249  11.208  -1.968  0.00  0.00    -0.377 OA
ATOM     34  C   UNL     1      10.639  12.219  -1.161  0.00  0.00    +0.175 C 
ATOM     35  C   UNL     1      10.039  11.572   0.090  0.00  0.00    +0.112 C 
ENDBRANCH  29  30
ENDBRANCH  28  29
ENDBRANCH  27  28
ENDBRANCH  16  27
TORSDOF 5
