REMARK  Name = ZINC12812548
REMARK  10 active torsions:
REMARK  status: ('A' for Active; 'I' for Inactive)
REMARK    1  A    between atoms: C_1  and  C_2
REMARK    2  A    between atoms: C_2  and  C_3
REMARK    3  A    between atoms: C_3  and  N_4
REMARK    4  A    between atoms: C_5  and  C_27
REMARK    5  A    between atoms: C_8  and  S_9
REMARK    6  A    between atoms: S_9  and  C_10
REMARK    7  A    between atoms: C_10  and  C_11
REMARK    8  A    between atoms: C_11  and  C_12
REMARK    9  A    between atoms: N_14  and  N_15
REMARK   10  A    between atoms: C_27  and  C_28
REMARK                            x       y       z     vdW  Elec       q    Type
REMARK                         _______ _______ _______ _____ _____    ______ ____
ROOT
ATOM      1  C   UNL     1      -1.433  -0.534   0.013  0.00  0.00    +0.108 C 
ENDROOT
BRANCH   1   2
ATOM      2  C   UNL     1      -1.413  -2.041   0.005  0.00  0.00    +0.230 C 
ATOM      3  O   UNL     1      -0.354  -2.632  -0.009  0.00  0.00    -0.274 OA
ATOM      4  N   UNL     1      -2.571  -2.730   0.012  0.00  0.00    -0.224 N 
ATOM      5  H   UNL     1      -3.417  -2.257   0.023  0.00  0.00    +0.174 HD
BRANCH   4   6
ATOM      6  N   UNL     1      -2.552  -4.131   0.004  0.00  0.00    -0.137 N 
ATOM      7  C   UNL     1      -2.820  -4.899   1.081  0.00  0.00    +0.263 C 
ATOM      8  O   UNL     1      -3.112  -4.523   2.196  0.00  0.00    -0.271 OA
ATOM      9  C   UNL     1      -2.680  -6.326   0.603  0.00  0.00    +0.114 C 
ATOM     10  C   UNL     1      -4.004  -7.068   0.749  0.00  0.00    +0.035 C 
ATOM     11  C   UNL     1      -3.849  -8.501   0.235  0.00  0.00    +0.003 C 
ATOM     12  C   UNL     1      -2.756  -9.213   1.035  0.00  0.00    +0.000 C 
ATOM     13  C   UNL     1      -1.429  -8.472   0.859  0.00  0.00    +0.003 C 
ATOM     14  C   UNL     1      -1.574  -7.038   1.375  0.00  0.00    +0.035 C 
ATOM     15  N   UNL     1      -2.316  -6.194  -0.813  0.00  0.00    -0.284 N 
ATOM     16  C   UNL     1      -2.271  -4.874  -1.073  0.00  0.00    +0.326 C 
ATOM     17  O   UNL     1      -2.002  -4.409  -2.164  0.00  0.00    -0.251 OA
ATOM     18  H   UNL     1      -2.146  -6.916  -1.439  0.00  0.00    +0.151 HD
ENDBRANCH   4   6
ENDBRANCH   1   2
BRANCH   1  19
ATOM     19  C   UNL     1       0.002  -0.004   0.002  0.00  0.00    +0.086 C 
BRANCH  19  20
ATOM     20  S   UNL     1      -0.022   1.806   0.012  0.00  0.00    -0.086 S 
BRANCH  20  25
ATOM     21  N   UNL     1       2.301   3.366  -0.007  0.00  0.00    -0.306 N 
ATOM     22  C   UNL     1       3.647   3.128  -0.016  0.00  0.00    +0.138 A 
ATOM     23  N   UNL     1       3.813   1.836  -0.025  0.00  0.00    -0.133 NA
ATOM     24  N   UNL     1       2.672   1.244  -0.017  0.00  0.00    -0.122 NA
ATOM     25  C   UNL     1       1.708   2.135  -0.003  0.00  0.00    +0.192 A 
BRANCH  21  26
ATOM     26  C   UNL     1       1.632   4.669  -0.001  0.00  0.00    +0.125 C 
BRANCH  26  28
ATOM     27  C   UNL     1       0.714   6.484   1.450  0.00  0.00    +0.005 C 
ATOM     28  C   UNL     1       1.412   5.122   1.444  0.00  0.00    +0.018 C 
ENDBRANCH  26  28
ENDBRANCH  21  26
BRANCH  22  29
ATOM     29  C   UNL     1       4.737   4.169  -0.020  0.00  0.00    +0.111 C 
BRANCH  29  30
ATOM     30  C   UNL     1       5.087   4.524  -1.442  0.00  0.00    -0.040 A 
ATOM     31  C   UNL     1       6.077   3.825  -2.106  0.00  0.00    +0.004 A 
ATOM     32  C   UNL     1       6.394   4.148  -3.412  0.00  0.00    +0.000 A 
ATOM     33  C   UNL     1       5.728   5.177  -4.051  0.00  0.00    +0.000 A 
ATOM     34  C   UNL     1       4.741   5.880  -3.385  0.00  0.00    +0.000 A 
ATOM     35  C   UNL     1       4.420   5.553  -2.081  0.00  0.00    +0.004 A 
ENDBRANCH  29  30
ENDBRANCH  22  29
ENDBRANCH  20  25
ENDBRANCH  19  20
ENDBRANCH   1  19
TORSDOF 9
