REMARK  Name = ZINC64683977
REMARK  9 active torsions:
REMARK  status: ('A' for Active; 'I' for Inactive)
REMARK    1  A    between atoms: C_1  and  C_2
REMARK    2  A    between atoms: C_6  and  S_15
REMARK    3  A    between atoms: N_8  and  C_9
REMARK    4  A    between atoms: S_15  and  C_16
REMARK    5  A    between atoms: C_16  and  C_17
REMARK    6  A    between atoms: N_19  and  CA_20
REMARK    7  A    between atoms: CA_20  and  CB_22
REMARK    8  A    between atoms: CA_20  and  C_32
REMARK    9  A    between atoms: CB_22  and  CG_23
REMARK                            x       y       z     vdW  Elec       q    Type
REMARK                         _______ _______ _______ _____ _____    ______ ____
ROOT
ATOM      1  C   UNK A   0       2.007  -4.884   1.654  0.00  0.00    +0.224 C 
ATOM      2  O   UNK A   0       2.058  -5.162   2.833  0.00  0.00    -0.275 OA
ATOM      3  N   TRP A   1       2.580  -5.697   0.744  0.00  0.00    -0.301 N 
ATOM      4  H   TRP A   1       2.539  -5.474  -0.199  0.00  0.00    +0.150 HD
ENDROOT
BRANCH   1   5
ATOM      5  C   UNK A   0       1.304  -3.628   1.206  0.00  0.00    +0.167 C 
BRANCH   5   6
ATOM      6  S   UNK A   0       0.644  -2.756   2.653  0.00  0.00    -0.116 S 
BRANCH   6  11
ATOM      7  C   UNK A   0       0.057   1.525  -0.043  0.00  0.00    +0.042 C 
ATOM      8  C   UNK A   0       0.046  -0.005  -0.028  0.00  0.00    +0.138 C 
ATOM      9  N   UNK A   0      -1.341  -0.502   0.121  0.00  0.00    -0.238 NA
ATOM     10  N   UNK A   0      -1.216  -1.687   0.984  0.00  0.00    -0.229 NA
ATOM     11  C   UNK A   0      -0.160  -1.289   1.951  0.00  0.00    +0.200 C 
ATOM     12  N   UNK A   0       0.802  -0.506   1.139  0.00  0.00    -0.258 NA
ATOM     13  H   UNK A   0      -1.930   0.197   0.550  0.00  0.00    +0.142 HD
ATOM     14  H   UNK A   0      -0.931  -2.494   0.450  0.00  0.00    +0.143 HD
BRANCH  12  15
ATOM     15  C   UNK A   0       1.366   0.605   1.916  0.00  0.00    +0.060 C 
ATOM     16  C   UNK A   0       2.680   1.058   1.277  0.00  0.00    +0.019 C 
ATOM     17  C   UNK A   0       3.269   2.216   2.087  0.00  0.00    +0.002 C 
ATOM     18  C   UNK A   0       3.532   1.752   3.522  0.00  0.00    +0.000 C 
ATOM     19  C   UNK A   0       2.218   1.299   4.160  0.00  0.00    +0.002 C 
ATOM     20  C   UNK A   0       1.630   0.142   3.351  0.00  0.00    +0.019 C 
ENDBRANCH  12  15
ENDBRANCH   6  11
ENDBRANCH   5   6
ENDBRANCH   1   5
BRANCH   3  21
ATOM     21  CA  TRP A   1       3.263  -6.917   1.180  0.00  0.00    +0.190 C 
BRANCH  21  22
ATOM     22  C   TRP A   1       4.682  -6.588   1.565  0.00  0.00    +0.376 C 
ATOM     23  O   TRP A   1       5.249  -7.243   2.423  0.00  0.00    -0.244 OA
ATOM     24  OXT TRP A   1       5.264  -5.666   1.019  0.00  0.00    -0.244 OA
ENDBRANCH  21  22
BRANCH  21  25
ATOM     25  CB  TRP A   1       3.268  -7.935   0.037  0.00  0.00    +0.067 C 
BRANCH  25  26
ATOM     26  CG  TRP A   1       1.853  -8.357  -0.265  0.00  0.00    -0.039 C 
ATOM     27  CD2 TRP A   1       1.037  -7.844  -1.214  0.00  0.00    -0.001 A 
ATOM     28  CE3 TRP A   1       1.215  -6.780  -2.209  0.00  0.00    +0.010 A 
ATOM     29  CZ3 TRP A   1       0.192  -6.484  -3.043  0.00  0.00    +0.001 A 
ATOM     30  CH2 TRP A   1      -1.031  -7.165  -2.980  0.00  0.00    +0.002 A 
ATOM     31  CZ2 TRP A   1      -1.270  -8.155  -2.093  0.00  0.00    +0.026 A 
ATOM     32  CE2 TRP A   1      -0.264  -8.549  -1.169  0.00  0.00    +0.043 A 
ATOM     33  NE1 TRP A   1      -0.252  -9.462  -0.228  0.00  0.00    -0.380 N 
ATOM     34  CD1 TRP A   1       1.061  -9.444   0.426  0.00  0.00    +0.144 C 
ATOM     35  HE1 TRP A   1      -0.988 -10.054  -0.005  0.00  0.00    +0.160 HD
ENDBRANCH  25  26
ENDBRANCH  21  25
ENDBRANCH   3  21
TORSDOF 8
