REMARK  Name = ZINC06860716
REMARK  12 active torsions:
REMARK  status: ('A' for Active; 'I' for Inactive)
REMARK    1  A    between atoms: C_1  and  C_2
REMARK    2  A    between atoms: C_2  and  C_3
REMARK    3  A    between atoms: C_8  and  N_9
REMARK    4  A    between atoms: N_9  and  C_10
REMARK    5  A    between atoms: C_10  and  C_12
REMARK    6  A    between atoms: C_10  and  C_18
REMARK    7  A    between atoms: C_15  and  C_17
REMARK    8  A    between atoms: N_20  and  C_21
REMARK    9  A    between atoms: C_21  and  C_22
REMARK   10  A    between atoms: C_28  and  C_30
REMARK   11  A    between atoms: C_31  and  N_38
REMARK   12  A    between atoms: C_32  and  C_35
REMARK                            x       y       z     vdW  Elec       q    Type
REMARK                         _______ _______ _______ _____ _____    ______ ____
ROOT
ATOM      1  N   UNL     1      -1.621  -0.494  -2.027  0.00  0.00    -0.248 N 
ATOM      2  C   UNL     1      -1.385  -1.590  -2.775  0.00  0.00    +0.262 C 
ATOM      3  O   UNL     1      -1.341  -1.501  -3.989  0.00  0.00    -0.269 OA
ENDROOT
BRANCH   1   9
ATOM      4  C   UNL     1      -0.313  -0.669  -0.006  0.00  0.00    -0.026 A 
ATOM      5  C   UNL     1      -0.243  -0.738   1.372  0.00  0.00    +0.005 A 
ATOM      6  C   UNL     1      -1.401  -0.715   2.126  0.00  0.00    +0.000 A 
ATOM      7  C   UNL     1      -2.633  -0.622   1.505  0.00  0.00    +0.002 A 
ATOM      8  C   UNL     1      -2.710  -0.552   0.128  0.00  0.00    +0.024 A 
ATOM      9  C   UNL     1      -1.548  -0.570  -0.633  0.00  0.00    +0.041 A 
BRANCH   4  11
ATOM     10  C   UNL     1       1.447   0.737  -1.044  0.00  0.00    +0.009 C 
ATOM     11  C   UNL     1       0.951  -0.694  -0.827  0.00  0.00    +0.033 C 
ENDBRANCH   4  11
ENDBRANCH   1   9
BRANCH   2  12
ATOM     12  C   UNL     1      -1.183  -2.888  -2.129  0.00  0.00    +0.116 A 
ATOM     13  C   UNL     1      -0.795  -4.105  -2.691  0.00  0.00    +0.076 A 
ATOM     14  C   UNL     1      -0.703  -5.140  -1.763  0.00  0.00    +0.155 A 
ATOM     15  N   UNL     1      -0.974  -4.902  -0.497  0.00  0.00    -0.203 NA
ATOM     16  S   UNL     1      -1.358  -3.333  -0.413  0.00  0.00    +0.019 S 
BRANCH  14  17
ATOM     17  C   UNL     1      -0.305  -6.492  -2.196  0.00  0.00    +0.262 C 
ATOM     18  O   UNL     1       0.048  -6.684  -3.344  0.00  0.00    -0.269 OA
ATOM     19  N   UNL     1      -0.333  -7.516  -1.320  0.00  0.00    -0.324 N 
ATOM     20  H   UNL     1      -0.615  -7.363  -0.404  0.00  0.00    +0.145 HD
ATOM     21  H   UNL     1      -0.071  -8.405  -1.605  0.00  0.00    +0.145 HD
ENDBRANCH  14  17
BRANCH  13  22
ATOM     22  N   UNL     1      -0.528  -4.268  -4.044  0.00  0.00    -0.355 N 
ATOM     23  H   UNL     1      -0.523  -3.498  -4.634  0.00  0.00    +0.142 HD
ATOM     24  H   UNL     1      -0.347  -5.152  -4.399  0.00  0.00    +0.142 HD
ENDBRANCH  13  22
ENDBRANCH   2  12
BRANCH   1  25
ATOM     25  C   UNL     1      -1.955   0.777  -2.675  0.00  0.00    +0.233 C 
BRANCH  25  26
ATOM     26  C   UNL     1      -1.307   1.910  -1.922  0.00  0.00    +0.135 A 
ATOM     27  C   UNL     1      -0.747   3.002  -2.472  0.00  0.00    +0.047 A 
ATOM     28  C   UNL     1      -0.265   3.797  -1.407  0.00  0.00    +0.045 A 
ATOM     29  C   UNL     1      -0.560   3.143  -0.269  0.00  0.00    +0.102 A 
ATOM     30  O   UNL     1      -1.196   2.004  -0.587  0.00  0.00    -0.462 OA
ATOM     31  C   UNL     1      -0.236   3.612   1.126  0.00  0.00    +0.086 C 
ENDBRANCH  25  26
BRANCH  25  32
ATOM     32  C   UNL     1      -3.450   0.964  -2.675  0.00  0.00    +0.242 C 
ATOM     33  O   UNL     1      -4.167   0.118  -2.182  0.00  0.00    -0.273 OA
ATOM     34  N   UNL     1      -3.991   2.071  -3.221  0.00  0.00    -0.311 N 
ATOM     35  H   UNL     1      -3.418   2.747  -3.615  0.00  0.00    +0.149 HD
BRANCH  34  36
ATOM     36  C   UNL     1      -5.445   2.252  -3.221  0.00  0.00    +0.135 C 
BRANCH  36  37
ATOM     37  C   UNL     1      -5.794   3.580  -3.896  0.00  0.00    +0.135 C 
ATOM     38  C   UNL     1      -7.326   3.808  -3.875  0.00  0.00    +0.035 C 
ATOM     39  C   UNL     1      -7.395   5.357  -3.972  0.00  0.00    +0.031 C 
ATOM     40  C   UNL     1      -6.143   5.790  -3.180  0.00  0.00    +0.160 C 
ATOM     41  O   UNL     1      -5.239   4.678  -3.154  0.00  0.00    -0.375 OA
ENDBRANCH  36  37
ENDBRANCH  34  36
ENDBRANCH  25  32
ENDBRANCH   1  25
TORSDOF 10
