REMARK  Name = ZINC12596084
REMARK  6 active torsions:
REMARK  status: ('A' for Active; 'I' for Inactive)
REMARK    1  A    between atoms: C_6  and  C_7
REMARK    2  A    between atoms: C_7  and  C_11
REMARK    3  A    between atoms: C_11  and  O_13
REMARK    4  A    between atoms: O_13  and  C_14
REMARK    5  A    between atoms: C_14  and  C_15
REMARK    6  A    between atoms: N_17  and  C_18
REMARK                            x       y       z     vdW  Elec       q    Type
REMARK                         _______ _______ _______ _____ _____    ______ ____
ROOT
ATOM      1  C   UNL     1      -0.014   1.209   0.011  0.00  0.00    +0.255 C 
ATOM      2  O   UNL     1       0.002  -0.004   0.013  0.00  0.00    -0.272 OA
ATOM      3  N   UNL     1       1.143   1.898   0.001  0.00  0.00    -0.283 N 
ATOM      4  H   UNL     1       1.131   2.866  -0.068  0.00  0.00    +0.155 HD
ENDROOT
BRANCH   3   5
ATOM      5  C   UNL     1       2.365   1.218   0.092  0.00  0.00    +0.036 A 
ATOM      6  C   UNL     1       3.429   1.792   0.778  0.00  0.00    +0.025 A 
ATOM      7  C   UNL     1       4.633   1.123   0.875  0.00  0.00    +0.029 A 
ATOM      8  C   UNL     1       4.786  -0.118   0.278  0.00  0.00    +0.067 A 
ATOM      9  C   UNL     1       3.720  -0.695  -0.417  0.00  0.00    +0.069 A 
ATOM     10  C   UNL     1       2.511  -0.024  -0.508  0.00  0.00    +0.051 A 
ATOM     11  N   UNL     1       4.170  -1.923  -0.897  0.00  0.00    -0.306 N 
ATOM     12  H   UNL     1       3.649  -2.552  -1.420  0.00  0.00    +0.170 HD
ATOM     13  C   UNL     1       5.450  -2.087  -0.513  0.00  0.00    +0.325 A 
ATOM     14  O   UNL     1       6.139  -3.056  -0.769  0.00  0.00    -0.247 OA
ATOM     15  N   UNL     1       5.851  -1.016   0.197  0.00  0.00    -0.306 N 
ATOM     16  H   UNL     1       6.730  -0.889   0.586  0.00  0.00    +0.170 HD
ENDBRANCH   3   5
BRANCH   1  17
ATOM     17  C   UNL     1      -1.330   1.945   0.012  0.00  0.00    +0.328 C 
BRANCH  17  18
ATOM     18  O   UNL     1      -2.420   0.986   0.016  0.00  0.00    -0.455 OA
BRANCH  18  19
ATOM     19  C   UNL     1      -3.668   1.483   0.018  0.00  0.00    +0.318 C 
ATOM     20  O   UNL     1      -3.842   2.678   0.016  0.00  0.00    -0.250 OA
BRANCH  19  21
ATOM     21  C   UNL     1      -4.850   0.549   0.022  0.00  0.00    +0.093 C 
ATOM     22  C   UNL     1      -5.223   0.020  -1.373  0.00  0.00    +0.023 C 
ATOM     23  C   UNL     1      -6.130   1.254  -1.512  0.00  0.00    +0.003 C 
ATOM     24  C   UNL     1      -6.207   1.272   0.024  0.00  0.00    +0.023 C 
BRANCH  21  30
ATOM     25  C   UNL     1      -5.790  -0.759   1.939  0.00  0.00    +0.006 A 
ATOM     26  C   UNL     1      -5.692  -1.752   2.895  0.00  0.00    +0.020 A 
ATOM     27  C   UNL     1      -4.538  -2.509   2.990  0.00  0.00    +0.041 A 
ATOM     28  C   UNL     1      -3.486  -2.276   2.124  0.00  0.00    +0.020 A 
ATOM     29  C   UNL     1      -3.587  -1.286   1.164  0.00  0.00    +0.006 A 
ATOM     30  C   UNL     1      -4.740  -0.530   1.069  0.00  0.00    -0.031 A 
ATOM     31 CL   UNL     1      -4.412  -3.752   4.196  0.00  0.00    -0.084 Cl
ENDBRANCH  21  30
ENDBRANCH  19  21
ENDBRANCH  18  19
ENDBRANCH  17  18
ENDBRANCH   1  17
TORSDOF 6
