REMARK  Name = ZINC50705364
REMARK  6 active torsions:
REMARK  status: ('A' for Active; 'I' for Inactive)
REMARK    1  A    between atoms: C_1  and  O_2
REMARK    2  A    between atoms: O_2  and  C_3
REMARK    3  A    between atoms: C_8  and  N_10
REMARK    4  A    between atoms: C_11  and  C_13
REMARK    5  A    between atoms: C_15  and  N_21
REMARK    6  A    between atoms: C_16  and  N_20
REMARK                            x       y       z     vdW  Elec       q    Type
REMARK                         _______ _______ _______ _____ _____    ______ ____
ROOT
ATOM      1  C   UNL     1       2.018  -3.742   1.550  0.00  0.00    +0.040 A 
ATOM      2  C   UNL     1       2.408  -4.613   2.571  0.00  0.00    +0.047 A 
ATOM      3  C   UNL     1       3.565  -5.347   2.443  0.00  0.00    +0.149 A 
ATOM      4  C   UNL     1       4.347  -5.224   1.298  0.00  0.00    +0.074 A 
ATOM      5  C   UNL     1       3.961  -4.357   0.279  0.00  0.00    +0.065 A 
ATOM      6  C   UNL     1       2.801  -3.624   0.398  0.00  0.00    +0.035 A 
ATOM      7 CL   UNL     1       4.940  -4.205  -1.148  0.00  0.00    -0.082 Cl
ENDROOT
BRANCH   1   9
ATOM      8  N   UNL     1       0.400  -2.119   0.696  0.00  0.00    -0.306 N 
ATOM      9  C   UNL     1       0.778  -2.954   1.684  0.00  0.00    +0.244 C 
ATOM     10  O   UNL     1       0.098  -3.057   2.687  0.00  0.00    -0.270 OA
ATOM     11  H   UNL     1       0.943  -2.036  -0.103  0.00  0.00    +0.149 HD
BRANCH   8  16
ATOM     12  C   UNL     1      -0.746  -0.065  -0.041  0.00  0.00    +0.138 C 
ATOM     13  C   UNL     1      -1.461  -0.455  -1.358  0.00  0.00    +0.033 C 
ATOM     14  C   UNL     1      -2.634  -1.337  -0.862  0.00  0.00    +0.004 C 
ATOM     15  C   UNL     1      -2.031  -2.147   0.305  0.00  0.00    +0.025 C 
ATOM     16  C   UNL     1      -0.831  -1.336   0.830  0.00  0.00    +0.102 C 
BRANCH  12  18
ATOM     17  C   UNL     1       0.837   1.674  -0.506  0.00  0.00    +0.194 C 
ATOM     18  O   UNL     1       0.618   0.277  -0.294  0.00  0.00    -0.378 OA
ENDBRANCH  12  18
ENDBRANCH   8  16
ENDBRANCH   1   9
BRANCH   4  19
ATOM     19  N   UNL     1       5.516  -5.968   1.172  0.00  0.00    -0.355 N 
ATOM     20  H   UNL     1       5.721  -6.662   1.818  0.00  0.00    +0.142 HD
ATOM     21  H   UNL     1       6.126  -5.792   0.439  0.00  0.00    +0.142 HD
ENDBRANCH   4  19
BRANCH   3  22
ATOM     22  N   UNL     1       3.979  -6.269   3.525  0.00  0.00    +0.058 N 
ATOM     23  O   UNL     1       3.147  -6.907   4.127  0.00  0.00    -0.126 OA
ATOM     24  O   UNL     1       5.149  -6.384   3.806  0.00  0.00    -0.126 OA
ENDBRANCH   3  22
TORSDOF 5
