REMARK  Name = ZINC51885301
REMARK  8 active torsions:
REMARK  status: ('A' for Active; 'I' for Inactive)
REMARK    1  A    between atoms: C_1  and  C_2
REMARK    2  A    between atoms: C_2  and  C_3
REMARK    3  A    between atoms: C_3  and  C_5
REMARK    4  A    between atoms: C_3  and  C_6
REMARK    5  A    between atoms: C_6  and  C_8
REMARK    6  A    between atoms: C_6  and  N_18
REMARK    7  A    between atoms: C_13  and  C_16
REMARK    8  A    between atoms: C_16  and  O_17
REMARK                            x       y       z     vdW  Elec       q    Type
REMARK                         _______ _______ _______ _____ _____    ______ ____
ROOT
ATOM      1  C   UNL     1       0.636  -2.011  -1.315  0.00  0.00    +0.163 C 
ENDROOT
BRANCH   1   2
ATOM      2  C   UNL     1       1.438  -2.515  -2.488  0.00  0.00    +0.236 C 
ATOM      3  O   UNL     1       1.214  -2.092  -3.602  0.00  0.00    -0.274 OA
ATOM      4  N   UNL     1       2.403  -3.436  -2.297  0.00  0.00    -0.300 N 
ATOM      5  C   UNL     1       2.838  -3.966  -0.996  0.00  0.00    +0.108 C 
ATOM      6  C   UNL     1       3.941  -5.009  -1.272  0.00  0.00    +0.026 C 
ATOM      7  C   UNL     1       3.671  -5.420  -2.743  0.00  0.00    +0.033 C 
ATOM      8  C   UNL     1       3.194  -4.084  -3.360  0.00  0.00    +0.113 C 
BRANCH   7   9
ATOM      9  C   UNL     1       4.952  -5.914  -3.419  0.00  0.00    +0.161 C 
BRANCH   9  10
ATOM     10  O   UNL     1       5.374  -7.134  -2.806  0.00  0.00    -0.395 OA
ATOM     11  H   UNL     1       6.182  -7.505  -3.185  0.00  0.00    +0.209 HD
ENDBRANCH   9  10
ENDBRANCH   7   9
ENDBRANCH   1   2
BRANCH   1  12
ATOM     12  N   UNL     1      -0.756  -1.810  -1.726  0.00  0.00    -0.288 N 
ATOM     13  C   UNL     1      -1.048  -0.945  -2.717  0.00  0.00    +0.298 C 
ATOM     14  O   UNL     1      -0.156  -0.330  -3.270  0.00  0.00    -0.253 OA
ATOM     15  N   UNL     1      -2.328  -0.760  -3.095  0.00  0.00    -0.313 N 
ATOM     16  H   UNL     1      -1.467  -2.300  -1.285  0.00  0.00    +0.151 HD
ATOM     17  H   UNL     1      -3.040  -1.250  -2.653  0.00  0.00    +0.146 HD
ATOM     18  H   UNL     1      -2.539  -0.137  -3.808  0.00  0.00    +0.146 HD
ENDBRANCH   1  12
BRANCH   1  19
ATOM     19  C   UNL     1       1.221  -0.683  -0.831  0.00  0.00    +0.015 C 
ATOM     20  C   UNL     1       2.676  -0.892  -0.405  0.00  0.00    +0.010 C 
BRANCH  19  22
ATOM     21  C   UNL     1       0.915   1.213   0.767  0.00  0.00    +0.004 C 
ATOM     22  C   UNL     1       0.409  -0.173   0.361  0.00  0.00    +0.002 C 
ENDBRANCH  19  22
ENDBRANCH   1  19
TORSDOF 6
