REMARK  Name = ZINC20086830
REMARK  5 active torsions:
REMARK  status: ('A' for Active; 'I' for Inactive)
REMARK    1  A    between atoms: C_1  and  C_2
REMARK    2  A    between atoms: N_8  and  C_9
REMARK    3  A    between atoms: C_10  and  C_18
REMARK    4  A    between atoms: C_12  and  C_16
REMARK    5  A    between atoms: C_13  and  N_15
REMARK                            x       y       z     vdW  Elec       q    Type
REMARK                         _______ _______ _______ _____ _____    ______ ____
ROOT
ATOM      1  C   UNL     1      -2.345  -2.841   0.822  0.00  0.00    +0.064 C 
ATOM      2  C   UNL     1      -1.120  -2.075   0.394  0.00  0.00    +0.022 A 
ATOM      3  C   UNL     1      -1.142  -0.725   0.401  0.00  0.00    +0.068 A 
ATOM      4  C   UNL     1       0.002  -0.004   0.002  0.00  0.00    +0.141 A 
ATOM      5  C   UNL     1       1.126  -0.699  -0.392  0.00  0.00    +0.072 A 
ATOM      6  C   UNL     1       1.103  -2.100  -0.383  0.00  0.00    +0.259 A 
ATOM      7  O   UNL     1       2.091  -2.728  -0.728  0.00  0.00    -0.267 OA
ATOM      8  N   UNL     1      -0.008  -2.753   0.006  0.00  0.00    -0.315 N 
ATOM      9  C   UNL     1      -0.018  -4.218   0.011  0.00  0.00    +0.152 C 
ATOM     10  C   UNL     1       2.367   0.030  -0.828  0.00  0.00    +0.105 C 
ATOM     11  C   UNL     1       2.307   1.465  -0.384  0.00  0.00    +0.098 C 
ATOM     12  C   UNL     1       1.140   2.032   0.002  0.00  0.00    +0.199 C 
ATOM     13  O   UNL     1      -0.016   1.346   0.009  0.00  0.00    -0.441 OA
ENDROOT
BRANCH  10  14
ATOM     14  C   UNL     1       2.477  -0.025  -2.330  0.00  0.00    -0.010 A 
ATOM     15  C   UNL     1       1.586   0.451  -3.213  0.00  0.00    +0.088 A 
ATOM     16  N   UNL     1       2.026   0.223  -4.489  0.00  0.00    -0.360 N 
ATOM     17  H   UNL     1       1.421   0.554  -5.346  0.00  0.00    +0.165 HD
ATOM     18  C   UNL     1       3.238  -0.429  -4.456  0.00  0.00    +0.047 A 
ATOM     19  C   UNL     1       3.574  -0.613  -3.102  0.00  0.00    +0.004 A 
ATOM     20  C   UNL     1       4.766  -1.254  -2.761  0.00  0.00    +0.010 A 
ATOM     21  C   UNL     1       5.602  -1.700  -3.746  0.00  0.00    +0.001 A 
ATOM     22  C   UNL     1       5.275  -1.522  -5.083  0.00  0.00    +0.002 A 
ATOM     23  C   UNL     1       4.104  -0.891  -5.442  0.00  0.00    +0.026 A 
ENDBRANCH  10  14
BRANCH  12  24
ATOM     24  N   UNL     1       1.136   3.346   0.398  0.00  0.00    -0.328 N 
ATOM     25  H   UNL     1       0.197   3.823   0.715  0.00  0.00    +0.145 HD
ATOM     26  H   UNL     1       2.073   3.923   0.398  0.00  0.00    +0.145 HD
ENDBRANCH  12  24
BRANCH  11  27
ATOM     27  C   UNL     1       3.507   2.247  -0.370  0.00  0.00    +0.101 C 
ATOM     28  N   UNL     1       4.458   2.867  -0.359  0.00  0.00    -0.191 NA
ENDBRANCH  11  27
TORSDOF 3
