REMARK  Name = ZINC59853992
REMARK  8 active torsions:
REMARK  status: ('A' for Active; 'I' for Inactive)
REMARK    1  A    between atoms: C_1  and  C_2
REMARK    2  A    between atoms: C_2  and  N_3
REMARK    3  A    between atoms: N_3  and  C_4
REMARK    4  A    between atoms: C_4  and  C_5
REMARK    5  A    between atoms: N_18  and  C_19
REMARK    6  A    between atoms: C_19  and  C_21
REMARK    7  A    between atoms: C_19  and  C_22
REMARK    8  A    between atoms: C_22  and  C_23
REMARK                            x       y       z     vdW  Elec       q    Type
REMARK                         _______ _______ _______ _____ _____    ______ ____
ROOT
ATOM      1  N   UNL     1      -1.372  -0.511   0.012  0.00  0.00    -0.282 N 
ATOM      2  C   UNL     1      -1.993  -0.751   1.184  0.00  0.00    +0.303 C 
ATOM      3  O   UNL     1      -3.134  -1.171   1.193  0.00  0.00    -0.253 OA
ATOM      4  N   UNL     1      -1.350  -0.524   2.347  0.00  0.00    -0.296 N 
ATOM      5  H   UNL     1      -0.440  -0.188   2.340  0.00  0.00    +0.151 HD
ENDROOT
BRANCH   1   7
ATOM      6  C   UNL     1      -0.019   1.526   0.010  0.00  0.00    +0.024 C 
ATOM      7  C   UNL     1       0.002  -0.004   0.002  0.00  0.00    +0.106 C 
ENDBRANCH   1   7
BRANCH   4   8
ATOM      8  C   UNL     1      -2.025  -0.784   3.620  0.00  0.00    +0.076 C 
ATOM      9  C   UNL     1      -1.866  -2.260   3.990  0.00  0.00    +0.028 C 
BRANCH   8  10
ATOM     10  C   UNL     1      -1.403   0.086   4.715  0.00  0.00    +0.063 C 
BRANCH  10  11
ATOM     11  C   UNL     1      -1.667   1.538   4.413  0.00  0.00    +0.025 A 
ATOM     12  C   UNL     1      -0.771   2.260   3.644  0.00  0.00    +0.129 A 
ATOM     13  C   UNL     1      -1.015   3.595   3.368  0.00  0.00    +0.039 A 
ATOM     14  C   UNL     1      -2.153   4.206   3.859  0.00  0.00    +0.006 A 
ATOM     15  C   UNL     1      -3.048   3.486   4.627  0.00  0.00    +0.039 A 
ATOM     16  C   UNL     1      -2.809   2.150   4.899  0.00  0.00    +0.129 A 
ATOM     17  F   UNL     1      -3.688   1.445   5.645  0.00  0.00    -0.205 F 
ATOM     18  F   UNL     1       0.342   1.663   3.164  0.00  0.00    -0.205 F 
ENDBRANCH  10  11
ENDBRANCH   8  10
ENDBRANCH   4   8
BRANCH   1  19
ATOM     19  C   UNL     1      -2.072  -0.758  -1.251  0.00  0.00    +0.157 C 
BRANCH  19  20
ATOM     20  C   UNL     1      -1.816  -2.197  -1.703  0.00  0.00    +0.228 C 
ATOM     21  C   UNL     1      -2.534  -2.457  -3.034  0.00  0.00    +0.275 C 
ATOM     22  O   UNL     1      -2.263  -3.805  -3.434  0.00  0.00    -0.485 OA
ATOM     23  C   UNL     1      -0.969  -4.218  -3.352  0.00  0.00    +0.162 A 
ATOM     24  C   UNL     1      -0.572  -5.352  -4.044  0.00  0.00    +0.049 A 
ATOM     25  C   UNL     1       0.738  -5.787  -3.968  0.00  0.00    +0.004 A 
ATOM     26  C   UNL     1       1.656  -5.092  -3.202  0.00  0.00    +0.004 A 
ATOM     27  C   UNL     1       1.267  -3.961  -2.511  0.00  0.00    +0.049 A 
ATOM     28  C   UNL     1      -0.046  -3.519  -2.584  0.00  0.00    +0.163 A 
ATOM     29  O   UNL     1      -0.412  -2.398  -1.903  0.00  0.00    -0.480 OA
ENDBRANCH  19  20
ENDBRANCH   1  19
TORSDOF 6
