REMARK  Name = ZINC21722961
REMARK  7 active torsions:
REMARK  status: ('A' for Active; 'I' for Inactive)
REMARK    1  A    between atoms: C_1  and  C_2
REMARK    2  A    between atoms: C_2  and  C_3
REMARK    3  A    between atoms: C_3  and  N_4
REMARK    4  A    between atoms: C_17  and  C_19
REMARK    5  A    between atoms: C_22  and  O_25
REMARK    6  A    between atoms: O_25  and  C_26
REMARK    7  A    between atoms: C_30  and  C_33
REMARK                            x       y       z     vdW  Elec       q    Type
REMARK                         _______ _______ _______ _____ _____    ______ ____
ROOT
ATOM      1  N   UNL     1       5.702   8.336   2.775  0.00  0.00    -0.299 N 
ATOM      2  C   UNL     1       5.400   7.878   1.544  0.00  0.00    +0.307 C 
ATOM      3  O   UNL     1       6.263   7.817   0.689  0.00  0.00    -0.252 OA
ATOM      4  N   UNL     1       4.141   7.488   1.260  0.00  0.00    -0.242 N 
ATOM      5  C   UNL     1       3.159   7.563   2.249  0.00  0.00    +0.060 A 
ATOM      6  C   UNL     1       2.749   8.779   2.773  0.00  0.00    +0.025 A 
ATOM      7  C   UNL     1       1.739   8.806   3.718  0.00  0.00    +0.002 A 
ATOM      8  C   UNL     1       1.139   7.631   4.136  0.00  0.00    +0.002 A 
ATOM      9  C   UNL     1       1.558   6.414   3.628  0.00  0.00    +0.025 A 
ATOM     10  C   UNL     1       2.584   6.384   2.699  0.00  0.00    +0.053 A 
ATOM     11  N   UNL     1       3.131   5.194   2.234  0.00  0.00    -0.316 N 
ATOM     12  C   UNL     1       3.104   4.779   0.942  0.00  0.00    +0.017 C 
ATOM     13  C   UNL     1       3.411   5.548  -0.116  0.00  0.00    +0.037 C 
ATOM     14  C   UNL     1       3.828   6.999  -0.066  0.00  0.00    +0.148 C 
ATOM     15  C   UNL     1       3.347   5.017  -1.426  0.00  0.00    +0.163 C 
ATOM     16  O   UNL     1       3.654   5.728  -2.362  0.00  0.00    -0.292 OA
ATOM     17  C   UNL     1       2.913   3.608  -1.699  0.00  0.00    +0.091 C 
ATOM     18  C   UNL     1       1.964   3.163  -0.580  0.00  0.00    +0.068 C 
ATOM     19  C   UNL     1       2.703   3.326   0.748  0.00  0.00    +0.063 C 
ATOM     20  H   UNL     1       4.922   8.391   3.548  0.00  0.00    +0.150 HD
ATOM     21  H   UNL     1       3.631   4.508   2.934  0.00  0.00    +0.152 HD
ENDROOT
BRANCH  14  22
ATOM     22  C   UNL     1       2.710   7.837  -0.629  0.00  0.00    -0.022 A 
ATOM     23  C   UNL     1       1.481   7.863   0.004  0.00  0.00    +0.009 A 
ATOM     24  C   UNL     1       0.456   8.635  -0.507  0.00  0.00    +0.046 A 
ATOM     25  C   UNL     1       0.656   9.376  -1.663  0.00  0.00    +0.120 A 
ATOM     26  C   UNL     1       1.889   9.343  -2.299  0.00  0.00    +0.046 A 
ATOM     27  C   UNL     1       2.912   8.574  -1.781  0.00  0.00    +0.009 A 
BRANCH  25  28
ATOM     28  O   UNL     1      -0.352  10.132  -2.171  0.00  0.00    -0.495 OA
ATOM     29  C   UNL     1      -1.593  10.117  -1.463  0.00  0.00    +0.277 C 
ENDBRANCH  25  28
ENDBRANCH  14  22
BRANCH  18  30
ATOM     30  C   UNL     1       1.583   1.719  -0.778  0.00  0.00    +0.109 A 
ATOM     31  C   UNL     1       0.331   1.248  -0.921  0.00  0.00    +0.045 A 
ATOM     32  C   UNL     1       0.435  -0.153  -1.079  0.00  0.00    +0.041 A 
ATOM     33  C   UNL     1       1.745  -0.455  -1.023  0.00  0.00    +0.195 A 
ATOM     34  O   UNL     1       2.435   0.683  -0.841  0.00  0.00    -0.468 OA
ENDBRANCH  18  30
BRANCH   1  35
ATOM     35  C   UNL     1       7.071   8.759   3.083  0.00  0.00    +0.105 C 
BRANCH  35  37
ATOM     36  C   UNL     1       8.572   9.674   4.859  0.00  0.00    +0.005 C 
ATOM     37  C   UNL     1       7.143   9.232   4.537  0.00  0.00    +0.015 C 
ENDBRANCH  35  37
ENDBRANCH   1  35
TORSDOF 5
