REMARK  Name = ZINC63039314
REMARK  7 active torsions:
REMARK  status: ('A' for Active; 'I' for Inactive)
REMARK    1  A    between atoms: C_1  and  C_2
REMARK    2  A    between atoms: C_2  and  C_3
REMARK    3  A    between atoms: C_2  and  C_4
REMARK    4  A    between atoms: C_4  and  C_6
REMARK    5  A    between atoms: C_4  and  O_17
REMARK    6  A    between atoms: C_6  and  C_7
REMARK    7  A    between atoms: C_10  and  N_14
REMARK                            x       y       z     vdW  Elec       q    Type
REMARK                         _______ _______ _______ _____ _____    ______ ____
ROOT
ATOM      1  C   UNL     1       2.820  -0.350  -2.564  0.00  0.00    -0.026 A 
ATOM      2  C   UNL     1       3.588  -1.498  -2.634  0.00  0.00    +0.007 A 
ATOM      3  C   UNL     1       4.200  -1.849  -3.823  0.00  0.00    +0.033 A 
ATOM      4  C   UNL     1       4.045  -1.052  -4.942  0.00  0.00    +0.128 A 
ATOM      5  C   UNL     1       3.277   0.095  -4.873  0.00  0.00    +0.053 A 
ATOM      6  C   UNL     1       2.660   0.444  -3.685  0.00  0.00    +0.046 A 
ATOM      7 CL   UNL     1       1.690   1.881  -3.600  0.00  0.00    -0.083 Cl
ENDROOT
BRANCH   4   8
ATOM      8  N   UNL     1       4.701  -1.428  -6.214  0.00  0.00    +0.056 N 
ATOM      9  O   UNL     1       5.373  -2.431  -6.274  0.00  0.00    -0.126 OA
ATOM     10  O   UNL     1       4.566  -0.732  -7.193  0.00  0.00    -0.126 OA
ENDBRANCH   4   8
BRANCH   1  11
ATOM     11  C   UNL     1       2.154   0.032  -1.268  0.00  0.00    +0.068 C 
BRANCH  11  12
ATOM     12  C   UNL     1       0.718  -0.497  -1.257  0.00  0.00    +0.121 C 
BRANCH  12  14
ATOM     13  C   UNL     1      -0.019   1.526   0.010  0.00  0.00    +0.010 C 
ATOM     14  C   UNL     1       0.002  -0.004   0.002  0.00  0.00    +0.012 C 
ATOM     15  C   UNL     1      -1.433  -0.534   0.013  0.00  0.00    +0.010 C 
ENDBRANCH  12  14
BRANCH  12  16
ATOM     16  O   UNL     1       0.738  -1.926  -1.265  0.00  0.00    -0.391 OA
ATOM     17  H   UNL     1       1.192  -2.318  -0.506  0.00  0.00    +0.210 HD
ENDBRANCH  12  16
ENDBRANCH  11  12
ENDBRANCH   1  11
TORSDOF 5
