REMARK  Name = ZINC01840640
REMARK  5 active torsions:
REMARK  status: ('A' for Active; 'I' for Inactive)
REMARK    1  A    between atoms: C_4  and  C_7
REMARK    2  A    between atoms: C_7  and  N_8
REMARK    3  A    between atoms: C_16  and  C_20
REMARK    4  A    between atoms: C_16  and  N_24
REMARK    5  A    between atoms: C_25  and  C_27
REMARK                            x       y       z     vdW  Elec       q    Type
REMARK                         _______ _______ _______ _____ _____    ______ ____
ROOT
ATOM      1  N   UNL     1       3.050  -1.296   1.021  0.00  0.00    -0.277 N 
ATOM      2  C   UNL     1       3.062  -2.390   1.860  0.00  0.00    +0.121 A 
ATOM      3  C   UNL     1       3.806  -2.324   3.001  0.00  0.00    +0.096 A 
ATOM      4  C   UNL     1       4.534  -1.165   3.301  0.00  0.00    +0.262 A 
ATOM      5  N   UNL     1       4.491  -0.119   2.449  0.00  0.00    -0.275 N 
ATOM      6  C   UNL     1       3.759  -0.195   1.323  0.00  0.00    +0.331 A 
ATOM      7  O   UNL     1       3.735   0.755   0.564  0.00  0.00    -0.246 OA
ATOM      8  O   UNL     1       5.200  -1.103   4.320  0.00  0.00    -0.267 OA
ATOM      9  C   UNL     1       3.631  -3.646   3.709  0.00  0.00    +0.240 C 
ATOM     10  C   UNL     1       2.700  -4.416   2.794  0.00  0.00    +0.256 C 
ATOM     11  O   UNL     1       2.281  -5.542   2.965  0.00  0.00    -0.272 OA
ATOM     12  N   UNL     1       2.430  -3.605   1.756  0.00  0.00    -0.269 N 
ATOM     13  H   UNL     1       4.992   0.688   2.648  0.00  0.00    +0.173 HD
ATOM     14  H   UNL     1       1.853  -3.851   1.016  0.00  0.00    +0.156 HD
ENDROOT
BRANCH   9  15
ATOM     15  C   UNL     1       4.973  -4.368   3.843  0.00  0.00    +0.424 C 
ATOM     16  F   UNL     1       5.818  -3.631   4.680  0.00  0.00    -0.167 F 
ATOM     17  F   UNL     1       4.767  -5.638   4.390  0.00  0.00    -0.167 F 
ATOM     18  F   UNL     1       5.562  -4.494   2.580  0.00  0.00    -0.167 F 
ENDBRANCH   9  15
BRANCH   9  19
ATOM     19  N   UNL     1       3.016  -3.449   5.024  0.00  0.00    -0.290 N 
ATOM     20  C   UNL     1       1.837  -2.804   5.127  0.00  0.00    +0.217 C 
ATOM     21  O   UNL     1       1.241  -2.466   4.126  0.00  0.00    -0.275 OA
ATOM     22  H   UNL     1       3.457  -3.784   5.821  0.00  0.00    +0.150 HD
BRANCH  20  23
ATOM     23  C   UNL     1       1.260  -2.502   6.486  0.00  0.00    +0.075 C 
ATOM     24  C   UNL     1       1.033  -3.810   7.246  0.00  0.00    +0.013 C 
ATOM     25  C   UNL     1       0.447  -3.503   8.626  0.00  0.00    +0.001 C 
ATOM     26  C   UNL     1      -0.886  -2.771   8.462  0.00  0.00    +0.000 C 
ATOM     27  C   UNL     1      -0.659  -1.462   7.702  0.00  0.00    +0.001 C 
ATOM     28  C   UNL     1      -0.073  -1.769   6.322  0.00  0.00    +0.013 C 
ENDBRANCH  20  23
ENDBRANCH   9  19
BRANCH   1  29
ATOM     29  C   UNL     1       2.261  -1.335  -0.213  0.00  0.00    +0.163 C 
BRANCH  29  33
ATOM     30  C   UNL     1      -1.683   0.108   0.569  0.00  0.00    +0.000 A 
ATOM     31  C   UNL     1      -0.689   0.988   0.180  0.00  0.00    +0.000 A 
ATOM     32  C   UNL     1       0.587   0.520  -0.072  0.00  0.00    +0.005 A 
ATOM     33  C   UNL     1       0.870  -0.826   0.064  0.00  0.00    -0.028 A 
ATOM     34  C   UNL     1      -0.123  -1.705   0.453  0.00  0.00    +0.005 A 
ATOM     35  C   UNL     1      -1.400  -1.238   0.704  0.00  0.00    +0.000 A 
ENDBRANCH  29  33
ENDBRANCH   1  29
TORSDOF 5
