REMARK  Name = ZINC35946403
REMARK  16 active torsions:
REMARK  status: ('A' for Active; 'I' for Inactive)
REMARK    1  A    between atoms: C_1  and  C_2
REMARK    2  A    between atoms: C_2  and  C_4
REMARK    3  A    between atoms: C_2  and  N_10
REMARK    4  A    between atoms: N_10  and  C_11
REMARK    5  A    between atoms: C_11  and  C_12
REMARK    6  A    between atoms: C_14  and  N_21
REMARK    7  A    between atoms: C_17  and  N_18
REMARK    8  A    between atoms: N_18  and  C_19
REMARK    9  A    between atoms: N_18  and  C_20
REMARK   10  A    between atoms: N_24  and  C_25
REMARK   11  A    between atoms: C_25  and  C_26
REMARK   12  A    between atoms: C_25  and  C_27
REMARK   13  A    between atoms: N_30  and  C_31
REMARK   14  A    between atoms: C_31  and  C_32
REMARK   15  A    between atoms: C_31  and  C_33
REMARK   16  A    between atoms: C_31  and  C_34
REMARK                            x       y       z     vdW  Elec       q    Type
REMARK                         _______ _______ _______ _____ _____    ______ ____
ROOT
ATOM      1  C   UNL     1       2.201  -0.603   1.221  0.00  0.00    +0.147 C 
ENDROOT
BRANCH   1   2
ATOM      2  C   UNL     1       3.230   0.497   1.189  0.00  0.00    -0.007 A 
ATOM      3  C   UNL     1       3.518   1.139   0.000  0.00  0.00    +0.030 A 
ATOM      4  C   UNL     1       4.466   2.152  -0.029  0.00  0.00    +0.035 A 
ATOM      5  C   UNL     1       5.125   2.522   1.136  0.00  0.00    +0.025 A 
ATOM      6  C   UNL     1       4.837   1.881   2.324  0.00  0.00    +0.025 A 
ATOM      7  C   UNL     1       3.885   0.870   2.355  0.00  0.00    +0.034 A 
BRANCH   4   8
ATOM      8  N   UNL     1       4.759   2.803  -1.236  0.00  0.00    -0.269 N 
ATOM      9  C   UNL     1       5.024   4.125  -1.242  0.00  0.00    +0.304 C 
ATOM     10  O   UNL     1       5.088   4.737  -0.194  0.00  0.00    -0.253 OA
ATOM     11  N   UNL     1       5.218   4.768  -2.411  0.00  0.00    -0.297 N 
ATOM     12  H   UNL     1       4.771   2.302  -2.067  0.00  0.00    +0.156 HD
ATOM     13  H   UNL     1       5.166   4.279  -3.248  0.00  0.00    +0.151 HD
BRANCH  11  14
ATOM     14  C   UNL     1       5.505   6.204  -2.418  0.00  0.00    +0.068 C 
ATOM     15  C   UNL     1       7.006   6.424  -2.216  0.00  0.00    +0.027 C 
ATOM     16  C   UNL     1       5.077   6.804  -3.759  0.00  0.00    +0.027 C 
ENDBRANCH  11  14
ENDBRANCH   4   8
BRANCH   7  17
ATOM     17  N   UNL     1       3.589   0.225   3.561  0.00  0.00    -0.336 N 
ATOM     18  C   UNL     1       2.643   0.829   4.503  0.00  0.00    +0.129 C 
ATOM     19  C   UNL     1       4.225  -1.056   3.881  0.00  0.00    +0.129 C 
ENDBRANCH   7  17
ENDBRANCH   1   2
BRANCH   1  20
ATOM     20  N   UNL     1       0.913  -0.055   1.650  0.00  0.00    -0.274 N 
ATOM     21  C   UNL     1       0.340   0.946   0.952  0.00  0.00    +0.303 C 
ATOM     22  O   UNL     1       0.841   1.325  -0.089  0.00  0.00    -0.253 OA
ATOM     23  N   UNL     1      -0.789   1.525   1.407  0.00  0.00    -0.294 N 
ATOM     24  H   UNL     1      -1.147   1.275   2.273  0.00  0.00    +0.151 HD
BRANCH  23  25
ATOM     25  C   UNL     1      -1.474   2.532   0.593  0.00  0.00    +0.028 C 
ATOM     26  C   UNL     1      -1.846   1.927  -0.761  0.00  0.00    +0.031 C 
ATOM     27  C   UNL     1      -2.744   2.991   1.313  0.00  0.00    +0.031 C 
ATOM     28  C   UNL     1      -0.548   3.731   0.379  0.00  0.00    +0.031 C 
ENDBRANCH  23  25
BRANCH  20  30
ATOM     29  C   UNL     1       1.117  -1.688   3.460  0.00  0.00    +0.033 C 
ATOM     30  C   UNL     1       0.247  -0.593   2.839  0.00  0.00    +0.105 C 
BRANCH  30  31
ATOM     31  C   UNL     1      -1.087  -1.175   2.447  0.00  0.00    -0.027 A 
ATOM     32  C   UNL     1      -1.188  -1.983   1.330  0.00  0.00    +0.005 A 
ATOM     33  C   UNL     1      -2.411  -2.517   0.971  0.00  0.00    +0.000 A 
ATOM     34  C   UNL     1      -3.534  -2.242   1.728  0.00  0.00    +0.000 A 
ATOM     35  C   UNL     1      -3.434  -1.434   2.845  0.00  0.00    +0.000 A 
ATOM     36  C   UNL     1      -2.210  -0.904   3.207  0.00  0.00    +0.005 A 
ENDBRANCH  30  31
ENDBRANCH  20  30
ENDBRANCH   1  20
TORSDOF 8
