REMARK  Name = ZINC62824766
REMARK  8 active torsions:
REMARK  status: ('A' for Active; 'I' for Inactive)
REMARK    1  A    between atoms: C_1  and  C_2
REMARK    2  A    between atoms: C_2  and  N_3
REMARK    3  A    between atoms: N_3  and  C_4
REMARK    4  A    between atoms: C_4  and  C_5
REMARK    5  A    between atoms: C_5  and  C_6
REMARK    6  A    between atoms: C_6  and  N_7
REMARK    7  A    between atoms: N_10  and  C_11
REMARK    8  A    between atoms: C_16  and  C_17
REMARK                            x       y       z     vdW  Elec       q    Type
REMARK                         _______ _______ _______ _____ _____    ______ ____
ROOT
ATOM      1  N   UNL     1      -4.159  -4.543   0.049  0.00  0.00    -0.299 N 
ATOM      2  C   UNL     1      -4.383  -5.872   0.027  0.00  0.00    +0.304 C 
ATOM      3  O   UNL     1      -3.446  -6.646  -0.000  0.00  0.00    -0.253 OA
ATOM      4  N   UNL     1      -5.646  -6.342   0.035  0.00  0.00    -0.269 N 
ATOM      5  H   UNL     1      -4.906  -3.925   0.071  0.00  0.00    +0.150 HD
ATOM      6  H   UNL     1      -6.392  -5.728   0.122  0.00  0.00    +0.156 HD
ENDROOT
BRANCH   4   7
ATOM      7  C   UNL     1      -5.880  -7.709  -0.082  0.00  0.00    +0.049 A 
ATOM      8  C   UNL     1      -5.004  -8.619   0.495  0.00  0.00    +0.025 A 
ATOM      9  C   UNL     1      -5.238  -9.974   0.379  0.00  0.00    +0.016 A 
ATOM     10  C   UNL     1      -6.346 -10.439  -0.313  0.00  0.00    +0.014 A 
ATOM     11  C   UNL     1      -7.227  -9.552  -0.893  0.00  0.00    +0.031 A 
ATOM     12  C   UNL     1      -7.007  -8.175  -0.779  0.00  0.00    +0.085 A 
ATOM     13  I   UNL     1      -6.683 -12.500  -0.478  0.00  0.00    -0.044 I 
BRANCH  12  14
ATOM     14  C   UNL     1      -7.946  -7.222  -1.390  0.00  0.00    +0.388 C 
ATOM     15  O   UNL     1      -8.976  -7.627  -1.911  0.00  0.00    -0.241 OA
ATOM     16  O   UNL     1      -7.697  -6.024  -1.377  0.00  0.00    -0.241 OA
ENDBRANCH  12  14
ENDBRANCH   4   7
BRANCH   1  17
ATOM     17  C   UNL     1      -2.786  -4.032   0.041  0.00  0.00    +0.104 C 
BRANCH  17  18
ATOM     18  C   UNL     1      -2.811  -2.502   0.070  0.00  0.00    -0.000 C 
BRANCH  18  19
ATOM     19  C   UNL     1      -1.377  -1.968   0.061  0.00  0.00    -0.081 C 
BRANCH  19  20
ATOM     20  N   UNL     1      -1.401  -0.500   0.090  0.00  0.00    +0.379 N 
ATOM     21  H   UNL     1      -1.871  -0.187   0.926  0.00  0.00    -0.086 HD
ATOM     22  H   UNL     1      -1.894  -0.156  -0.721  0.00  0.00    -0.086 HD
BRANCH  20  24
ATOM     23  C   UNL     1      -0.050   1.542   0.111  0.00  0.00    -0.017 C 
ATOM     24  C   UNL     1      -0.025   0.013   0.081  0.00  0.00    -0.086 C 
ENDBRANCH  20  24
ENDBRANCH  19  20
ENDBRANCH  18  19
ENDBRANCH  17  18
ENDBRANCH   1  17
TORSDOF 7
