REMARK  Name = ZINC15670135
REMARK  8 active torsions:
REMARK  status: ('A' for Active; 'I' for Inactive)
REMARK    1  A    between atoms: C_1  and  C_2
REMARK    2  A    between atoms: C_5  and  C_8
REMARK    3  A    between atoms: C_17  and  C_19
REMARK    4  A    between atoms: C_20  and  C_26
REMARK    5  A    between atoms: C_31  and  O_32
REMARK    6  A    between atoms: O_32  and  C_33
REMARK    7  A    between atoms: C_33  and  C_34
REMARK    8  A    between atoms: C_33  and  C_35
REMARK                            x       y       z     vdW  Elec       q    Type
REMARK                         _______ _______ _______ _____ _____    ______ ____
ROOT
ATOM      1  C   UNL     1       3.110  -4.328  -4.760  0.00  0.00    +0.095 A 
ATOM      2  C   UNL     1       4.010  -5.081  -3.998  0.00  0.00    +0.163 A 
ATOM      3  N   UNL     1       4.385  -4.629  -2.815  0.00  0.00    -0.152 NA
ATOM      4  N   UNL     1       3.935  -3.508  -2.370  0.00  0.00    -0.109 NA
ATOM      5  C   UNL     1       3.078  -2.778  -3.070  0.00  0.00    +0.273 A 
ATOM      6  N   UNL     1       2.662  -3.176  -4.263  0.00  0.00    -0.208 NA
ATOM      7  N   UNL     1       2.612  -1.573  -2.546  0.00  0.00    -0.182 N 
ATOM      8  C   UNL     1       2.946  -1.042  -1.350  0.00  0.00    +0.136 A 
ATOM      9  C   UNL     1       2.292   0.155  -1.233  0.00  0.00    +0.023 A 
ATOM     10  C   UNL     1       1.526   0.339  -2.376  0.00  0.00    +0.066 A 
ATOM     11  N   UNL     1       1.712  -0.692  -3.167  0.00  0.00    -0.167 NA
ATOM     12  C   UNL     1       0.635   1.520  -2.661  0.00  0.00    +0.068 C 
ATOM     13  C   UNL     1       2.448   1.044  -0.026  0.00  0.00    +0.066 C 
ATOM     14  C   UNL     1       2.768   0.161   1.184  0.00  0.00    +0.109 C 
ATOM     15  C   UNL     1       3.791  -0.884   0.840  0.00  0.00    +0.219 C 
ATOM     16  O   UNL     1       4.640  -1.168   1.659  0.00  0.00    -0.275 OA
ATOM     17  N   UNL     1       3.796  -1.516  -0.353  0.00  0.00    -0.270 N 
ATOM     18  H   UNL     1       4.375  -2.278  -0.511  0.00  0.00    +0.156 HD
ENDROOT
BRANCH   1  23
ATOM     19  C   UNL     1       1.379  -6.171  -9.934  0.00  0.00    +0.044 C 
ATOM     20  C   UNL     1       1.833  -5.689  -8.580  0.00  0.00    -0.050 A 
ATOM     21  C   UNL     1       2.640  -6.494  -7.797  0.00  0.00    +0.004 A 
ATOM     22  C   UNL     1       3.058  -6.057  -6.556  0.00  0.00    +0.010 A 
ATOM     23  C   UNL     1       2.665  -4.803  -6.092  0.00  0.00    +0.002 A 
ATOM     24  C   UNL     1       1.846  -3.999  -6.883  0.00  0.00    +0.010 A 
ATOM     25  C   UNL     1       1.438  -4.443  -8.125  0.00  0.00    +0.004 A 
ENDBRANCH   1  23
BRANCH  13  26
ATOM     26  C   UNL     1       1.167   1.798   0.219  0.00  0.00    +0.002 A 
ATOM     27  C   UNL     1      -0.009   1.108   0.443  0.00  0.00    +0.008 A 
ATOM     28  C   UNL     1      -1.186   1.799   0.663  0.00  0.00    +0.001 A 
ATOM     29  C   UNL     1      -1.188   3.182   0.670  0.00  0.00    +0.004 A 
ATOM     30  C   UNL     1      -0.015   3.877   0.447  0.00  0.00    +0.046 A 
ATOM     31  C   UNL     1       1.167   3.186   0.220  0.00  0.00    +0.125 A 
BRANCH  31  32
ATOM     32  O   UNL     1       2.322   3.866  -0.000  0.00  0.00    -0.489 OA
BRANCH  32  33
ATOM     33  C   UNL     1       2.227   5.288  -0.104  0.00  0.00    +0.167 C 
ATOM     34  C   UNL     1       2.268   5.905   1.296  0.00  0.00    +0.051 C 
ATOM     35  C   UNL     1       3.401   5.819  -0.929  0.00  0.00    +0.051 C 
ENDBRANCH  32  33
ENDBRANCH  31  32
ENDBRANCH  13  26
TORSDOF 4
