REMARK  Name = ZINC55887279
REMARK  11 active torsions:
REMARK  status: ('A' for Active; 'I' for Inactive)
REMARK    1  A    between atoms: C_1  and  C_2
REMARK    2  A    between atoms: C_2  and  C_3
REMARK    3  A    between atoms: C_3  and  C_25
REMARK    4  A    between atoms: N_6  and  N_10
REMARK    5  A    between atoms: C_11  and  C_13
REMARK    6  A    between atoms: C_13  and  N_14
REMARK    7  A    between atoms: N_14  and  C_15
REMARK    8  A    between atoms: C_18  and  O_22
REMARK    9  A    between atoms: C_20  and  C_21
REMARK   10  A    between atoms: O_22  and  C_23
REMARK   11  A    between atoms: C_23  and  C_24
REMARK                            x       y       z     vdW  Elec       q    Type
REMARK                         _______ _______ _______ _____ _____    ______ ____
ROOT
ATOM      1  N   UNL     1      -2.365  -3.480   1.957  0.00  0.00    -0.222 N 
ATOM      2  C   UNL     1      -1.666  -3.875   3.039  0.00  0.00    +0.247 C 
ATOM      3  O   UNL     1      -0.826  -3.144   3.518  0.00  0.00    -0.273 OA
ATOM      4  H   UNL     1      -3.037  -4.065   1.574  0.00  0.00    +0.174 HD
ENDROOT
BRANCH   1   8
ATOM      5  C   UNL     1      -1.433  -0.534   0.013  0.00  0.00    +0.111 C 
ATOM      6  C   UNL     1      -1.447  -2.033   0.236  0.00  0.00    +0.263 C 
ATOM      7  O   UNL     1      -0.952  -2.883  -0.472  0.00  0.00    -0.271 OA
ATOM      8  N   UNL     1      -2.123  -2.224   1.386  0.00  0.00    -0.137 N 
ATOM      9  C   UNL     1      -2.534  -1.066   1.915  0.00  0.00    +0.326 C 
ATOM     10  O   UNL     1      -3.163  -0.982   2.952  0.00  0.00    -0.251 OA
ATOM     11  N   UNL     1      -2.172  -0.004   1.172  0.00  0.00    -0.284 N 
ATOM     12  C   UNL     1      -2.148  -0.174  -1.291  0.00  0.00    +0.041 C 
ATOM     13  H   UNL     1      -2.361   0.928   1.363  0.00  0.00    +0.151 HD
BRANCH   5  15
ATOM     14  C   UNL     1      -0.019   1.526   0.010  0.00  0.00    +0.006 C 
ATOM     15  C   UNL     1       0.002  -0.004   0.002  0.00  0.00    +0.032 C 
ENDBRANCH   5  15
ENDBRANCH   1   8
BRANCH   2  16
ATOM     16  C   UNL     1      -1.927  -5.227   3.653  0.00  0.00    +0.199 C 
BRANCH  16  17
ATOM     17  N   UNL     1      -1.045  -5.417   4.807  0.00  0.00    -0.335 N 
ATOM     18  H   UNL     1      -0.420  -4.720   5.060  0.00  0.00    +0.147 HD
BRANCH  17  19
ATOM     19  C   UNL     1      -1.105  -6.605   5.545  0.00  0.00    +0.031 A 
ATOM     20  C   UNL     1      -1.996  -7.606   5.179  0.00  0.00    +0.027 A 
ATOM     21  C   UNL     1      -2.053  -8.778   5.907  0.00  0.00    +0.047 A 
ATOM     22  C   UNL     1      -1.222  -8.956   7.003  0.00  0.00    +0.121 A 
ATOM     23  C   UNL     1      -0.333  -7.957   7.370  0.00  0.00    +0.050 A 
ATOM     24  C   UNL     1      -0.269  -6.786   6.639  0.00  0.00    -0.026 A 
ATOM     25  C   UNL     1       0.702  -5.703   7.032  0.00  0.00    +0.046 C 
BRANCH  22  26
ATOM     26  O   UNL     1      -1.280 -10.110   7.720  0.00  0.00    -0.492 OA
BRANCH  26  27
ATOM     27  C   UNL     1      -2.220 -11.096   7.287  0.00  0.00    +0.225 C 
ATOM     28  C   UNL     1      -2.141 -12.315   8.209  0.00  0.00    +0.048 C 
ENDBRANCH  26  27
ENDBRANCH  22  26
ENDBRANCH  17  19
ENDBRANCH  16  17
ENDBRANCH   2  16
TORSDOF 7
