REMARK  Name = ZINC49786303
REMARK  9 active torsions:
REMARK  status: ('A' for Active; 'I' for Inactive)
REMARK    1  A    between atoms: C_1  and  C_2
REMARK    2  A    between atoms: C_2  and  C_3
REMARK    3  A    between atoms: C_2  and  C_4
REMARK    4  A    between atoms: C_2  and  N_22
REMARK    5  A    between atoms: C_4  and  N_5
REMARK    6  A    between atoms: N_8  and  N_9
REMARK    7  A    between atoms: C_10  and  C_12
REMARK    8  A    between atoms: N_22  and  C_23
REMARK    9  A    between atoms: N_22  and  C_24
REMARK                            x       y       z     vdW  Elec       q    Type
REMARK                         _______ _______ _______ _____ _____    ______ ____
ROOT
ATOM      1  N   UNL     1      -1.413  -1.998   0.005  0.00  0.00    -0.300 N 
ATOM      2  C   UNL     1      -2.571  -2.688   0.012  0.00  0.00    +0.316 C 
ATOM      3  O   UNL     1      -3.632  -2.095   0.025  0.00  0.00    -0.251 OA
ATOM      4  N   UNL     1      -2.553  -4.036   0.005  0.00  0.00    -0.218 N 
ATOM      5  H   UNL     1      -0.567  -2.472  -0.006  0.00  0.00    +0.150 HD
ATOM      6  H   UNL     1      -3.386  -4.532   0.010  0.00  0.00    +0.174 HD
ENDROOT
BRANCH   4   7
ATOM      7  N   UNL     1      -1.330  -4.720  -0.011  0.00  0.00    -0.229 N 
ATOM      8  C   UNL     1      -1.312  -6.067  -0.018  0.00  0.00    +0.267 C 
ATOM      9  O   UNL     1      -2.358  -6.690  -0.011  0.00  0.00    -0.268 OA
ATOM     10  H   UNL     1      -0.497  -4.223  -0.016  0.00  0.00    +0.173 HD
BRANCH   8  11
ATOM     11  C   UNL     1      -0.033  -6.783  -0.034  0.00  0.00    +0.076 A 
ATOM     12  C   UNL     1       0.205  -8.143  -0.049  0.00  0.00    +0.024 A 
ATOM     13  C   UNL     1       1.535  -8.552  -0.062  0.00  0.00    -0.036 A 
ATOM     14  C   UNL     1       2.472  -7.568  -0.056  0.00  0.00    -0.006 A 
ATOM     15  S   UNL     1       1.624  -6.126  -0.047  0.00  0.00    -0.088 S 
ATOM     16  C   UNL     1       3.964  -7.719  -0.059  0.00  0.00    +0.043 C 
ATOM     17  C   UNL     1       4.343  -9.028  -0.760  0.00  0.00    +0.005 C 
ATOM     18  C   UNL     1       4.377 -10.145   0.278  0.00  0.00    +0.001 C 
ATOM     19  C   UNL     1       3.006 -10.317   0.927  0.00  0.00    +0.005 C 
ATOM     20  C   UNL     1       1.900 -10.033  -0.084  0.00  0.00    +0.036 C 
ENDBRANCH   8  11
ENDBRANCH   4   7
BRANCH   1  21
ATOM     21  C   UNL     1      -1.433  -0.534   0.013  0.00  0.00    +0.093 C 
BRANCH  21  23
ATOM     22  C   UNL     1      -0.019   1.526   0.010  0.00  0.00    -0.008 C 
ATOM     23  C   UNL     1       0.002  -0.004   0.002  0.00  0.00    -0.056 C 
ATOM     24  C   UNL     1       0.742  -0.511   1.242  0.00  0.00    -0.008 C 
BRANCH  23  25
ATOM     25  N   UNL     1       0.690  -0.478  -1.207  0.00  0.00    +0.380 N 
ATOM     26  C   UNL     1      -0.021   0.009  -2.397  0.00  0.00    -0.096 C 
ATOM     27  C   UNL     1       2.068   0.031  -1.217  0.00  0.00    -0.096 C 
ATOM     28  H   UNL     1       0.703  -1.487  -1.212  0.00  0.00    -0.082 HD
ENDBRANCH  23  25
ENDBRANCH  21  23
ENDBRANCH   1  21
TORSDOF 5
