REMARK  Name = ZINC57980011
REMARK  13 active torsions:
REMARK  status: ('A' for Active; 'I' for Inactive)
REMARK    1  A    between atoms: C_1  and  C_2
REMARK    2  A    between atoms: C_2  and  C_3
REMARK    3  A    between atoms: C_3  and  C_4
REMARK    4  A    between atoms: C_3  and  C_5
REMARK    5  A    between atoms: C_3  and  C_6
REMARK    6  A    between atoms: C_9  and  N_12
REMARK    7  A    between atoms: C_13  and  C_15
REMARK    8  A    between atoms: C_15  and  C_16
REMARK    9  A    between atoms: C_16  and  N_17
REMARK   10  A    between atoms: N_17  and  C_18
REMARK   11  A    between atoms: C_21  and  S_27
REMARK   12  A    between atoms: C_23  and  N_24
REMARK   13  A    between atoms: S_27  and  N_30
REMARK                            x       y       z     vdW  Elec       q    Type
REMARK                         _______ _______ _______ _____ _____    ______ ____
ROOT
ATOM      1  C   UNL     1      -0.460  -8.838  -5.200  0.00  0.00    +0.111 C 
ENDROOT
BRANCH   1   2
ATOM      2  N   UNL     1      -0.192 -10.278  -5.200  0.00  0.00    -0.342 N 
ATOM      3  H   UNL     1      -0.264 -10.785  -4.377  0.00  0.00    +0.146 HD
BRANCH   2   4
ATOM      4  C   UNL     1       0.168 -10.921  -6.387  0.00  0.00    +0.058 A 
ATOM      5  C   UNL     1       0.154 -10.224  -7.589  0.00  0.00    +0.027 A 
ATOM      6  C   UNL     1       0.511 -10.862  -8.760  0.00  0.00    +0.030 A 
ATOM      7  C   UNL     1       0.882 -12.194  -8.738  0.00  0.00    +0.107 A 
ATOM      8  C   UNL     1       0.896 -12.891  -7.544  0.00  0.00    +0.063 A 
ATOM      9  C   UNL     1       0.546 -12.257  -6.368  0.00  0.00    +0.149 A 
BRANCH   9  10
ATOM     10  N   UNL     1       0.568 -13.002  -5.089  0.00  0.00    +0.058 N 
ATOM     11  O   UNL     1       0.933 -12.453  -4.075  0.00  0.00    -0.126 OA
ATOM     12  O   UNL     1       0.221 -14.160  -5.058  0.00  0.00    -0.126 OA
ENDBRANCH   9  10
BRANCH   7  13
ATOM     13  S   UNL     1       1.336 -13.005 -10.234  0.00  0.00    +0.056 S 
ATOM     14  O   UNL     1       1.117 -14.394 -10.027  0.00  0.00    -0.153 OA
ATOM     15  O   UNL     1       0.716 -12.286 -11.291  0.00  0.00    -0.153 OA
BRANCH  13  16
ATOM     16  N   UNL     1       2.970 -12.807 -10.422  0.00  0.00    -0.204 NA
ATOM     17  H   UNL     1       3.478 -12.314  -9.760  0.00  0.00    +0.144 HD
ATOM     18  H   UNL     1       3.418 -13.185 -11.195  0.00  0.00    +0.144 HD
ENDBRANCH  13  16
ENDBRANCH   7  13
ENDBRANCH   2   4
ENDBRANCH   1   2
BRANCH   1  19
ATOM     19  C   UNL     1      -0.830  -8.388  -3.785  0.00  0.00    +0.114 C 
BRANCH  19  21
ATOM     20  N   UNL     1      -1.453  -6.286  -2.640  0.00  0.00    -0.312 N 
ATOM     21  C   UNL     1      -1.106  -6.907  -3.785  0.00  0.00    +0.215 C 
ATOM     22  O   UNL     1      -1.015  -6.273  -4.815  0.00  0.00    -0.276 OA
ATOM     23  H   UNL     1      -1.525  -6.793  -1.816  0.00  0.00    +0.149 HD
BRANCH  20  27
ATOM     24  C   UNL     1      -1.617  -2.233  -1.318  0.00  0.00    -0.005 C 
ATOM     25  C   UNL     1      -2.933  -2.997  -1.476  0.00  0.00    +0.006 C 
ATOM     26  C   UNL     1      -2.653  -4.501  -1.476  0.00  0.00    +0.022 C 
ATOM     27  C   UNL     1      -1.721  -4.846  -2.639  0.00  0.00    +0.073 C 
ATOM     28  C   UNL     1      -0.405  -4.082  -2.482  0.00  0.00    +0.022 C 
ATOM     29  C   UNL     1      -0.685  -2.578  -2.482  0.00  0.00    +0.006 C 
BRANCH  24  30
ATOM     30  C   UNL     1      -1.897  -0.729  -1.318  0.00  0.00    -0.032 C 
ATOM     31  C   UNL     1      -2.561  -0.333  -2.638  0.00  0.00    +0.011 C 
ATOM     32  C   UNL     1      -0.580   0.035  -1.161  0.00  0.00    +0.011 C 
BRANCH  30  34
ATOM     33  C   UNL     1      -3.108   1.120  -0.154  0.00  0.00    +0.004 C 
ATOM     34  C   UNL     1      -2.828  -0.384  -0.154  0.00  0.00    +0.003 C 
ENDBRANCH  30  34
ENDBRANCH  24  30
ENDBRANCH  20  27
ENDBRANCH  19  21
ENDBRANCH   1  19
TORSDOF 10
