REMARK  Name = ZINC24109992
REMARK  10 active torsions:
REMARK  status: ('A' for Active; 'I' for Inactive)
REMARK    1  A    between atoms: C_1  and  C_2
REMARK    2  A    between atoms: C_2  and  C_4
REMARK    3  A    between atoms: C_2  and  S_19
REMARK    4  A    between atoms: C_4  and  C_6
REMARK    5  A    between atoms: C_9  and  N_12
REMARK    6  A    between atoms: C_13  and  C_15
REMARK    7  A    between atoms: C_15  and  C_16
REMARK    8  A    between atoms: C_15  and  C_17
REMARK    9  A    between atoms: C_15  and  C_18
REMARK   10  A    between atoms: S_19  and  C_20
REMARK                            x       y       z     vdW  Elec       q    Type
REMARK                         _______ _______ _______ _____ _____    ______ ____
ROOT
ATOM      1  C   UNL     1      -1.300   1.919   0.003  0.00  0.00    +0.019 A 
ATOM      2  C   UNL     1      -1.324   3.305   0.203  0.00  0.00    +0.013 A 
ATOM      3  C   UNL     1      -2.521   3.973   0.211  0.00  0.00    +0.024 A 
ATOM      4  C   UNL     1      -3.712   3.274   0.033  0.00  0.00    +0.033 A 
ATOM      5  C   UNL     1      -3.693   1.896  -0.161  0.00  0.00    +0.024 A 
ATOM      6  C   UNL     1      -2.500   1.220  -0.176  0.00  0.00    +0.013 A 
ENDROOT
BRANCH   4   7
ATOM      7  N   UNL     1      -4.927   3.957   0.048  0.00  0.00    -0.285 N 
ATOM      8  C   UNL     1      -6.029   3.360   0.544  0.00  0.00    +0.223 C 
ATOM      9  O   UNL     1      -5.945   2.267   1.063  0.00  0.00    -0.275 OA
ATOM     10  H   UNL     1      -4.986   4.983  -0.344  0.00  0.00    +0.155 HD
BRANCH   8  11
ATOM     11  C   UNL     1      -7.365   4.050   0.452  0.00  0.00    +0.039 C 
ATOM     12  C   UNL     1      -8.441   3.164   1.084  0.00  0.00    +0.020 C 
ATOM     13  C   UNL     1      -7.302   5.385   1.197  0.00  0.00    +0.020 C 
ATOM     14  C   UNL     1      -7.710   4.301  -1.017  0.00  0.00    +0.020 C 
ENDBRANCH   8  11
ENDBRANCH   4   7
BRANCH   1  15
ATOM     15  C   UNL     1      -0.019   1.200  -0.013  0.00  0.00    +0.176 C 
ATOM     16  O   UNL     1      -0.001  -0.001  -0.181  0.00  0.00    -0.291 OA
BRANCH  15  18
ATOM     17  C   UNL     1       1.732   2.519  -1.172  0.00  0.00    +0.028 C 
ATOM     18  C   UNL     1       1.271   1.955   0.174  0.00  0.00    +0.121 C 
BRANCH  18  19
ATOM     19  S   UNL     1       2.539   0.833   0.826  0.00  0.00    -0.093 S 
BRANCH  19  20
ATOM     20  C   UNL     1       3.923   1.882   1.126  0.00  0.00    +0.120 A 
ATOM     21  C   UNL     1       5.104   1.352   1.647  0.00  0.00    +0.039 A 
ATOM     22  C   UNL     1       6.164   2.218   1.860  0.00  0.00    +0.044 A 
ATOM     23  C   UNL     1       5.983   3.561   1.553  0.00  0.00    +0.152 A 
ATOM     24  N   UNL     1       4.829   3.976   1.068  0.00  0.00    -0.137 NA
ATOM     25  N   UNL     1       3.844   3.179   0.864  0.00  0.00    -0.142 NA
ATOM     26 CL   UNL     1       7.276   4.691   1.806  0.00  0.00    -0.060 Cl
ENDBRANCH  19  20
ENDBRANCH  18  19
ENDBRANCH  15  18
ENDBRANCH   1  15
TORSDOF 6
