REMARK  Name = ZINC45159976
REMARK  10 active torsions:
REMARK  status: ('A' for Active; 'I' for Inactive)
REMARK    1  A    between atoms: C_1  and  C_2
REMARK    2  A    between atoms: C_4  and  C_7
REMARK    3  A    between atoms: C_7  and  N_8
REMARK    4  A    between atoms: N_8  and  C_9
REMARK    5  A    between atoms: N_12  and  C_13
REMARK    6  A    between atoms: C_13  and  C_15
REMARK    7  A    between atoms: C_13  and  C_24
REMARK    8  A    between atoms: C_18  and  C_21
REMARK    9  A    between atoms: C_21  and  C_22
REMARK   10  A    between atoms: C_21  and  C_23
REMARK                            x       y       z     vdW  Elec       q    Type
REMARK                         _______ _______ _______ _____ _____    ______ ____
ROOT
ATOM      1  C   UNL     1      -4.031  -3.290  -4.171  0.00  0.00    +0.142 C 
ENDROOT
BRANCH   1   6
ATOM      2  N   UNL     1      -1.691  -3.832  -1.387  0.00  0.00    -0.283 N 
ATOM      3  C   UNL     1      -0.756  -4.794  -1.975  0.00  0.00    +0.134 C 
ATOM      4  C   UNL     1      -2.728  -3.369  -2.114  0.00  0.00    +0.303 C 
ATOM      5  O   UNL     1      -3.504  -2.571  -1.626  0.00  0.00    -0.253 OA
ATOM      6  N   UNL     1      -2.904  -3.793  -3.381  0.00  0.00    -0.288 N 
ATOM      7  H   UNL     1      -2.285  -4.430  -3.771  0.00  0.00    +0.151 HD
BRANCH   2   8
ATOM      8  C   UNL     1      -1.500  -3.372  -0.010  0.00  0.00    +0.167 C 
BRANCH   8  12
ATOM      9  C   UNL     1      -0.018   1.503   0.010  0.00  0.00    +0.089 C 
ATOM     10  C   UNL     1       0.002  -0.004   0.002  0.00  0.00    +0.135 A 
ATOM     11  C   UNL     1      -1.077  -0.810   0.003  0.00  0.00    +0.072 A 
ATOM     12  C   UNL     1      -0.627  -2.143  -0.007  0.00  0.00    +0.101 A 
ATOM     13  N   UNL     1       0.676  -2.130  -0.013  0.00  0.00    -0.081 NA
ATOM     14  O   UNL     1       1.098  -0.778  -0.013  0.00  0.00    -0.360 OA
ENDBRANCH   8  12
ENDBRANCH   2   8
ENDBRANCH   1   6
BRANCH   1  15
ATOM     15  C   UNL     1      -4.381  -4.293  -5.241  0.00  0.00    -0.022 A 
ATOM     16  C   UNL     1      -3.378  -4.962  -5.916  0.00  0.00    +0.006 A 
ATOM     17  C   UNL     1      -3.699  -5.882  -6.897  0.00  0.00    +0.004 A 
ATOM     18  C   UNL     1      -5.023  -6.132  -7.203  0.00  0.00    -0.045 A 
ATOM     19  C   UNL     1      -6.027  -5.463  -6.527  0.00  0.00    +0.004 A 
ATOM     20  C   UNL     1      -5.706  -4.546  -5.543  0.00  0.00    +0.006 A 
BRANCH  18  21
ATOM     21  C   UNL     1      -5.373  -7.133  -8.273  0.00  0.00    +0.013 C 
ATOM     22  C   UNL     1      -6.220  -8.254  -7.666  0.00  0.00    +0.012 C 
ATOM     23  C   UNL     1      -6.166  -6.439  -9.382  0.00  0.00    +0.012 C 
ENDBRANCH  18  21
ENDBRANCH   1  15
BRANCH   1  24
ATOM     24  C   UNL     1      -3.650  -1.982  -4.814  0.00  0.00    +0.014 A 
ATOM     25  C   UNL     1      -4.394  -0.860  -4.972  0.00  0.00    +0.013 A 
ATOM     26  C   UNL     1      -3.830   0.235  -5.599  0.00  0.00    +0.008 A 
ATOM     27  C   UNL     1      -2.550   0.155  -6.039  0.00  0.00    +0.045 A 
ATOM     28  S   UNL     1      -2.099  -1.505  -5.560  0.00  0.00    -0.099 S 
ENDBRANCH   1  24
TORSDOF 6
