REMARK  Name = ZINC22683989
REMARK  12 active torsions:
REMARK  status: ('A' for Active; 'I' for Inactive)
REMARK    1  A    between atoms: C_1  and  C_2
REMARK    2  A    between atoms: C_2  and  C_3
REMARK    3  A    between atoms: C_6  and  C_9
REMARK    4  A    between atoms: C_9  and  C_11
REMARK    5  A    between atoms: C_9  and  N_29
REMARK    6  A    between atoms: C_11  and  N_12
REMARK    7  A    between atoms: C_13  and  C_15
REMARK    8  A    between atoms: C_16  and  C_28
REMARK    9  A    between atoms: C_22  and  C_26
REMARK   10  A    between atoms: C_22  and  C_27
REMARK   11  A    between atoms: N_29  and  C_30
REMARK   12  A    between atoms: N_29  and  C_31
REMARK                            x       y       z     vdW  Elec       q    Type
REMARK                         _______ _______ _______ _____ _____    ______ ____
ROOT
ATOM      1  N   UNL     1      -0.338  -1.235   1.926  0.00  0.00    -0.311 N 
ATOM      2  C   UNL     1      -0.573  -1.447   3.236  0.00  0.00    +0.261 C 
ATOM      3  O   UNL     1      -0.749  -0.503   3.983  0.00  0.00    -0.269 OA
ATOM      4  H   UNL     1      -0.179  -2.089   1.250  0.00  0.00    +0.149 HD
ENDROOT
BRANCH   2   5
ATOM      5  C   UNL     1      -0.616  -2.817   3.762  0.00  0.00    +0.106 A 
ATOM      6  C   UNL     1      -0.839  -3.167   5.065  0.00  0.00    -0.010 A 
ATOM      7  C   UNL     1      -0.799  -4.565   5.117  0.00  0.00    +0.042 A 
ATOM      8  C   UNL     1      -0.539  -5.030   3.828  0.00  0.00    +0.028 A 
ATOM      9  N   UNL     1      -0.433  -3.972   3.024  0.00  0.00    -0.354 N 
ATOM     10  H   UNL     1      -0.236  -3.909   1.944  0.00  0.00    +0.166 HD
ATOM     11  C   UNL     1      -0.413  -6.495   3.497  0.00  0.00    +0.060 C 
ATOM     12  C   UNL     1      -0.105  -7.278   4.776  0.00  0.00    -0.023 C 
ATOM     13  C   UNL     1      -1.129  -6.954   5.869  0.00  0.00    +0.086 C 
ATOM     14  C   UNL     1      -0.979  -5.488   6.248  0.00  0.00    +0.166 C 
ATOM     15  O   UNL     1      -1.005  -5.108   7.400  0.00  0.00    -0.292 OA
ATOM     16  C   UNL     1       1.294  -6.905   5.271  0.00  0.00    +0.011 C 
ATOM     17  C   UNL     1      -0.150  -8.777   4.473  0.00  0.00    +0.011 C 
ATOM     18  C   UNL     1      -1.083  -2.229   6.219  0.00  0.00    +0.047 C 
ENDBRANCH   2   5
BRANCH   1  19
ATOM     19  C   UNL     1      -0.295   0.132   1.401  0.00  0.00    +0.094 C 
BRANCH  19  20
ATOM     20  C   UNL     1      -0.137   0.089  -0.120  0.00  0.00    -0.021 C 
BRANCH  20  24
ATOM     21  C   UNL     1      -0.207   4.069  -1.671  0.00  0.00    -0.048 A 
ATOM     22  C   UNL     1       0.992   3.389  -1.567  0.00  0.00    +0.004 A 
ATOM     23  C   UNL     1       1.014   2.101  -1.065  0.00  0.00    +0.002 A 
ATOM     24  C   UNL     1      -0.162   1.494  -0.667  0.00  0.00    -0.059 A 
ATOM     25  C   UNL     1      -1.361   2.172  -0.776  0.00  0.00    +0.002 A 
ATOM     26  C   UNL     1      -1.384   3.461  -1.273  0.00  0.00    +0.004 A 
BRANCH  21  28
ATOM     27  C   UNL     1      -0.422   5.425  -3.736  0.00  0.00    +0.009 C 
ATOM     28  C   UNL     1      -0.233   5.473  -2.219  0.00  0.00    +0.032 C 
ENDBRANCH  21  28
ENDBRANCH  20  24
BRANCH  20  29
ATOM     29  N   UNL     1      -1.240  -0.684  -0.706  0.00  0.00    +0.382 N 
ATOM     30  C   UNL     1      -2.469  -0.528   0.083  0.00  0.00    -0.096 C 
ATOM     31  C   UNL     1      -1.462  -0.305  -2.108  0.00  0.00    -0.096 C 
ATOM     32  H   UNL     1      -0.957  -1.746  -0.684  0.00  0.00    -0.082 HD
ENDBRANCH  20  29
ENDBRANCH  19  20
ENDBRANCH   1  19
TORSDOF 6
