REMARK  Name = ZINC16987469
REMARK  9 active torsions:
REMARK  status: ('A' for Active; 'I' for Inactive)
REMARK    1  A    between atoms: C_1  and  C_2
REMARK    2  A    between atoms: C_2  and  C_4
REMARK    3  A    between atoms: C_2  and  O_11
REMARK    4  A    between atoms: N_6  and  C_7
REMARK    5  A    between atoms: C_7  and  C_8
REMARK    6  A    between atoms: C_8  and  C_9
REMARK    7  A    between atoms: C_8  and  C_10
REMARK    8  A    between atoms: O_11  and  C_12
REMARK    9  A    between atoms: C_17  and  N_18
REMARK                            x       y       z     vdW  Elec       q    Type
REMARK                         _______ _______ _______ _____ _____    ______ ____
ROOT
ATOM      1  O   UNL     1       0.693  -0.477   1.160  0.00  0.00    -0.478 OA
ENDROOT
BRANCH   1   2
ATOM      2  C   UNL     1      -0.031  -0.600   2.304  0.00  0.00    +0.152 A 
ATOM      3  C   UNL     1      -1.399  -0.371   2.287  0.00  0.00    +0.049 A 
ATOM      4  C   UNL     1      -2.133  -0.495   3.451  0.00  0.00    +0.024 A 
ATOM      5  C   UNL     1      -1.504  -0.848   4.632  0.00  0.00    +0.043 A 
ATOM      6  C   UNL     1      -0.140  -1.076   4.650  0.00  0.00    +0.056 A 
ATOM      7  C   UNL     1       0.597  -0.959   3.487  0.00  0.00    +0.169 A 
ATOM      8 CL   UNL     1      -2.429  -1.004   6.093  0.00  0.00    -0.083 Cl
BRANCH   7   9
ATOM      9  N   UNL     1       2.055  -1.210   3.506  0.00  0.00    +0.060 N 
ATOM     10  O   UNL     1       2.602  -1.523   4.538  0.00  0.00    -0.126 OA
ATOM     11  O   UNL     1       2.700  -1.101   2.489  0.00  0.00    -0.126 OA
ENDBRANCH   7   9
ENDBRANCH   1   2
BRANCH   1  13
ATOM     12  C   UNL     1      -0.289   1.273  -0.187  0.00  0.00    +0.062 C 
ATOM     13  C   UNL     1      -0.034  -0.229  -0.045  0.00  0.00    +0.256 C 
BRANCH  13  14
ATOM     14  C   UNL     1       0.767  -0.717  -1.225  0.00  0.00    +0.254 C 
ATOM     15  O   UNL     1       1.890  -1.143  -1.061  0.00  0.00    -0.272 OA
ATOM     16  N   UNL     1       0.234  -0.679  -2.462  0.00  0.00    -0.312 N 
ATOM     17  H   UNL     1      -0.664  -0.338  -2.594  0.00  0.00    +0.149 HD
BRANCH  16  18
ATOM     18  C   UNL     1       1.013  -1.153  -3.609  0.00  0.00    +0.107 C 
BRANCH  18  19
ATOM     19  C   UNL     1       0.184  -1.002  -4.886  0.00  0.00    -0.000 C 
ATOM     20  C   UNL     1      -0.072   0.482  -5.156  0.00  0.00    +0.009 C 
ATOM     21  C   UNL     1       0.946  -1.611  -6.065  0.00  0.00    +0.009 C 
ENDBRANCH  18  19
ENDBRANCH  16  18
ENDBRANCH  13  14
ENDBRANCH   1  13
TORSDOF 6
