REMARK  Name = ZINC36556620
REMARK  10 active torsions:
REMARK  status: ('A' for Active; 'I' for Inactive)
REMARK    1  A    between atoms: C_1  and  C_2
REMARK    2  A    between atoms: C_2  and  O_39
REMARK    3  A    between atoms: C_6  and  C_30
REMARK    4  A    between atoms: C_8  and  C_21
REMARK    5  A    between atoms: C_10  and  C_12
REMARK    6  A    between atoms: N_14  and  C_15
REMARK    7  A    between atoms: C_24  and  O_29
REMARK    8  A    between atoms: C_25  and  O_27
REMARK    9  A    between atoms: O_27  and  C_28
REMARK   10  A    between atoms: N_32  and  C_33
REMARK                            x       y       z     vdW  Elec       q    Type
REMARK                         _______ _______ _______ _____ _____    ______ ____
ROOT
ATOM      1  C   UNL     1       0.276   1.987   0.023  0.00  0.00    +0.042 C 
ATOM      2  C   UNL     1       0.013   0.490   0.197  0.00  0.00    +0.082 C 
ATOM      3  C   UNL     1       0.533  -0.267  -1.030  0.00  0.00    +0.110 C 
ATOM      4  C   UNL     1       2.038  -0.125  -1.079  0.00  0.00    +0.148 C 
ATOM      5  O   UNL     1       2.593   0.247  -2.085  0.00  0.00    -0.296 OA
ATOM      6  C   UNL     1       2.831  -0.461   0.165  0.00  0.00    +0.149 C 
ATOM      7  C   UNL     1       2.227   0.303   1.348  0.00  0.00    +0.053 C 
ATOM      8  C   UNL     1       0.734  -0.014   1.448  0.00  0.00    +0.115 C 
ENDROOT
BRANCH   7   9
ATOM      9  C   UNL     1       2.917  -0.117   2.621  0.00  0.00    -0.039 A 
ATOM     10  C   UNL     1       3.610  -1.312   2.668  0.00  0.00    +0.008 A 
ATOM     11  C   UNL     1       4.244  -1.701   3.834  0.00  0.00    +0.049 A 
ATOM     12  C   UNL     1       4.186  -0.892   4.957  0.00  0.00    +0.158 A 
ATOM     13  C   UNL     1       3.489   0.311   4.909  0.00  0.00    +0.162 A 
ATOM     14  C   UNL     1       2.859   0.697   3.737  0.00  0.00    +0.053 A 
BRANCH  13  15
ATOM     15  O   UNL     1       3.429   1.108   6.010  0.00  0.00    -0.491 OA
ATOM     16  C   UNL     1       2.695   2.329   5.887  0.00  0.00    +0.277 C 
ENDBRANCH  13  15
BRANCH  12  17
ATOM     17  O   UNL     1       4.809  -1.274   6.104  0.00  0.00    -0.503 OA
ATOM     18  H   UNL     1       5.724  -0.969   6.175  0.00  0.00    +0.292 HD
ENDBRANCH  12  17
ENDBRANCH   7   9
BRANCH   8  19
ATOM     19  C   UNL     1       0.545  -1.504   1.570  0.00  0.00    +0.224 C 
ATOM     20  O   UNL     1       1.510  -2.238   1.591  0.00  0.00    -0.275 OA
ATOM     21  N   UNL     1      -0.697  -2.020   1.657  0.00  0.00    -0.285 N 
ATOM     22  H   UNL     1      -1.470  -1.440   1.577  0.00  0.00    +0.155 HD
BRANCH  21  23
ATOM     23  C   UNL     1      -0.870  -3.393   1.863  0.00  0.00    +0.033 A 
ATOM     24  C   UNL     1      -1.930  -3.853   2.635  0.00  0.00    +0.023 A 
ATOM     25  C   UNL     1      -2.098  -5.209   2.837  0.00  0.00    +0.002 A 
ATOM     26  C   UNL     1      -1.214  -6.109   2.271  0.00  0.00    +0.000 A 
ATOM     27  C   UNL     1      -0.158  -5.654   1.502  0.00  0.00    +0.002 A 
ATOM     28  C   UNL     1       0.013  -4.300   1.292  0.00  0.00    +0.023 A 
ENDBRANCH  21  23
ENDBRANCH   8  19
BRANCH   6  29
ATOM     29  C   UNL     1       4.269  -0.051  -0.026  0.00  0.00    +0.228 C 
ATOM     30  O   UNL     1       4.773   0.760   0.721  0.00  0.00    -0.275 OA
ATOM     31  N   UNL     1       4.995  -0.588  -1.027  0.00  0.00    -0.285 N 
ATOM     32  H   UNL     1       4.573  -1.180  -1.669  0.00  0.00    +0.155 HD
BRANCH  31  33
ATOM     33  C   UNL     1       6.358  -0.290  -1.140  0.00  0.00    +0.033 A 
ATOM     34  C   UNL     1       6.944  -0.179  -2.394  0.00  0.00    +0.023 A 
ATOM     35  C   UNL     1       8.289   0.115  -2.502  0.00  0.00    +0.002 A 
ATOM     36  C   UNL     1       9.052   0.299  -1.364  0.00  0.00    +0.000 A 
ATOM     37  C   UNL     1       8.471   0.188  -0.114  0.00  0.00    +0.002 A 
ATOM     38  C   UNL     1       7.125  -0.099   0.001  0.00  0.00    +0.023 A 
ENDBRANCH  31  33
ENDBRANCH   6  29
BRANCH   2  39
ATOM     39  O   UNL     1      -1.392   0.266   0.335  0.00  0.00    -0.388 OA
ATOM     40  H   UNL     1      -1.914   0.561  -0.424  0.00  0.00    +0.210 HD
ENDBRANCH   2  39
TORSDOF 8
