REMARK  Name = ZINC58282365
REMARK  6 active torsions:
REMARK  status: ('A' for Active; 'I' for Inactive)
REMARK    1  A    between atoms: C_1  and  C_2
REMARK    2  A    between atoms: C_2  and  C_3
REMARK    3  A    between atoms: C_2  and  C_4
REMARK    4  A    between atoms: C_2  and  N_5
REMARK    5  A    between atoms: N_14  and  C_15
REMARK    6  A    between atoms: C_15  and  C_17
REMARK                            x       y       z     vdW  Elec       q    Type
REMARK                         _______ _______ _______ _____ _____    ______ ____
ROOT
ATOM      1  N   UNL     1       0.701  -0.476  -1.195  0.00  0.00    -0.306 N 
ATOM      2  C   UNL     1       0.909  -1.806  -1.546  0.00  0.00    +0.068 A 
ATOM      3  C   UNL     1       0.580  -3.009  -0.935  0.00  0.00    +0.028 A 
ATOM      4  C   UNL     1       0.928  -4.202  -1.536  0.00  0.00    +0.002 A 
ATOM      5  C   UNL     1       1.602  -4.205  -2.746  0.00  0.00    +0.002 A 
ATOM      6  C   UNL     1       1.934  -3.014  -3.361  0.00  0.00    +0.028 A 
ATOM      7  C   UNL     1       1.589  -1.809  -2.765  0.00  0.00    +0.066 A 
ATOM      8  N   UNL     1       1.781  -0.480  -3.131  0.00  0.00    -0.326 N 
ATOM      9  C   UNL     1       1.231   0.310  -2.170  0.00  0.00    +0.202 A 
ATOM     10  N   UNL     1       1.217   1.638  -2.181  0.00  0.00    -0.141 NA
ATOM     11  H   UNL     1       2.226  -0.171  -3.935  0.00  0.00    +0.169 HD
ENDROOT
BRANCH   1  13
ATOM     12  C   UNL     1      -0.004   1.527   0.019  0.00  0.00    +0.034 C 
ATOM     13  C   UNL     1       0.021  -0.003   0.013  0.00  0.00    +0.040 C 
ATOM     14  C   UNL     1       0.771  -0.505   1.249  0.00  0.00    +0.034 C 
ATOM     15  C   UNL     1      -1.412  -0.537   0.035  0.00  0.00    +0.034 C 
ENDBRANCH   1  13
BRANCH  10  16
ATOM     16  C   UNL     1       1.867   2.305  -3.140  0.00  0.00    +0.290 C 
ATOM     17  O   UNL     1       2.391   1.698  -4.056  0.00  0.00    -0.266 OA
BRANCH  16  18
ATOM     18  C   UNL     1       1.949   3.786  -3.087  0.00  0.00    +0.145 A 
ATOM     19  C   UNL     1       2.622   4.484  -4.089  0.00  0.00    +0.143 A 
ATOM     20  N   UNL     1       2.692   5.802  -4.038  0.00  0.00    -0.259 NA
ATOM     21  C   UNL     1       2.127   6.457  -3.040  0.00  0.00    +0.130 A 
ATOM     22  C   UNL     1       1.458   5.766  -2.042  0.00  0.00    +0.131 A 
ATOM     23  N   UNL     1       1.378   4.450  -2.088  0.00  0.00    -0.247 NA
ENDBRANCH  16  18
ENDBRANCH  10  16
TORSDOF 3
