REMARK  Name = ZINC62689366
REMARK  4 active torsions:
REMARK  status: ('A' for Active; 'I' for Inactive)
REMARK    1  A    between atoms: C_1  and  C_2
REMARK    2  A    between atoms: C_7  and  C_8
REMARK    3  A    between atoms: N_15  and  S_16
REMARK    4  A    between atoms: S_16  and  C_19
REMARK                            x       y       z     vdW  Elec       q    Type
REMARK                         _______ _______ _______ _____ _____    ______ ____
ROOT
ATOM      1  C   UNL     1       0.208  -0.062   2.555  0.00  0.00    +0.195 C 
ATOM      2  C   UNL     1      -1.171   0.132   3.125  0.00  0.00    +0.236 C 
ATOM      3  O   UNL     1      -1.889   0.973   2.627  0.00  0.00    -0.274 OA
ATOM      4  N   UNL     1      -1.640  -0.579   4.151  0.00  0.00    -0.312 N 
ATOM      5  C   UNL     1      -0.865  -1.556   4.903  0.00  0.00    +0.121 C 
ATOM      6  C   UNL     1       0.323  -2.058   4.079  0.00  0.00    +0.129 C 
ATOM      7  N   UNL     1       0.996  -0.890   3.481  0.00  0.00    -0.159 NA
ATOM      8  H   UNL     1      -2.562  -0.436   4.415  0.00  0.00    +0.149 HD
ENDROOT
BRANCH   1  15
ATOM      9  C   UNL     1       1.366   1.162   0.208  0.00  0.00    +0.044 C 
ATOM     10  C   UNL     1       0.664  -0.167   0.097  0.00  0.00    -0.045 A 
ATOM     11  C   UNL     1       0.580  -0.803  -1.128  0.00  0.00    +0.004 A 
ATOM     12  C   UNL     1      -0.064  -2.022  -1.230  0.00  0.00    +0.000 A 
ATOM     13  C   UNL     1      -0.623  -2.606  -0.108  0.00  0.00    +0.000 A 
ATOM     14  C   UNL     1      -0.537  -1.970   1.117  0.00  0.00    +0.006 A 
ATOM     15  C   UNL     1       0.111  -0.753   1.220  0.00  0.00    -0.017 A 
ENDBRANCH   1  15
BRANCH   7  16
ATOM     16  S   UNL     1       2.571  -0.523   3.838  0.00  0.00    +0.062 S 
ATOM     17  O   UNL     1       3.185  -1.734   4.258  0.00  0.00    -0.153 OA
ATOM     18  O   UNL     1       3.066   0.244   2.749  0.00  0.00    -0.153 OA
BRANCH  16  19
ATOM     19  C   UNL     1       2.553   0.545   5.239  0.00  0.00    +0.108 A 
ATOM     20  C   UNL     1       2.483   1.916   5.059  0.00  0.00    +0.030 A 
ATOM     21  C   UNL     1       2.468   2.762   6.152  0.00  0.00    +0.030 A 
ATOM     22  C   UNL     1       2.523   2.235   7.433  0.00  0.00    +0.067 A 
ATOM     23  C   UNL     1       2.594   0.852   7.614  0.00  0.00    +0.069 A 
ATOM     24  C   UNL     1       2.603   0.011   6.511  0.00  0.00    +0.056 A 
ATOM     25  N   UNL     1       2.637   0.628   8.988  0.00  0.00    -0.306 N 
ATOM     26  H   UNL     1       2.689  -0.239   9.420  0.00  0.00    +0.170 HD
ATOM     27  C   UNL     1       2.594   1.819   9.614  0.00  0.00    +0.325 A 
ATOM     28  O   UNL     1       2.614   1.978  10.820  0.00  0.00    -0.247 OA
ATOM     29  N   UNL     1       2.525   2.808   8.703  0.00  0.00    -0.306 N 
ATOM     30  H   UNL     1       2.484   3.757   8.897  0.00  0.00    +0.170 HD
ENDBRANCH  16  19
ENDBRANCH   7  16
TORSDOF 3
