REMARK  Name = ZINC62498008
REMARK  5 active torsions:
REMARK  status: ('A' for Active; 'I' for Inactive)
REMARK    1  A    between atoms: C_1  and  C_2
REMARK    2  A    between atoms: C_2  and  N_3
REMARK    3  A    between atoms: C_5  and  C_15
REMARK    4  A    between atoms: C_12  and  O_14
REMARK    5  A    between atoms: C_15  and  C_16
REMARK                            x       y       z     vdW  Elec       q    Type
REMARK                         _______ _______ _______ _____ _____    ______ ____
ROOT
ATOM      1  N   UNL     1      -1.372  -0.511   0.012  0.00  0.00    -0.324 N 
ATOM      2  C   UNL     1      -2.078  -0.776   1.278  0.00  0.00    +0.150 C 
ATOM      3  C   UNL     1      -3.516  -0.263   1.123  0.00  0.00    +0.195 C 
ATOM      4  O   UNL     1      -4.127  -0.930   0.016  0.00  0.00    -0.485 OA
ATOM      5  C   UNL     1      -3.442  -0.966  -1.158  0.00  0.00    +0.145 A 
ATOM      6  C   UNL     1      -2.067  -0.757  -1.186  0.00  0.00    +0.072 A 
ATOM      7  C   UNL     1      -1.381  -0.795  -2.389  0.00  0.00    +0.030 A 
ATOM      8  C   UNL     1      -2.067  -1.034  -3.567  0.00  0.00    +0.047 A 
ATOM      9  C   UNL     1      -3.438  -1.234  -3.542  0.00  0.00    +0.120 A 
ATOM     10  C   UNL     1      -4.123  -1.208  -2.341  0.00  0.00    +0.093 A 
ENDROOT
BRANCH   1  12
ATOM     11  C   UNL     1      -0.019   1.526   0.010  0.00  0.00    +0.024 C 
ATOM     12  C   UNL     1       0.002  -0.004   0.002  0.00  0.00    +0.102 C 
ENDBRANCH   1  12
BRANCH   9  13
ATOM     13  O   UNL     1      -4.110  -1.467  -4.702  0.00  0.00    -0.507 OA
ATOM     14  H   UNL     1      -4.176  -2.403  -4.937  0.00  0.00    +0.292 HD
ENDBRANCH   9  13
BRANCH   3  15
ATOM     15  C   UNL     1      -4.306  -0.556   2.401  0.00  0.00    +0.081 C 
BRANCH  15  16
ATOM     16  C   UNL     1      -5.679   0.056   2.295  0.00  0.00    -0.041 A 
ATOM     17  C   UNL     1      -5.894   1.351   2.729  0.00  0.00    +0.004 A 
ATOM     18  C   UNL     1      -7.152   1.913   2.632  0.00  0.00    +0.003 A 
ATOM     19  C   UNL     1      -8.198   1.182   2.101  0.00  0.00    +0.038 A 
ATOM     20  C   UNL     1      -7.984  -0.115   1.666  0.00  0.00    +0.124 A 
ATOM     21  C   UNL     1      -6.721  -0.675   1.758  0.00  0.00    +0.042 A 
ATOM     22  F   UNL     1      -9.006  -0.831   1.148  0.00  0.00    -0.205 F 
ENDBRANCH  15  16
ENDBRANCH   3  15
TORSDOF 4
