REMARK  Name = ZINC35685771
REMARK  6 active torsions:
REMARK  status: ('A' for Active; 'I' for Inactive)
REMARK    1  A    between atoms: C_1  and  C_2
REMARK    2  A    between atoms: C_2  and  N_3
REMARK    3  A    between atoms: C_14  and  S_16
REMARK    4  A    between atoms: S_16  and  N_19
REMARK    5  A    between atoms: N_19  and  C_20
REMARK    6  A    between atoms: C_23  and  O_26
REMARK                            x       y       z     vdW  Elec       q    Type
REMARK                         _______ _______ _______ _____ _____    ______ ____
ROOT
ATOM      1  N   UNL     1      -0.379  -3.885  -2.949  0.00  0.00    -0.234 N 
ATOM      2  C   UNL     1      -0.548  -4.764  -3.955  0.00  0.00    +0.254 C 
ATOM      3  O   UNL     1      -1.639  -5.268  -4.141  0.00  0.00    -0.270 OA
ATOM      4  C   UNL     1       0.580  -5.118  -4.830  0.00  0.00    +0.046 A 
ATOM      5  C   UNL     1       0.450  -6.018  -5.877  0.00  0.00    +0.014 A 
ATOM      6  C   UNL     1       1.546  -6.321  -6.676  0.00  0.00    +0.001 A 
ATOM      7  C   UNL     1       2.768  -5.752  -6.461  0.00  0.00    +0.008 A 
ATOM      8  C   UNL     1       2.942  -4.835  -5.410  0.00  0.00    -0.015 A 
ATOM      9  C   UNL     1       1.837  -4.518  -4.592  0.00  0.00    +0.006 A 
ATOM     10  C   UNL     1       1.980  -3.599  -3.527  0.00  0.00    +0.048 A 
ATOM     11  C   UNL     1       3.217  -3.016  -3.302  0.00  0.00    +0.042 A 
ATOM     12  C   UNL     1       4.298  -3.335  -4.116  0.00  0.00    +0.110 A 
ATOM     13  C   UNL     1       4.180  -4.221  -5.148  0.00  0.00    +0.037 A 
ATOM     14  C   UNL     1       0.804  -3.292  -2.699  0.00  0.00    +0.254 C 
ATOM     15  O   UNL     1       0.902  -2.501  -1.780  0.00  0.00    -0.270 OA
ENDROOT
BRANCH  12  16
ATOM     16  S   UNL     1       5.859  -2.578  -3.808  0.00  0.00    +0.072 S 
ATOM     17  O   UNL     1       6.527  -2.501  -5.060  0.00  0.00    -0.150 OA
ATOM     18  O   UNL     1       5.604  -1.432  -3.009  0.00  0.00    -0.150 OA
BRANCH  16  19
ATOM     19  N   UNL     1       6.733  -3.625  -2.869  0.00  0.00    -0.216 N 
ATOM     20  H   UNL     1       7.561  -4.003  -3.205  0.00  0.00    +0.174 HD
BRANCH  19  21
ATOM     21  C   UNL     1       6.278  -3.965  -1.590  0.00  0.00    +0.048 A 
ATOM     22  C   UNL     1       6.393  -3.056  -0.547  0.00  0.00    +0.028 A 
ATOM     23  C   UNL     1       5.943  -3.392   0.715  0.00  0.00    +0.047 A 
ATOM     24  C   UNL     1       5.375  -4.637   0.940  0.00  0.00    +0.117 A 
ATOM     25  C   UNL     1       5.260  -5.546  -0.101  0.00  0.00    +0.047 A 
ATOM     26  C   UNL     1       5.705  -5.210  -1.365  0.00  0.00    +0.028 A 
BRANCH  24  27
ATOM     27  O   UNL     1       4.932  -4.967   2.183  0.00  0.00    -0.507 OA
ATOM     28  H   UNL     1       4.007  -4.736   2.345  0.00  0.00    +0.292 HD
ENDBRANCH  24  27
ENDBRANCH  19  21
ENDBRANCH  16  19
ENDBRANCH  12  16
BRANCH   1  30
ATOM     29  C   UNL     1      -2.277  -2.364  -2.695  0.00  0.00    +0.025 C 
ATOM     30  C   UNL     1      -1.526  -3.556  -2.099  0.00  0.00    +0.113 C 
ENDBRANCH   1  30
TORSDOF 5
