REMARK  Name = ZINC50056750
REMARK  8 active torsions:
REMARK  status: ('A' for Active; 'I' for Inactive)
REMARK    1  A    between atoms: C_1  and  C_2
REMARK    2  A    between atoms: C_2  and  C_4
REMARK    3  A    between atoms: C_2  and  N_16
REMARK    4  A    between atoms: C_6  and  C_9
REMARK    5  A    between atoms: N_19  and  C_20
REMARK    6  A    between atoms: C_22  and  C_28
REMARK    7  A    between atoms: C_25  and  O_26
REMARK    8  A    between atoms: O_26  and  C_27
REMARK                            x       y       z     vdW  Elec       q    Type
REMARK                         _______ _______ _______ _____ _____    ______ ____
ROOT
ATOM      1  N   UNL     1      -1.366  -0.527   0.010  0.00  0.00    -0.288 N 
ATOM      2  C   UNL     1      -2.049  -0.649  -1.146  0.00  0.00    +0.305 C 
ATOM      3  O   UNL     1      -1.522  -0.343  -2.198  0.00  0.00    -0.252 OA
ATOM      4  N   UNL     1      -3.315  -1.109  -1.135  0.00  0.00    -0.266 N 
ATOM      5  H   UNL     1      -1.786  -0.771   0.850  0.00  0.00    +0.151 HD
ATOM      6  H   UNL     1      -3.713  -1.414  -0.305  0.00  0.00    +0.156 HD
ENDROOT
BRANCH   4   7
ATOM      7  C   UNL     1      -4.057  -1.148  -2.324  0.00  0.00    +0.077 A 
ATOM      8  C   UNL     1      -3.428  -1.424  -3.524  0.00  0.00    +0.040 A 
ATOM      9  C   UNL     1      -4.171  -1.462  -4.706  0.00  0.00    +0.038 A 
ATOM     10  C   UNL     1      -5.546  -1.220  -4.671  0.00  0.00    +0.017 A 
ATOM     11  C   UNL     1      -6.168  -0.946  -3.473  0.00  0.00    +0.048 A 
ATOM     12  C   UNL     1      -5.432  -0.913  -2.296  0.00  0.00    +0.141 A 
BRANCH   9  13
ATOM     13  C   UNL     1      -3.504  -1.756  -5.990  0.00  0.00    +0.242 C 
ATOM     14  O   UNL     1      -2.307  -1.965  -6.019  0.00  0.00    -0.270 OA
ATOM     15  N   UNL     1      -4.222  -1.792  -7.130  0.00  0.00    -0.325 N 
ATOM     16  H   UNL     1      -5.177  -1.625  -7.106  0.00  0.00    +0.145 HD
ATOM     17  H   UNL     1      -3.784  -1.985  -7.973  0.00  0.00    +0.145 HD
ENDBRANCH   9  13
BRANCH  12  18
ATOM     18  O   UNL     1      -6.051  -0.647  -1.117  0.00  0.00    -0.493 OA
ATOM     19  C   UNL     1      -7.460  -0.416  -1.161  0.00  0.00    +0.277 C 
ENDBRANCH  12  18
ENDBRANCH   4   7
BRANCH   1  21
ATOM     20  C   UNL     1      -0.003   1.504   0.015  0.00  0.00    +0.038 C 
ATOM     21  C   UNL     1       0.011  -0.026  -0.002  0.00  0.00    +0.160 C 
BRANCH  21  22
ATOM     22  C   UNL     1       0.741  -0.536   1.214  0.00  0.00    +0.248 A 
ATOM     23  N   UNL     1       1.945  -1.032   1.226  0.00  0.00    -0.190 NA
ATOM     24  C   UNL     1       2.284  -1.387   2.479  0.00  0.00    +0.202 A 
ATOM     25  N   UNL     1       1.282  -1.114   3.277  0.00  0.00    -0.056 NA
ATOM     26  O   UNL     1       0.263  -0.549   2.465  0.00  0.00    -0.336 OA
BRANCH  24  27
ATOM     27  C   UNL     1       3.577  -1.989   2.888  0.00  0.00    +0.023 A 
ATOM     28  C   UNL     1       4.569  -2.226   1.938  0.00  0.00    +0.014 A 
ATOM     29  C   UNL     1       5.770  -2.785   2.322  0.00  0.00    +0.039 A 
ATOM     30  C   UNL     1       5.991  -3.111   3.651  0.00  0.00    +0.123 A 
ATOM     31  C   UNL     1       5.008  -2.877   4.598  0.00  0.00    +0.039 A 
ATOM     32  C   UNL     1       3.806  -2.313   4.223  0.00  0.00    +0.014 A 
ATOM     33  F   UNL     1       7.169  -3.658   4.023  0.00  0.00    -0.205 F 
ENDBRANCH  24  27
ENDBRANCH  21  22
ENDBRANCH   1  21
TORSDOF 6
