REMARK  Name = ZINC39964608
REMARK  7 active torsions:
REMARK  status: ('A' for Active; 'I' for Inactive)
REMARK    1  A    between atoms: C_1  and  C_2
REMARK    2  A    between atoms: C_2  and  C_3
REMARK    3  A    between atoms: C_20  and  N_24
REMARK    4  A    between atoms: C_21  and  C_22
REMARK    5  A    between atoms: C_28  and  C_32
REMARK    6  A    between atoms: C_28  and  C_33
REMARK    7  A    between atoms: C_30  and  C_31
REMARK                            x       y       z     vdW  Elec       q    Type
REMARK                         _______ _______ _______ _____ _____    ______ ____
ROOT
ATOM      1  C   UNL     1       0.707  -0.490  -1.238  0.00  0.00    -0.047 A 
ATOM      2  C   UNL     1      -0.039  -0.710  -2.384  0.00  0.00    +0.013 A 
ATOM      3  C   UNL     1       0.574  -1.156  -3.543  0.00  0.00    -0.000 A 
ATOM      4  C   UNL     1       1.965  -1.365  -3.485  0.00  0.00    +0.049 A 
ATOM      5  C   UNL     1       2.705  -1.143  -2.334  0.00  0.00    -0.004 A 
ATOM      6  C   UNL     1       2.086  -0.695  -1.187  0.00  0.00    +0.010 A 
ATOM      7  C   UNL     1       4.110  -1.484  -2.710  0.00  0.00    +0.133 C 
ATOM      8  C   UNL     1       4.635  -2.652  -1.872  0.00  0.00    +0.183 C 
ATOM      9  C   UNL     1       4.007  -3.935  -2.330  0.00  0.00    +0.234 C 
ATOM     10  O   UNL     1       2.800  -4.047  -2.300  0.00  0.00    -0.274 OA
ATOM     11  N   UNL     1       4.749  -4.963  -2.772  0.00  0.00    -0.238 N 
ATOM     12  C   UNL     1       6.088  -4.882  -2.833  0.00  0.00    +0.332 C 
ATOM     13  O   UNL     1       6.724  -5.847  -3.212  0.00  0.00    -0.250 OA
ATOM     14  N   UNL     1       6.741  -3.763  -2.487  0.00  0.00    -0.131 NA
ATOM     15  C   UNL     1       6.135  -2.701  -2.048  0.00  0.00    +0.205 C 
ATOM     16  O   UNL     1       6.828  -1.582  -1.741  0.00  0.00    -0.428 OA
ATOM     17  C   UNL     1       6.287  -0.403  -2.118  0.00  0.00    +0.200 C 
ATOM     18  C   UNL     1       5.017  -0.296  -2.568  0.00  0.00    +0.107 C 
ATOM     19  C   UNL     1       4.029  -1.902  -4.169  0.00  0.00    +0.238 C 
ATOM     20  O   UNL     1       4.957  -2.256  -4.865  0.00  0.00    -0.274 OA
ATOM     21  N   UNL     1       2.741  -1.807  -4.547  0.00  0.00    -0.260 N 
ATOM     22  C   UNL     1       2.146  -2.103  -5.857  0.00  0.00    +0.055 C 
ATOM     23  C   UNL     1       0.666  -1.864  -5.856  0.00  0.00    +0.002 C 
ATOM     24  C   UNL     1      -0.062  -1.441  -4.836  0.00  0.00    -0.043 C 
ATOM     25  C   UNL     1      -1.548  -1.250  -5.001  0.00  0.00    +0.044 C 
ATOM     26  C   UNL     1       2.796  -1.209  -6.914  0.00  0.00    +0.036 C 
ATOM     27  C   UNL     1       2.415  -3.568  -6.208  0.00  0.00    +0.036 C 
ATOM     28  H   UNL     1       4.309  -5.780  -3.053  0.00  0.00    +0.159 HD
ENDROOT
BRANCH  17  29
ATOM     29  N   UNL     1       7.057   0.731  -2.040  0.00  0.00    -0.328 N 
ATOM     30  H   UNL     1       7.971   0.676  -1.720  0.00  0.00    +0.145 HD
ATOM     31  H   UNL     1       6.688   1.588  -2.306  0.00  0.00    +0.145 HD
ENDBRANCH  17  29
BRANCH   1  33
ATOM     32  C   UNL     1      -0.019   1.526   0.010  0.00  0.00    +0.009 C 
ATOM     33  C   UNL     1       0.002  -0.004   0.002  0.00  0.00    +0.032 C 
ENDBRANCH   1  33
BRANCH  18  34
ATOM     34  C   UNL     1       4.519   0.998  -2.923  0.00  0.00    +0.101 C 
ATOM     35  N   UNL     1       4.123   2.025  -3.205  0.00  0.00    -0.191 NA
ENDBRANCH  18  34
TORSDOF 3
