REMARK  Name = ZINC00249364
REMARK  4 active torsions:
REMARK  status: ('A' for Active; 'I' for Inactive)
REMARK    1  A    between atoms: C_1  and  C_2
REMARK    2  A    between atoms: C_7  and  N_8
REMARK    3  A    between atoms: N_8  and  S_9
REMARK    4  A    between atoms: S_9  and  C_12
REMARK                            x       y       z     vdW  Elec       q    Type
REMARK                         _______ _______ _______ _____ _____    ______ ____
ROOT
ATOM      1  N   UNL     1       0.026  -0.016   2.415  0.00  0.00    -0.216 N 
ATOM      2  H   UNL     1      -0.523   0.778   2.512  0.00  0.00    +0.174 HD
ENDROOT
BRANCH   1   9
ATOM      3  C   UNL     1       0.162   1.694   0.146  0.00  0.00    +0.046 C 
ATOM      4  C   UNL     1       0.265   0.196   0.023  0.00  0.00    -0.028 A 
ATOM      5  C   UNL     1       0.425  -0.386  -1.219  0.00  0.00    +0.005 A 
ATOM      6  C   UNL     1       0.523  -1.761  -1.333  0.00  0.00    +0.000 A 
ATOM      7  C   UNL     1       0.452  -2.558  -0.205  0.00  0.00    +0.002 A 
ATOM      8  C   UNL     1       0.287  -1.983   1.040  0.00  0.00    +0.025 A 
ATOM      9  C   UNL     1       0.193  -0.602   1.158  0.00  0.00    +0.051 A 
ENDBRANCH   1   9
BRANCH   1  10
ATOM     10  S   UNL     1       0.765  -0.678   3.741  0.00  0.00    +0.079 S 
ATOM     11  O   UNL     1       0.521   0.207   4.826  0.00  0.00    -0.149 OA
ATOM     12  O   UNL     1       0.388  -2.048   3.775  0.00  0.00    -0.149 OA
BRANCH  10  13
ATOM     13  C   UNL     1       2.501  -0.641   3.442  0.00  0.00    +0.146 A 
ATOM     14  C   UNL     1       3.399   0.329   3.741  0.00  0.00    +0.036 A 
ATOM     15  C   UNL     1       4.727   0.140   3.410  0.00  0.00    +0.010 A 
ATOM     16  C   UNL     1       5.093  -1.011   2.795  0.00  0.00    +0.047 A 
ATOM     17  S   UNL     1       3.536  -1.876   2.673  0.00  0.00    -0.077 S 
ENDBRANCH  10  13
ENDBRANCH   1  10
TORSDOF 3
