REMARK  Name = ZINC50224275
REMARK  7 active torsions:
REMARK  status: ('A' for Active; 'I' for Inactive)
REMARK    1  A    between atoms: C_1  and  C_2
REMARK    2  A    between atoms: C_3  and  C_20
REMARK    3  A    between atoms: C_7  and  N_19
REMARK    4  A    between atoms: C_9  and  C_11
REMARK    5  A    between atoms: C_11  and  N_12
REMARK    6  A    between atoms: C_14  and  C_17
REMARK    7  A    between atoms: C_17  and  N_18
REMARK                            x       y       z     vdW  Elec       q    Type
REMARK                         _______ _______ _______ _____ _____    ______ ____
ROOT
ATOM      1  C   UNL     1      -1.596   1.384   0.669  0.00  0.00    +0.045 C 
ATOM      2  C   UNL     1      -1.424  -0.111   0.597  0.00  0.00    -0.028 A 
ATOM      3  C   UNL     1      -2.079  -0.826  -0.330  0.00  0.00    -0.008 A 
ATOM      4  S   UNL     1      -1.557  -2.500  -0.011  0.00  0.00    -0.074 S 
ATOM      5  C   UNL     1      -0.472  -2.195   1.358  0.00  0.00    +0.114 A 
ATOM      6  C   UNL     1      -0.541  -0.794   1.526  0.00  0.00    +0.050 A 
ATOM      7  C   UNL     1       0.255  -0.267   2.579  0.00  0.00    +0.128 A 
ATOM      8  N   UNL     1       0.991  -1.091   3.307  0.00  0.00    -0.215 NA
ATOM      9  C   UNL     1       1.012  -2.394   3.089  0.00  0.00    +0.154 A 
ATOM     10  N   UNL     1       0.286  -2.944   2.134  0.00  0.00    -0.223 NA
ATOM     11  C   UNL     1      -3.032  -0.331  -1.388  0.00  0.00    +0.052 C 
ENDROOT
BRANCH   7  12
ATOM     12  N   UNL     1       0.262   1.092   2.839  0.00  0.00    -0.343 N 
ATOM     13  H   UNL     1       0.110   1.724   2.119  0.00  0.00    +0.144 HD
ATOM     14  H   UNL     1       0.418   1.412   3.741  0.00  0.00    +0.144 HD
ENDBRANCH   7  12
BRANCH   9  15
ATOM     15  C   UNL     1       1.873  -3.273   3.958  0.00  0.00    +0.221 C 
BRANCH  15  16
ATOM     16  N   UNL     1       1.100  -3.721   5.119  0.00  0.00    -0.244 N 
ATOM     17  C   UNL     1       0.912  -5.007   5.498  0.00  0.00    +0.132 A 
ATOM     18  C   UNL     1       0.143  -4.963   6.611  0.00  0.00    +0.066 A 
ATOM     19  N   UNL     1      -0.099  -3.670   6.855  0.00  0.00    -0.136 NA
ATOM     20  N   UNL     1       0.486  -2.960   5.956  0.00  0.00    -0.065 NA
BRANCH  18  21
ATOM     21  C   UNL     1      -0.344  -6.139   7.417  0.00  0.00    -0.027 C 
BRANCH  21  22
ATOM     22  N   UNL     1       0.576  -6.382   8.536  0.00  0.00    +0.382 N 
ATOM     23  H   UNL     1       1.498  -6.579   8.177  0.00  0.00    -0.090 HD
ATOM     24  H   UNL     1       0.612  -5.563   9.124  0.00  0.00    -0.090 HD
ATOM     25  H   UNL     1       0.249  -7.169   9.075  0.00  0.00    -0.090 HD
ENDBRANCH  21  22
ENDBRANCH  18  21
ENDBRANCH  15  16
ENDBRANCH   9  15
TORSDOF 5
