REMARK  Name = ZINC27530877
REMARK  8 active torsions:
REMARK  status: ('A' for Active; 'I' for Inactive)
REMARK    1  A    between atoms: C_1  and  O_2
REMARK    2  A    between atoms: O_2  and  C_3
REMARK    3  A    between atoms: C_5  and  C_10
REMARK    4  A    between atoms: C_8  and  O_9
REMARK    5  A    between atoms: C_14  and  C_24
REMARK    6  A    between atoms: C_19  and  N_23
REMARK    7  A    between atoms: C_20  and  C_21
REMARK    8  A    between atoms: C_28  and  N_30
REMARK                            x       y       z     vdW  Elec       q    Type
REMARK                         _______ _______ _______ _____ _____    ______ ____
ROOT
ATOM      1  C   UNL     1      -4.922  -0.146   0.153  0.00  0.00    +0.082 C 
ATOM      2  C   UNL     1      -5.754  -0.223   1.439  0.00  0.00    +0.140 C 
ATOM      3  C   UNL     1      -5.261   0.778   2.458  0.00  0.00    +0.084 C 
ATOM      4  N   UNL     1      -6.242   1.620   2.643  0.00  0.00    -0.150 NA
ATOM      5  N   UNL     1      -7.343   1.333   1.837  0.00  0.00    -0.115 NA
ATOM      6  C   UNL     1      -7.138   0.304   1.072  0.00  0.00    +0.227 C 
ATOM      7  O   UNL     1      -7.855  -0.249   0.069  0.00  0.00    -0.425 OA
ATOM      8  C   UNL     1      -7.114  -0.627  -1.004  0.00  0.00    +0.200 C 
ATOM      9  C   UNL     1      -5.764  -0.603  -1.008  0.00  0.00    +0.095 C 
ENDROOT
BRANCH   1  12
ATOM     10  C   UNL     1      -1.333  -1.317   0.299  0.00  0.00    +0.162 A 
ATOM     11  C   UNL     1      -2.445  -0.498   0.182  0.00  0.00    +0.053 A 
ATOM     12  C   UNL     1      -3.714  -1.038   0.280  0.00  0.00    -0.034 A 
ATOM     13  C   UNL     1      -3.877  -2.394   0.496  0.00  0.00    +0.008 A 
ATOM     14  C   UNL     1      -2.772  -3.216   0.614  0.00  0.00    +0.049 A 
ATOM     15  C   UNL     1      -1.497  -2.682   0.510  0.00  0.00    +0.158 A 
BRANCH  10  17
ATOM     16  C   UNL     1       0.008   0.622  -0.016  0.00  0.00    +0.277 C 
ATOM     17  O   UNL     1      -0.084  -0.787   0.202  0.00  0.00    -0.491 OA
ENDBRANCH  10  17
BRANCH  15  18
ATOM     18  O   UNL     1      -0.409  -3.490   0.620  0.00  0.00    -0.503 OA
ATOM     19  H   UNL     1      -0.083  -3.591   1.525  0.00  0.00    +0.292 HD
ENDBRANCH  15  18
ENDBRANCH   1  12
BRANCH   3  20
ATOM     20  C   UNL     1      -3.942   0.799   3.111  0.00  0.00    +0.001 A 
ATOM     21  C   UNL     1      -3.199  -0.379   3.233  0.00  0.00    +0.010 A 
ATOM     22  C   UNL     1      -1.964  -0.351   3.845  0.00  0.00    +0.003 A 
ATOM     23  C   UNL     1      -1.459   0.839   4.339  0.00  0.00    +0.033 A 
ATOM     24  C   UNL     1      -2.188   2.009   4.223  0.00  0.00    +0.127 A 
ATOM     25  C   UNL     1      -3.423   1.999   3.608  0.00  0.00    +0.042 A 
BRANCH  24  26
ATOM     26  N   UNL     1      -1.640   3.277   4.755  0.00  0.00    +0.056 N 
ATOM     27  O   UNL     1      -0.556   3.289   5.290  0.00  0.00    -0.126 OA
ATOM     28  O   UNL     1      -2.276   4.300   4.654  0.00  0.00    -0.126 OA
ENDBRANCH  24  26
ENDBRANCH   3  20
BRANCH   8  29
ATOM     29  N   UNL     1      -7.766  -1.050  -2.136  0.00  0.00    -0.328 N 
ATOM     30  H   UNL     1      -8.735  -1.075  -2.157  0.00  0.00    +0.145 HD
ATOM     31  H   UNL     1      -7.257  -1.325  -2.915  0.00  0.00    +0.145 HD
ENDBRANCH   8  29
BRANCH   9  32
ATOM     32  C   UNL     1      -5.089  -1.042  -2.192  0.00  0.00    +0.100 C 
ATOM     33  N   UNL     1      -4.554  -1.391  -3.131  0.00  0.00    -0.191 NA
ENDBRANCH   9  32
TORSDOF 7
