REMARK  Name = ZINC38652938
REMARK  10 active torsions:
REMARK  status: ('A' for Active; 'I' for Inactive)
REMARK    1  A    between atoms: C_1  and  C_2
REMARK    2  A    between atoms: N_5  and  C_8
REMARK    3  A    between atoms: C_8  and  C_10
REMARK    4  A    between atoms: C_8  and  C_11
REMARK    5  A    between atoms: N_13  and  C_14
REMARK    6  A    between atoms: C_18  and  O_28
REMARK    7  A    between atoms: C_22  and  C_24
REMARK    8  A    between atoms: C_24  and  O_26
REMARK    9  A    between atoms: O_26  and  C_27
REMARK   10  A    between atoms: O_28  and  C_29
REMARK                            x       y       z     vdW  Elec       q    Type
REMARK                         _______ _______ _______ _____ _____    ______ ____
ROOT
ATOM      1  C   UNL     1      -4.167  -6.523   1.667  0.00  0.00    +0.053 C 
ATOM      2  C   UNL     1      -5.019  -7.572   1.954  0.00  0.00    +0.018 A 
ATOM      3  C   UNL     1      -4.831  -8.976   1.974  0.00  0.00    +0.015 A 
ATOM      4  C   UNL     1      -5.864  -9.789   2.299  0.00  0.00    +0.046 A 
ATOM      5  C   UNL     1      -7.130  -9.274   2.620  0.00  0.00    +0.122 A 
ATOM      6  C   UNL     1      -7.380  -7.935   2.621  0.00  0.00    +0.071 A 
ATOM      7  C   UNL     1      -6.346  -7.027   2.291  0.00  0.00    +0.048 A 
ATOM      8  N   UNL     1      -6.333  -5.709   2.221  0.00  0.00    -0.367 N 
ATOM      9  C   UNL     1      -4.990  -5.265   1.835  0.00  0.00    +0.234 C 
ATOM     10  H   UNL     1      -7.089  -5.128   2.399  0.00  0.00    +0.161 HD
ENDROOT
BRANCH   1  13
ATOM     11  C   UNL     1      -2.125  -5.481   1.159  0.00  0.00    +0.203 C 
ATOM     12  O   UNL     1      -2.612  -4.402   1.424  0.00  0.00    -0.277 OA
ATOM     13  N   UNL     1      -2.853  -6.604   1.310  0.00  0.00    -0.288 N 
ATOM     14  H   UNL     1      -2.443  -7.471   1.165  0.00  0.00    +0.155 HD
BRANCH  11  15
ATOM     15  C   UNL     1      -0.705  -5.564   0.662  0.00  0.00    +0.016 C 
ATOM     16  C   UNL     1       0.147  -6.327   1.678  0.00  0.00    -0.004 C 
BRANCH  15  21
ATOM     17  C   UNL     1       2.270  -0.699   0.654  0.00  0.00    +0.007 C 
ATOM     18  C   UNL     1       1.817  -2.138   0.906  0.00  0.00    -0.018 C 
ATOM     19  C   UNL     1       1.669  -2.871  -0.430  0.00  0.00    -0.015 C 
ATOM     20  C   UNL     1       1.140  -4.284  -0.175  0.00  0.00    -0.078 C 
ATOM     21  N   UNL     1      -0.166  -4.208   0.490  0.00  0.00    +0.387 N 
ATOM     22  C   UNL     1      -0.020  -3.571   1.804  0.00  0.00    -0.078 C 
ATOM     23  C   UNL     1       0.464  -2.130   1.625  0.00  0.00    -0.015 C 
ATOM     24  H   UNL     1      -0.800  -3.666  -0.078  0.00  0.00    -0.081 HD
ENDBRANCH  15  21
ENDBRANCH  11  15
ENDBRANCH   1  13
BRANCH   9  25
ATOM     25  C   UNL     1      -5.050  -4.506   0.535  0.00  0.00    +0.335 C 
ATOM     26  O   UNL     1      -5.820  -4.851  -0.330  0.00  0.00    -0.248 OA
BRANCH  25  27
ATOM     27  O   UNL     1      -4.249  -3.448   0.338  0.00  0.00    -0.466 OA
ATOM     28  C   UNL     1      -4.359  -2.775  -0.918  0.00  0.00    +0.280 C 
ENDBRANCH  25  27
ENDBRANCH   9  25
BRANCH   5  29
ATOM     29  O   UNL     1      -8.131 -10.133   2.938  0.00  0.00    -0.495 OA
ATOM     30  C   UNL     1      -7.819 -11.527   2.922  0.00  0.00    +0.277 C 
ENDBRANCH   5  29
TORSDOF 6
