REMARK  Name = ZINC43865122
REMARK  6 active torsions:
REMARK  status: ('A' for Active; 'I' for Inactive)
REMARK    1  A    between atoms: C_1  and  C_2
REMARK    2  A    between atoms: C_4  and  C_7
REMARK    3  A    between atoms: C_7  and  N_8
REMARK    4  A    between atoms: N_11  and  C_12
REMARK    5  A    between atoms: C_12  and  C_14
REMARK    6  A    between atoms: C_12  and  C_15
REMARK                            x       y       z     vdW  Elec       q    Type
REMARK                         _______ _______ _______ _____ _____    ______ ____
ROOT
ATOM      1  N   UNL     1      -2.447  -3.317   1.371  0.00  0.00    -0.294 N 
ATOM      2  C   UNL     1      -3.484  -4.141   1.617  0.00  0.00    +0.300 C 
ATOM      3  O   UNL     1      -4.048  -4.700   0.696  0.00  0.00    -0.253 OA
ATOM      4  N   UNL     1      -3.896  -4.347   2.884  0.00  0.00    -0.290 N 
ATOM      5  H   UNL     1      -1.997  -2.871   2.106  0.00  0.00    +0.151 HD
ATOM      6  H   UNL     1      -3.446  -3.901   3.619  0.00  0.00    +0.151 HD
ENDROOT
BRANCH   4   7
ATOM      7  C   UNL     1      -5.023  -5.244   3.151  0.00  0.00    +0.137 C 
ATOM      8  C   UNL     1      -4.519  -6.686   3.236  0.00  0.00    +0.036 C 
BRANCH   7   9
ATOM      9  C   UNL     1      -5.672  -4.860   4.456  0.00  0.00    +0.126 A 
ATOM     10  C   UNL     1      -6.992  -4.852   4.683  0.00  0.00    +0.055 A 
ATOM     11  C   UNL     1      -7.165  -4.418   6.075  0.00  0.00    +0.020 A 
ATOM     12  C   UNL     1      -8.269  -4.209   6.901  0.00  0.00    +0.011 A 
ATOM     13  C   UNL     1      -8.082  -3.791   8.189  0.00  0.00    +0.001 A 
ATOM     14  C   UNL     1      -6.801  -3.573   8.678  0.00  0.00    +0.004 A 
ATOM     15  C   UNL     1      -5.698  -3.775   7.876  0.00  0.00    +0.047 A 
ATOM     16  C   UNL     1      -5.867  -4.200   6.564  0.00  0.00    +0.135 A 
ATOM     17  O   UNL     1      -5.009  -4.482   5.563  0.00  0.00    -0.458 OA
ENDBRANCH   7   9
ENDBRANCH   4   7
BRANCH   1  18
ATOM     18  C   UNL     1      -1.999  -3.093  -0.006  0.00  0.00    +0.161 C 
BRANCH  18  22
ATOM     19  C   UNL     1      -0.018   1.503   0.010  0.00  0.00    +0.073 C 
ATOM     20  C   UNL     1       0.002  -0.004   0.002  0.00  0.00    +0.076 A 
ATOM     21  N   UNL     1      -1.013  -0.832   0.002  0.00  0.00    -0.248 NA
ATOM     22  C   UNL     1      -0.834  -2.137  -0.006  0.00  0.00    +0.066 A 
ATOM     23  C   UNL     1       0.449  -2.582  -0.014  0.00  0.00    +0.071 A 
ATOM     24  S   UNL     1       1.335  -1.032  -0.017  0.00  0.00    -0.080 S 
ENDBRANCH  18  22
ENDBRANCH   1  18
TORSDOF 4
