REMARK  Name = ZINC34749757
REMARK  7 active torsions:
REMARK  status: ('A' for Active; 'I' for Inactive)
REMARK    1  A    between atoms: C_1  and  C_2
REMARK    2  A    between atoms: C_5  and  C_35
REMARK    3  A    between atoms: C_6  and  C_8
REMARK    4  A    between atoms: C_8  and  N_9
REMARK    5  A    between atoms: C_19  and  C_22
REMARK    6  A    between atoms: N_30  and  C_31
REMARK    7  A    between atoms: C_31  and  C_32
REMARK                            x       y       z     vdW  Elec       q    Type
REMARK                         _______ _______ _______ _____ _____    ______ ____
ROOT
ATOM      1  N   UNL     1       1.508  -3.120   2.693  0.00  0.00    +0.384 N 
ATOM      2  C   UNL     1       2.444  -2.005   2.877  0.00  0.00    -0.059 C 
ATOM      3  C   UNL     1       3.853  -2.557   3.123  0.00  0.00    +0.089 C 
ATOM      4  N   UNL     1       3.795  -3.494   4.255  0.00  0.00    -0.304 N 
ATOM      5  C   UNL     1       2.771  -4.551   4.229  0.00  0.00    +0.089 C 
ATOM      6  C   UNL     1       1.414  -3.905   3.931  0.00  0.00    -0.059 C 
ATOM      7  C   UNL     1       4.671  -3.387   5.306  0.00  0.00    +0.202 A 
ATOM      8  N   UNL     1       4.359  -2.630   6.337  0.00  0.00    -0.208 NA
ATOM      9  C   UNL     1       5.187  -2.507   7.369  0.00  0.00    +0.118 A 
ATOM     10  C   UNL     1       6.425  -3.170   7.413  0.00  0.00    +0.080 A 
ATOM     11  C   UNL     1       7.213  -2.927   8.618  0.00  0.00    +0.004 A 
ATOM     12  C   UNL     1       6.709  -2.108   9.571  0.00  0.00    +0.056 A 
ATOM     13  S   UNL     1       5.134  -1.611   8.900  0.00  0.00    -0.076 S 
ATOM     14  C   UNL     1       6.737  -3.983   6.280  0.00  0.00    +0.265 A 
ATOM     15  O   UNL     1       7.790  -4.596   6.231  0.00  0.00    -0.267 OA
ATOM     16  N   UNL     1       5.851  -4.069   5.271  0.00  0.00    -0.271 N 
ATOM     17  H   UNL     1       1.837  -3.713   1.945  0.00  0.00    -0.081 HD
ENDROOT
BRANCH  11  18
ATOM     18  C   UNL     1       8.539  -3.565   8.795  0.00  0.00    -0.017 A 
ATOM     19  C   UNL     1       8.688  -4.936   8.593  0.00  0.00    +0.008 A 
ATOM     20  C   UNL     1       9.925  -5.524   8.759  0.00  0.00    +0.001 A 
ATOM     21  C   UNL     1      11.016  -4.756   9.124  0.00  0.00    +0.000 A 
ATOM     22  C   UNL     1      10.874  -3.395   9.326  0.00  0.00    +0.001 A 
ATOM     23  C   UNL     1       9.643  -2.795   9.157  0.00  0.00    +0.008 A 
ENDBRANCH  11  18
BRANCH   1  24
ATOM     24  C   UNL     1       0.181  -2.592   2.349  0.00  0.00    -0.043 C 
BRANCH  24  30
ATOM     25  C   UNL     1       0.498   1.633  -0.314  0.00  0.00    +0.044 C 
ATOM     26  C   UNL     1       0.401   0.131  -0.257  0.00  0.00    -0.050 A 
ATOM     27  C   UNL     1       0.374  -0.605  -1.427  0.00  0.00    +0.003 A 
ATOM     28  C   UNL     1       0.284  -1.983  -1.375  0.00  0.00    +0.004 A 
ATOM     29  C   UNL     1       0.222  -2.626  -0.153  0.00  0.00    -0.049 A 
ATOM     30  C   UNL     1       0.249  -1.891   1.017  0.00  0.00    -0.061 A 
ATOM     31  C   UNL     1       0.344  -0.512   0.965  0.00  0.00    +0.005 A 
ATOM     32  C   UNL     1       0.123  -4.129  -0.097  0.00  0.00    +0.044 C 
ENDBRANCH  24  30
ENDBRANCH   1  24
BRANCH  16  33
ATOM     33  C   UNL     1       6.163  -4.906   4.110  0.00  0.00    +0.223 C 
BRANCH  33  34
ATOM     34  C   UNL     1       6.969  -4.108   3.117  0.00  0.00    +0.230 C 
ATOM     35  O   UNL     1       7.254  -2.954   3.356  0.00  0.00    -0.274 OA
ATOM     36  N   UNL     1       7.372  -4.677   1.964  0.00  0.00    -0.328 N 
ATOM     37  H   UNL     1       7.144  -5.601   1.773  0.00  0.00    +0.145 HD
ATOM     38  H   UNL     1       7.891  -4.164   1.325  0.00  0.00    +0.145 HD
ENDBRANCH  33  34
ENDBRANCH  16  33
TORSDOF 5
