REMARK  Name = ZINC50786606
REMARK  6 active torsions:
REMARK  status: ('A' for Active; 'I' for Inactive)
REMARK    1  A    between atoms: C_1  and  C_2
REMARK    2  A    between atoms: C_2  and  C_4
REMARK    3  A    between atoms: C_2  and  N_11
REMARK    4  A    between atoms: C_12  and  C_14
REMARK    5  A    between atoms: C_16  and  N_21
REMARK    6  A    between atoms: N_21  and  C_22
REMARK                            x       y       z     vdW  Elec       q    Type
REMARK                         _______ _______ _______ _____ _____    ______ ____
ROOT
ATOM      1  N   UNL     1      -1.372  -0.511   0.012  0.00  0.00    -0.305 N 
ATOM      2  C   UNL     1      -2.029  -0.655   1.181  0.00  0.00    +0.245 C 
ATOM      3  O   UNL     1      -1.480  -0.364   2.225  0.00  0.00    -0.270 OA
ATOM      4  H   UNL     1      -1.810  -0.743  -0.822  0.00  0.00    +0.150 HD
ENDROOT
BRANCH   2   5
ATOM      5  C   UNL     1      -3.419  -1.168   1.191  0.00  0.00    +0.043 A 
ATOM      6  C   UNL     1      -4.117  -1.319   2.390  0.00  0.00    +0.056 A 
ATOM      7  C   UNL     1      -5.420  -1.803   2.354  0.00  0.00    +0.121 A 
ATOM      8  N   UNL     1      -5.993  -2.118   1.203  0.00  0.00    -0.221 NA
ATOM      9  C   UNL     1      -5.362  -1.988   0.051  0.00  0.00    +0.132 A 
ATOM     10  C   UNL     1      -4.067  -1.508  -0.001  0.00  0.00    +0.053 A 
ATOM     11 CL   UNL     1      -6.174  -2.419  -1.422  0.00  0.00    -0.062 Cl
BRANCH   7  12
ATOM     12  N   UNL     1      -6.129  -1.959   3.539  0.00  0.00    -0.332 N 
ATOM     13  C   UNL     1      -5.502  -1.614   4.818  0.00  0.00    +0.127 C 
ATOM     14  H   UNL     1      -7.038  -2.297   3.520  0.00  0.00    +0.147 HD
ENDBRANCH   7  12
ENDBRANCH   2   5
BRANCH   1  16
ATOM     15  C   UNL     1      -0.019   1.526   0.010  0.00  0.00    +0.033 C 
ATOM     16  C   UNL     1       0.002  -0.004   0.002  0.00  0.00    +0.102 C 
BRANCH  16  17
ATOM     17  C   UNL     1       0.707  -0.490  -1.238  0.00  0.00    -0.009 A 
ATOM     18  C   UNL     1      -0.023  -0.817  -2.365  0.00  0.00    +0.007 A 
ATOM     19  C   UNL     1       0.624  -1.263  -3.502  0.00  0.00    +0.000 A 
ATOM     20  C   UNL     1       2.002  -1.382  -3.513  0.00  0.00    +0.001 A 
ATOM     21  C   UNL     1       2.733  -1.055  -2.387  0.00  0.00    +0.020 A 
ATOM     22  C   UNL     1       2.086  -0.604  -1.250  0.00  0.00    +0.046 A 
ATOM     23 CL   UNL     1       3.004  -0.187   0.163  0.00  0.00    -0.083 Cl
ENDBRANCH  16  17
ENDBRANCH   1  16
TORSDOF 4
