REMARK  Name = ZINC44248556
REMARK  7 active torsions:
REMARK  status: ('A' for Active; 'I' for Inactive)
REMARK    1  A    between atoms: C_1  and  C_2
REMARK    2  A    between atoms: C_17  and  C_29
REMARK    3  A    between atoms: C_22  and  C_23
REMARK    4  A    between atoms: C_22  and  O_28
REMARK    5  A    between atoms: C_23  and  C_25
REMARK    6  A    between atoms: C_23  and  O_27
REMARK    7  A    between atoms: C_25  and  O_26
REMARK                            x       y       z     vdW  Elec       q    Type
REMARK                         _______ _______ _______ _____ _____    ______ ____
ROOT
ATOM      1  C   UNL     1      -0.019   1.529   0.011  0.00  0.00    +0.016 C 
ATOM      2  C   UNL     1       0.002  -0.004   0.002  0.00  0.00    -0.007 C 
ATOM      3  C   UNL     1       0.724  -0.405  -1.276  0.00  0.00    +0.019 C 
ATOM      4  C   UNL     1       2.217  -0.083  -1.206  0.00  0.00    +0.080 C 
ATOM      5  C   UNL     1       2.801  -0.786   0.000  0.00  0.00    +0.156 C 
ATOM      6  O   UNL     1       3.892  -1.323  -0.054  0.00  0.00    -0.293 OA
ATOM      7  C   UNL     1       2.013  -0.797   1.234  0.00  0.00    +0.046 C 
ATOM      8  C   UNL     1       0.736  -0.414   1.233  0.00  0.00    -0.060 C 
ATOM      9  C   UNL     1       0.010  -0.379   2.564  0.00  0.00    +0.032 C 
ATOM     10  C   UNL     1      -1.305  -1.123   2.418  0.00  0.00    +0.008 C 
ATOM     11  C   UNL     1      -2.164  -0.577   1.287  0.00  0.00    -0.003 C 
ATOM     12  C   UNL     1      -1.444  -0.421  -0.030  0.00  0.00    +0.002 C 
ATOM     13  C   UNL     1      -1.720  -1.593  -0.964  0.00  0.00    +0.005 C 
ATOM     14  C   UNL     1      -3.193  -1.579  -1.409  0.00  0.00    +0.010 C 
ATOM     15  C   UNL     1      -4.072  -1.248  -0.229  0.00  0.00    +0.002 C 
ATOM     16  C   UNL     1      -3.333  -1.541   1.094  0.00  0.00    +0.001 C 
ATOM     17  C   UNL     1      -4.448  -1.369   2.139  0.00  0.00    +0.007 C 
ATOM     18  C   UNL     1      -5.730  -1.869   1.425  0.00  0.00    +0.038 C 
ATOM     19  C   UNL     1      -5.344  -2.090  -0.062  0.00  0.00    +0.100 C 
ATOM     20  C   UNL     1      -4.502   0.225  -0.299  0.00  0.00    +0.014 C 
ENDROOT
BRANCH  19  21
ATOM     21  O   UNL     1      -6.375  -1.598  -0.917  0.00  0.00    -0.385 OA
ATOM     22  H   UNL     1      -7.205  -2.090  -0.856  0.00  0.00    +0.210 HD
ENDBRANCH  19  21
BRANCH  19  23
ATOM     23  C   UNL     1      -5.093  -3.572  -0.313  0.00  0.00    +0.172 C 
BRANCH  23  24
ATOM     24  O   UNL     1      -4.118  -4.054   0.615  0.00  0.00    -0.387 OA
ATOM     25  H   UNL     1      -4.378  -3.962   1.542  0.00  0.00    +0.210 HD
ENDBRANCH  23  24
BRANCH  23  26
ATOM     26  C   UNL     1      -6.398  -4.349  -0.130  0.00  0.00    +0.190 C 
BRANCH  26  27
ATOM     27  O   UNL     1      -6.189  -5.720  -0.478  0.00  0.00    -0.392 OA
ATOM     28  H   UNL     1      -6.977  -6.273  -0.386  0.00  0.00    +0.210 HD
ENDBRANCH  26  27
ENDBRANCH  23  26
ENDBRANCH  19  23
TORSDOF 5
