REMARK  Name = ZINC05127860
REMARK  5 active torsions:
REMARK  status: ('A' for Active; 'I' for Inactive)
REMARK    1  A    between atoms: C_1  and  O_2
REMARK    2  A    between atoms: O_2  and  C_3
REMARK    3  A    between atoms: N_11  and  C_12
REMARK    4  A    between atoms: C_17  and  C_18
REMARK    5  A    between atoms: C_21  and  C_23
REMARK                            x       y       z     vdW  Elec       q    Type
REMARK                         _______ _______ _______ _____ _____    ______ ____
ROOT
ATOM      1  C   UNL     1       6.737   0.437  -1.501  0.00  0.00    +0.163 A 
ATOM      2  C   UNL     1       7.700  -0.015  -2.388  0.00  0.00    +0.049 A 
ATOM      3  C   UNL     1       7.729  -1.344  -2.782  0.00  0.00    +0.004 A 
ATOM      4  C   UNL     1       6.805  -2.231  -2.305  0.00  0.00    +0.012 A 
ATOM      5  C   UNL     1       5.819  -1.797  -1.410  0.00  0.00    +0.022 A 
ATOM      6  C   UNL     1       5.788  -0.450  -1.002  0.00  0.00    +0.179 A 
ATOM      7  O   UNL     1       4.841  -0.030  -0.135  0.00  0.00    -0.433 OA
ATOM      8  C   UNL     1       3.668  -0.711  -0.119  0.00  0.00    +0.233 A 
ATOM      9  N   UNL     1       2.516  -0.078  -0.011  0.00  0.00    -0.212 NA
ATOM     10  C   UNL     1       3.719  -2.181  -0.234  0.00  0.00    +0.099 A 
ATOM     11  C   UNL     1       4.815  -2.727  -0.890  0.00  0.00    +0.030 A 
ENDROOT
BRANCH   9  12
ATOM     12  C   UNL     1       2.485   1.282  -0.014  0.00  0.00    +0.080 A 
ATOM     13  C   UNL     1       2.712   1.995   1.167  0.00  0.00    +0.028 A 
ATOM     14  C   UNL     1       2.673   3.372   1.159  0.00  0.00    +0.002 A 
ATOM     15  C   UNL     1       2.414   4.062  -0.017  0.00  0.00    +0.001 A 
ATOM     16  C   UNL     1       2.192   3.381  -1.194  0.00  0.00    +0.015 A 
ATOM     17  C   UNL     1       2.227   1.985  -1.210  0.00  0.00    +0.062 A 
BRANCH  17  18
ATOM     18  C   UNL     1       1.989   1.252  -2.465  0.00  0.00    +0.244 C 
ATOM     19  O   UNL     1       2.020   0.036  -2.474  0.00  0.00    -0.270 OA
ATOM     20  N   UNL     1       1.743   1.928  -3.604  0.00  0.00    -0.325 N 
ATOM     21  H   UNL     1       1.591   1.445  -4.432  0.00  0.00    +0.145 HD
ATOM     22  H   UNL     1       1.719   2.898  -3.597  0.00  0.00    +0.145 HD
ENDBRANCH  17  18
ENDBRANCH   9  12
BRANCH  10  23
ATOM     23  C   UNL     1       2.654  -3.033   0.324  0.00  0.00    +0.247 C 
ATOM     24  O   UNL     1       1.706  -2.527   0.893  0.00  0.00    -0.270 OA
ATOM     25  N   UNL     1       2.731  -4.373   0.202  0.00  0.00    -0.325 N 
ATOM     26  H   UNL     1       3.487  -4.776  -0.252  0.00  0.00    +0.145 HD
ATOM     27  H   UNL     1       2.029  -4.934   0.569  0.00  0.00    +0.145 HD
ENDBRANCH  10  23
BRANCH   1  29
ATOM     28  C   UNL     1       7.724   2.594  -1.673  0.00  0.00    +0.277 C 
ATOM     29  O   UNL     1       6.719   1.743  -1.120  0.00  0.00    -0.491 OA
ENDBRANCH   1  29
TORSDOF 4
