REMARK  Name = ZINC54154577
REMARK  5 active torsions:
REMARK  status: ('A' for Active; 'I' for Inactive)
REMARK    1  A    between atoms: C_5  and  C_6
REMARK    2  A    between atoms: N_8  and  C_9
REMARK    3  A    between atoms: C_9  and  C_10
REMARK    4  A    between atoms: C_10  and  C_11
REMARK    5  A    between atoms: N_12  and  O_13
REMARK                            x       y       z     vdW  Elec       q    Type
REMARK                         _______ _______ _______ _____ _____    ______ ____
ROOT
ATOM      1  C   UNL     1      -1.165  -0.944  -0.277  0.00  0.00    +0.251 C 
ATOM      2  O   UNL     1      -2.310  -0.543  -0.368  0.00  0.00    -0.270 OA
ATOM      3  N   UNL     1      -0.921  -2.265  -0.162  0.00  0.00    -0.311 N 
ATOM      4  H   UNL     1      -0.008  -2.585  -0.089  0.00  0.00    +0.149 HD
ENDROOT
BRANCH   1   9
ATOM      5  C   UNL     1      -0.084   1.389  -0.399  0.00  0.00    +0.022 A 
ATOM      6  C   UNL     1       1.137   2.019  -0.382  0.00  0.00    +0.028 A 
ATOM      7  C   UNL     1       2.263   1.270  -0.265  0.00  0.00    +0.079 A 
ATOM      8  S   UNL     1       1.699  -0.310  -0.173  0.00  0.00    -0.072 S 
ATOM      9  C   UNL     1      -0.051   0.007  -0.291  0.00  0.00    +0.075 A 
ATOM     10 CL   UNL     1       3.909   1.819  -0.219  0.00  0.00    -0.076 Cl
ENDBRANCH   1   9
BRANCH   3  11
ATOM     11  C   UNL     1      -2.034  -3.217  -0.148  0.00  0.00    +0.112 C 
BRANCH  11  12
ATOM     12  C   UNL     1      -1.488  -4.639  -0.010  0.00  0.00    +0.093 C 
BRANCH  12  13
ATOM     13  C   UNL     1      -2.635  -5.607   0.122  0.00  0.00    +0.133 C 
ATOM     14  N   UNL     1      -2.980  -6.341  -0.884  0.00  0.00    -0.077 NA
ATOM     15  N   UNL     1      -3.316  -5.710   1.315  0.00  0.00    -0.344 N 
ATOM     16  H   UNL     1      -3.057  -5.160   2.070  0.00  0.00    +0.144 HD
ATOM     17  H   UNL     1      -4.054  -6.334   1.400  0.00  0.00    +0.144 HD
BRANCH  14  18
ATOM     18  O   UNL     1      -2.213  -6.317  -2.074  0.00  0.00    -0.408 OA
ATOM     19  H   UNL     1      -2.548  -6.898  -2.770  0.00  0.00    +0.328 HD
ENDBRANCH  14  18
ENDBRANCH  12  13
ENDBRANCH  11  12
ENDBRANCH   3  11
TORSDOF 5
