REMARK  Name = ZINC64939149
REMARK  8 active torsions:
REMARK  status: ('A' for Active; 'I' for Inactive)
REMARK    1  A    between atoms: C_1  and  C_2
REMARK    2  A    between atoms: C_2  and  C_3
REMARK    3  A    between atoms: C_2  and  C_4
REMARK    4  A    between atoms: C_4  and  C_5
REMARK    5  A    between atoms: C_5  and  N_6
REMARK    6  A    between atoms: N_9  and  N_10
REMARK    7  A    between atoms: N_10  and  S_11
REMARK    8  A    between atoms: S_11  and  C_14
REMARK                            x       y       z     vdW  Elec       q    Type
REMARK                         _______ _______ _______ _____ _____    ______ ____
ROOT
ATOM      1  N   UNL     1      -5.360  -3.464  -0.087  0.00  0.00    -0.107 NA
ATOM      2  H   UNL     1      -5.396  -2.846   0.660  0.00  0.00    +0.172 HD
ENDROOT
BRANCH   1   6
ATOM      3  N   UNL     1      -2.790  -2.565  -0.111  0.00  0.00    -0.298 N 
ATOM      4  C   UNL     1      -3.021  -3.888  -0.217  0.00  0.00    +0.315 C 
ATOM      5  O   UNL     1      -2.088  -4.662  -0.322  0.00  0.00    -0.251 OA
ATOM      6  N   UNL     1      -4.285  -4.355  -0.208  0.00  0.00    -0.216 N 
ATOM      7  H   UNL     1      -3.534  -1.948  -0.027  0.00  0.00    +0.150 HD
ATOM      8  H   UNL     1      -4.451  -5.307  -0.285  0.00  0.00    +0.172 HD
BRANCH   3   9
ATOM      9  C   UNL     1      -1.416  -2.058  -0.121  0.00  0.00    +0.106 C 
BRANCH   9  10
ATOM     10  C   UNL     1      -1.433  -0.534   0.013  0.00  0.00    +0.022 C 
BRANCH  10  12
ATOM     11  C   UNL     1      -0.019   1.526   0.010  0.00  0.00    +0.007 C 
ATOM     12  C   UNL     1       0.002  -0.004   0.002  0.00  0.00    -0.016 C 
ATOM     13  C   UNL     1       0.742  -0.511   1.242  0.00  0.00    +0.007 C 
ENDBRANCH  10  12
ENDBRANCH   9  10
ENDBRANCH   3   9
ENDBRANCH   1   6
BRANCH   1  14
ATOM     14  S   UNL     1      -6.568  -3.466  -1.219  0.00  0.00    +0.074 S 
ATOM     15  O   UNL     1      -7.566  -2.570  -0.750  0.00  0.00    -0.152 OA
ATOM     16  O   UNL     1      -5.940  -3.311  -2.484  0.00  0.00    -0.152 OA
BRANCH  14  17
ATOM     17  C   UNL     1      -7.289  -5.073  -1.209  0.00  0.00    +0.110 A 
ATOM     18  C   UNL     1      -6.786  -6.061  -2.035  0.00  0.00    +0.032 A 
ATOM     19  C   UNL     1      -7.350  -7.323  -2.031  0.00  0.00    +0.051 A 
ATOM     20  C   UNL     1      -8.422  -7.602  -1.196  0.00  0.00    +0.162 A 
ATOM     21  C   UNL     1      -8.926  -6.610  -0.364  0.00  0.00    +0.164 A 
ATOM     22  C   UNL     1      -8.354  -5.347  -0.371  0.00  0.00    +0.078 A 
ATOM     23  O   UNL     1      -9.973  -6.865   0.469  0.00  0.00    -0.485 OA
ATOM     24  C   UNL     1     -10.753  -8.030   0.183  0.00  0.00    +0.270 C 
ATOM     25  C   UNL     1      -9.793  -9.197  -0.088  0.00  0.00    +0.270 C 
ATOM     26  O   UNL     1      -8.968  -8.848  -1.205  0.00  0.00    -0.485 OA
ENDBRANCH  14  17
ENDBRANCH   1  14
TORSDOF 6
