REMARK  Name = ZINC06678571
REMARK  6 active torsions:
REMARK  status: ('A' for Active; 'I' for Inactive)
REMARK    1  A    between atoms: C_3  and  C_25
REMARK    2  A    between atoms: C_6  and  C_7
REMARK    3  A    between atoms: C_9  and  C_12
REMARK    4  A    between atoms: C_12  and  N_53
REMARK    5  A    between atoms: C_16  and  C_19
REMARK    6  A    between atoms: C_19  and  N_55
REMARK                            x       y       z     vdW  Elec       q    Type
REMARK                         _______ _______ _______ _____ _____    ______ ____
ROOT
ATOM      1  C   UNL     1      -1.535   5.394   2.550  0.00  0.00    +0.022 C 
ENDROOT
BRANCH   1   7
ATOM      2  C   UNL     1      -0.106   3.762   3.626  0.00  0.00    -0.078 C 
ATOM      3  C   UNL     1       0.164   2.263   3.771  0.00  0.00    -0.018 C 
ATOM      4  C   UNL     1       0.607   1.696   2.420  0.00  0.00    -0.002 C 
ATOM      5  C   UNL     1      -0.479   1.975   1.377  0.00  0.00    -0.044 C 
ATOM      6  C   UNL     1      -0.730   3.483   1.301  0.00  0.00    -0.077 C 
ATOM      7  N   UNL     1      -1.177   3.962   2.626  0.00  0.00    +0.386 N 
ATOM      8  H   UNL     1      -2.004   3.426   2.912  0.00  0.00    -0.081 HD
BRANCH   5   9
ATOM      9  C   UNL     1      -0.018   1.465   0.010  0.00  0.00    -0.077 C 
BRANCH   9  15
ATOM     10  C   UNL     1       0.965  -0.484  -1.040  0.00  0.00    -0.050 C 
ATOM     11  C   UNL     1       1.116  -2.003  -0.925  0.00  0.00    +0.141 C 
ATOM     12  O   UNL     1      -0.180  -2.609  -0.944  0.00  0.00    -0.383 OA
ATOM     13  C   UNL     1      -1.041  -2.159   0.105  0.00  0.00    +0.141 C 
ATOM     14  C   UNL     1      -1.214  -0.641   0.001  0.00  0.00    -0.050 C 
ATOM     15  N   UNL     1       0.119  -0.006   0.074  0.00  0.00    +0.383 N 
ATOM     16  H   UNL     1       0.563  -0.262   0.964  0.00  0.00    -0.082 HD
ENDBRANCH   9  15
ENDBRANCH   5   9
ENDBRANCH   1   7
BRANCH   1  19
ATOM     17  C   UNL     1       1.019   7.228   0.810  0.00  0.00    +0.202 A 
ATOM     18  N   UNL     1      -0.110   6.485   0.787  0.00  0.00    -0.193 NA
ATOM     19  C   UNL     1      -0.372   6.205   2.039  0.00  0.00    +0.211 A 
ATOM     20  O   UNL     1       0.582   6.778   2.779  0.00  0.00    -0.340 OA
ATOM     21  N   UNL     1       1.373   7.354   2.063  0.00  0.00    -0.056 NA
BRANCH  17  27
ATOM     22  C   UNL     1       1.234   7.572  -1.651  0.00  0.00    +0.012 A 
ATOM     23  C   UNL     1       1.893   8.104  -2.741  0.00  0.00    +0.013 A 
ATOM     24  C   UNL     1       3.044   8.849  -2.560  0.00  0.00    +0.055 A 
ATOM     25  C   UNL     1       3.539   9.069  -1.288  0.00  0.00    +0.013 A 
ATOM     26  C   UNL     1       2.886   8.545  -0.190  0.00  0.00    +0.012 A 
ATOM     27  C   UNL     1       1.726   7.794  -0.366  0.00  0.00    +0.022 A 
BRANCH  24  28
ATOM     28  C   UNL     1       3.762   9.423  -3.755  0.00  0.00    +0.417 C 
ATOM     29  F   UNL     1       4.709   8.502  -4.216  0.00  0.00    -0.166 F 
ATOM     30  F   UNL     1       2.838   9.690  -4.770  0.00  0.00    -0.166 F 
ATOM     31  F   UNL     1       4.406  10.609  -3.386  0.00  0.00    -0.166 F 
ENDBRANCH  24  28
ENDBRANCH  17  27
ENDBRANCH   1  19
TORSDOF 6
