REMARK  Name = ZINC08938572
REMARK  10 active torsions:
REMARK  status: ('A' for Active; 'I' for Inactive)
REMARK    1  A    between atoms: C_1  and  C_2
REMARK    2  A    between atoms: C_5  and  C_8
REMARK    3  A    between atoms: C_8  and  C_10
REMARK    4  A    between atoms: C_8  and  N_62
REMARK    5  A    between atoms: C_15  and  C_17
REMARK    6  A    between atoms: C_15  and  C_18
REMARK    7  A    between atoms: C_15  and  N_62
REMARK    8  A    between atoms: N_20  and  C_21
REMARK    9  A    between atoms: C_24  and  S_27
REMARK   10  A    between atoms: S_27  and  N_30
REMARK                            x       y       z     vdW  Elec       q    Type
REMARK                         _______ _______ _______ _____ _____    ______ ____
ROOT
ATOM      1  C   UNL     1       2.711   5.016  -3.211  0.00  0.00    +0.203 C 
ATOM      2  O   UNL     1       3.738   4.543  -2.772  0.00  0.00    -0.277 OA
ATOM      3  N   UNL     1       2.531   5.116  -4.543  0.00  0.00    -0.287 N 
ATOM      4  H   UNL     1       1.684   5.431  -4.895  0.00  0.00    +0.155 HD
ENDROOT
BRANCH   3   5
ATOM      5  C   UNL     1       3.566   4.765  -5.417  0.00  0.00    +0.033 A 
ATOM      6  C   UNL     1       3.740   5.463  -6.605  0.00  0.00    +0.025 A 
ATOM      7  C   UNL     1       4.766   5.119  -7.462  0.00  0.00    +0.030 A 
ATOM      8  C   UNL     1       5.612   4.072  -7.145  0.00  0.00    +0.106 A 
ATOM      9  C   UNL     1       5.438   3.371  -5.966  0.00  0.00    +0.030 A 
ATOM     10  C   UNL     1       4.417   3.714  -5.101  0.00  0.00    +0.025 A 
BRANCH   8  11
ATOM     11  S   UNL     1       6.915   3.631  -8.246  0.00  0.00    +0.061 S 
ATOM     12  O   UNL     1       7.204   4.788  -9.019  0.00  0.00    -0.153 OA
ATOM     13  O   UNL     1       7.902   2.972  -7.464  0.00  0.00    -0.153 OA
BRANCH  11  14
ATOM     14  N   UNL     1       6.310   2.501  -9.294  0.00  0.00    -0.172 NA
ATOM     15  C   UNL     1       6.392   1.063  -8.989  0.00  0.00    +0.137 C 
ATOM     16  C   UNL     1       4.992   0.455  -9.170  0.00  0.00    +0.177 C 
ATOM     17  O   UNL     1       4.494   0.801 -10.464  0.00  0.00    -0.377 OA
ATOM     18  C   UNL     1       4.319   2.205 -10.668  0.00  0.00    +0.177 C 
ATOM     19  C   UNL     1       5.679   2.904 -10.561  0.00  0.00    +0.137 C 
ENDBRANCH  11  14
ENDBRANCH   8  11
ENDBRANCH   3   5
BRANCH   1  20
ATOM     20  C   UNL     1       1.637   5.491  -2.267  0.00  0.00    +0.014 C 
ATOM     21  C   UNL     1       1.381   6.982  -2.495  0.00  0.00    -0.004 C 
BRANCH  20  22
ATOM     22  N   UNL     1       2.082   5.274  -0.878  0.00  0.00    +0.394 N 
ATOM     23  H   UNL     1       2.638   4.412  -0.831  0.00  0.00    -0.083 HD
ATOM     24  H   UNL     1       2.657   6.070  -0.578  0.00  0.00    -0.083 HD
BRANCH  22  25
ATOM     25  C   UNL     1       0.917   5.150   0.019  0.00  0.00    -0.002 C 
BRANCH  25  30
ATOM     26  C   UNL     1       2.484   6.643   5.378  0.00  0.00    +0.044 C 
ATOM     27  C   UNL     1       2.075   6.253   3.980  0.00  0.00    -0.050 A 
ATOM     28  C   UNL     1       0.842   6.639   3.488  0.00  0.00    +0.003 A 
ATOM     29  C   UNL     1       0.468   6.282   2.206  0.00  0.00    +0.002 A 
ATOM     30  C   UNL     1       1.326   5.539   1.417  0.00  0.00    -0.057 A 
ATOM     31  C   UNL     1       2.556   5.149   1.911  0.00  0.00    +0.002 A 
ATOM     32  C   UNL     1       2.933   5.511   3.191  0.00  0.00    +0.003 A 
ENDBRANCH  25  30
BRANCH  25  33
ATOM     33  C   UNL     1       0.430   3.724   0.018  0.00  0.00    -0.020 A 
ATOM     34  C   UNL     1      -0.842   3.256   0.027  0.00  0.00    +0.010 A 
ATOM     35  C   UNL     1      -1.054   1.890   0.017  0.00  0.00    +0.008 A 
ATOM     36  C   UNL     1       0.016   1.059   0.009  0.00  0.00    +0.045 A 
ATOM     37  S   UNL     1       1.379   2.212   0.002  0.00  0.00    -0.103 S 
ENDBRANCH  25  33
ENDBRANCH  22  25
ENDBRANCH  20  22
ENDBRANCH   1  20
TORSDOF 8
