REMARK  Name = ZINC12549109
REMARK  8 active torsions:
REMARK  status: ('A' for Active; 'I' for Inactive)
REMARK    1  A    between atoms: C_2  and  C_29
REMARK    2  A    between atoms: C_4  and  N_10
REMARK    3  A    between atoms: C_6  and  C_7
REMARK    4  A    between atoms: C_11  and  C_13
REMARK    5  A    between atoms: C_13  and  O_14
REMARK    6  A    between atoms: O_14  and  C_15
REMARK    7  A    between atoms: C_17  and  C_25
REMARK    8  A    between atoms: C_19  and  C_21
REMARK                            x       y       z     vdW  Elec       q    Type
REMARK                         _______ _______ _______ _____ _____    ______ ____
ROOT
ATOM      1  N   UNL     1      -6.089   1.524   0.041  0.00  0.00    -0.283 N 
ATOM      2  C   UNL     1      -6.106   2.868   0.150  0.00  0.00    +0.255 C 
ATOM      3  O   UNL     1      -5.065   3.490   0.148  0.00  0.00    -0.272 OA
ATOM      4  H   UNL     1      -6.922   1.033  -0.035  0.00  0.00    +0.155 HD
ENDROOT
BRANCH   1   8
ATOM      5  C   UNL     1      -2.441  -0.527   0.028  0.00  0.00    +0.026 A 
ATOM      6  C   UNL     1      -3.513  -1.006  -0.722  0.00  0.00    +0.039 A 
ATOM      7  C   UNL     1      -4.728  -0.319  -0.716  0.00  0.00    +0.036 A 
ATOM      8  C   UNL     1      -4.869   0.838   0.036  0.00  0.00    +0.035 A 
ATOM      9  C   UNL     1      -3.805   1.314   0.788  0.00  0.00    +0.036 A 
ATOM     10  C   UNL     1      -2.585   0.635   0.782  0.00  0.00    +0.039 A 
BRANCH  10  11
ATOM     11  C   UNL     1      -1.450   1.146   1.580  0.00  0.00    +0.242 C 
ATOM     12  O   UNL     1      -1.577   2.160   2.238  0.00  0.00    -0.270 OA
ATOM     13  N   UNL     1      -0.274   0.487   1.578  0.00  0.00    -0.325 N 
ATOM     14  H   UNL     1      -0.173  -0.323   1.053  0.00  0.00    +0.145 HD
ATOM     15  H   UNL     1       0.472   0.824   2.098  0.00  0.00    +0.145 HD
ENDBRANCH  10  11
BRANCH   6  16
ATOM     16  C   UNL     1      -3.364  -2.239  -1.524  0.00  0.00    +0.242 C 
ATOM     17  O   UNL     1      -4.300  -2.656  -2.178  0.00  0.00    -0.270 OA
ATOM     18  N   UNL     1      -2.191  -2.902  -1.529  0.00  0.00    -0.325 N 
ATOM     19  H   UNL     1      -1.444  -2.570  -1.007  0.00  0.00    +0.145 HD
ATOM     20  H   UNL     1      -2.093  -3.711  -2.055  0.00  0.00    +0.145 HD
ENDBRANCH   6  16
ENDBRANCH   1   8
BRANCH   2  21
ATOM     21  C   UNL     1      -7.419   3.597   0.274  0.00  0.00    +0.324 C 
BRANCH  21  22
ATOM     22  O   UNL     1      -7.177   5.001   0.375  0.00  0.00    -0.483 OA
BRANCH  22  23
ATOM     23  C   UNL     1      -8.264   5.808   0.494  0.00  0.00    +0.122 A 
ATOM     24  C   UNL     1      -9.538   5.260   0.508  0.00  0.00    +0.058 A 
ATOM     25  C   UNL     1     -10.641   6.082   0.635  0.00  0.00    +0.059 A 
ATOM     26  C   UNL     1     -10.476   7.451   0.737  0.00  0.00    +0.025 A 
ATOM     27  C   UNL     1      -9.208   8.000   0.718  0.00  0.00    +0.059 A 
ATOM     28  C   UNL     1      -8.101   7.182   0.597  0.00  0.00    +0.058 A 
BRANCH  27  29
ATOM     29  C   UNL     1      -9.032   9.493   0.830  0.00  0.00    +0.418 C 
ATOM     30  F   UNL     1      -7.669   9.806   0.788  0.00  0.00    -0.166 F 
ATOM     31  F   UNL     1      -9.688  10.121  -0.234  0.00  0.00    -0.166 F 
ATOM     32  F   UNL     1      -9.575   9.937   2.041  0.00  0.00    -0.166 F 
ENDBRANCH  27  29
BRANCH  25  33
ATOM     33  C   UNL     1     -12.025   5.486   0.657  0.00  0.00    +0.418 C 
ATOM     34  F   UNL     1     -12.519   5.407  -0.650  0.00  0.00    -0.166 F 
ATOM     35  F   UNL     1     -11.973   4.204   1.214  0.00  0.00    -0.166 F 
ATOM     36  F   UNL     1     -12.869   6.295   1.426  0.00  0.00    -0.166 F 
ENDBRANCH  25  33
ENDBRANCH  22  23
ENDBRANCH  21  22
ENDBRANCH   2  21
TORSDOF 8
