REMARK  Name = ZINC22608439
REMARK  5 active torsions:
REMARK  status: ('A' for Active; 'I' for Inactive)
REMARK    1  A    between atoms: C_1  and  C_2
REMARK    2  A    between atoms: C_6  and  C_8
REMARK    3  A    between atoms: C_13  and  C_18
REMARK    4  A    between atoms: C_23  and  S_25
REMARK    5  A    between atoms: S_25  and  C_26
REMARK                            x       y       z     vdW  Elec       q    Type
REMARK                         _______ _______ _______ _____ _____    ______ ____
ROOT
ATOM      1  C   UNL     1      -1.244   2.137   0.020  0.00  0.00    +0.175 C 
ATOM      2  C   UNL     1      -2.421   1.252   0.368  0.00  0.00    +0.041 C 
ATOM      3  C   UNL     1      -2.336  -0.095   0.349  0.00  0.00    +0.020 C 
ATOM      4  C   UNL     1      -3.529  -0.953   0.699  0.00  0.00    +0.055 C 
ATOM      5  C   UNL     1      -4.817  -0.230   0.300  0.00  0.00    -0.001 C 
ATOM      6  C   UNL     1      -4.866   1.112   1.039  0.00  0.00    +0.083 C 
ATOM      7  C   UNL     1      -3.625   1.895   0.710  0.00  0.00    +0.163 C 
ATOM      8  O   UNL     1      -3.663   3.109   0.739  0.00  0.00    -0.292 OA
ATOM      9  C   UNL     1      -6.028  -1.079   0.694  0.00  0.00    +0.008 C 
ATOM     10  N   UNL     1      -1.170  -0.743   0.020  0.00  0.00    -0.287 N 
ATOM     11  C   UNL     1       0.002  -0.004   0.002  0.00  0.00    +0.219 A 
ATOM     12  N   UNL     1      -0.016   1.351   0.009  0.00  0.00    -0.220 N 
ATOM     13  N   UNL     1       1.314   1.769  -0.001  0.00  0.00    -0.141 NA
ATOM     14  C   UNL     1       2.052   0.680  -0.018  0.00  0.00    +0.210 A 
ATOM     15  N   UNL     1       1.248  -0.393  -0.018  0.00  0.00    -0.187 NA
ATOM     16  H   UNL     1      -1.185  -1.816  -0.219  0.00  0.00    +0.155 HD
ENDROOT
BRANCH   1  22
ATOM     17  C   UNL     1      -1.790   6.180  -2.878  0.00  0.00    +0.044 C 
ATOM     18  C   UNL     1      -1.719   4.683  -2.727  0.00  0.00    -0.050 A 
ATOM     19  C   UNL     1      -1.851   3.869  -3.837  0.00  0.00    +0.003 A 
ATOM     20  C   UNL     1      -1.786   2.495  -3.699  0.00  0.00    +0.001 A 
ATOM     21  C   UNL     1      -1.585   1.935  -2.451  0.00  0.00    +0.006 A 
ATOM     22  C   UNL     1      -1.458   2.748  -1.341  0.00  0.00    -0.018 A 
ATOM     23  C   UNL     1      -1.523   4.122  -1.479  0.00  0.00    +0.009 A 
ENDBRANCH   1  22
BRANCH  14  24
ATOM     24  S   UNL     1       3.813   0.638  -0.041  0.00  0.00    -0.088 S 
ATOM     25  C   UNL     1       4.210  -1.132  -0.060  0.00  0.00    +0.093 C 
ENDBRANCH  14  24
TORSDOF 2
