REMARK  Name = ZINC36500891
REMARK  16 active torsions:
REMARK  status: ('A' for Active; 'I' for Inactive)
REMARK    1  A    between atoms: C_1  and  C_2
REMARK    2  A    between atoms: C_2  and  C_3
REMARK    3  A    between atoms: C_2  and  C_4
REMARK    4  A    between atoms: C_2  and  C_5
REMARK    5  A    between atoms: C_5  and  C_6
REMARK    6  A    between atoms: C_6  and  C_7
REMARK    7  A    between atoms: C_6  and  C_8
REMARK    8  A    between atoms: C_6  and  N_9
REMARK    9  A    between atoms: C_10  and  C_12
REMARK   10  A    between atoms: C_12  and  C_14
REMARK   11  A    between atoms: C_12  and  N_21
REMARK   12  A    between atoms: N_21  and  C_22
REMARK   13  A    between atoms: C_22  and  C_23
REMARK   14  A    between atoms: C_28  and  C_30
REMARK   15  A    between atoms: C_34  and  O_37
REMARK   16  A    between atoms: C_35  and  O_36
REMARK                            x       y       z     vdW  Elec       q    Type
REMARK                         _______ _______ _______ _____ _____    ______ ____
ROOT
ATOM      1  C   UNL     1       5.073   0.047  -5.711  0.00  0.00    +0.193 C 
ENDROOT
BRANCH   1   2
ATOM      2  C   UNL     1       4.408  -1.291  -5.510  0.00  0.00    -0.018 A 
ATOM      3  C   UNL     1       5.047  -2.278  -4.783  0.00  0.00    +0.007 A 
ATOM      4  C   UNL     1       4.437  -3.505  -4.599  0.00  0.00    +0.020 A 
ATOM      5  C   UNL     1       3.188  -3.745  -5.143  0.00  0.00    +0.041 A 
ATOM      6  C   UNL     1       2.549  -2.756  -5.870  0.00  0.00    +0.020 A 
ATOM      7  C   UNL     1       3.157  -1.528  -6.049  0.00  0.00    +0.007 A 
ATOM      8 CL   UNL     1       2.422  -5.285  -4.912  0.00  0.00    -0.084 Cl
ENDBRANCH   1   2
BRANCH   1  10
ATOM      9  N   UNL     1       3.388   1.175  -4.295  0.00  0.00    -0.308 N 
ATOM     10  C   UNL     1       4.688   0.973  -4.586  0.00  0.00    +0.239 C 
ATOM     11  O   UNL     1       5.548   1.536  -3.943  0.00  0.00    -0.273 OA
ATOM     12  H   UNL     1       2.702   0.670  -4.759  0.00  0.00    +0.149 HD
BRANCH   9  13
ATOM     13  C   UNL     1       3.009   2.158  -3.276  0.00  0.00    +0.030 C 
ATOM     14  C   UNL     1       3.871   3.412  -3.432  0.00  0.00    +0.031 C 
ATOM     15  C   UNL     1       3.228   1.559  -1.885  0.00  0.00    +0.031 C 
BRANCH  13  16
ATOM     16  C   UNL     1       1.534   2.527  -3.446  0.00  0.00    +0.031 C 
BRANCH  16  18
ATOM     17  C   UNL     1       0.934   1.276  -5.524  0.00  0.00    +0.010 C 
ATOM     18  C   UNL     1       1.211   2.661  -4.936  0.00  0.00    -0.036 C 
ATOM     19  C   UNL     1       2.400   3.295  -5.661  0.00  0.00    +0.010 C 
ATOM     20  C   UNL     1      -0.024   3.546  -5.112  0.00  0.00    +0.010 C 
ENDBRANCH  16  18
ENDBRANCH  13  16
ENDBRANCH   9  13
ENDBRANCH   1  10
BRANCH   1  21
ATOM     21  N   UNL     1       6.527  -0.128  -5.723  0.00  0.00    -0.275 N 
ATOM     22  C   UNL     1       7.135  -0.638  -6.813  0.00  0.00    +0.252 C 
ATOM     23  O   UNL     1       8.308  -0.954  -6.762  0.00  0.00    -0.270 OA
BRANCH  22  24
ATOM     24  C   UNL     1       6.378  -0.812  -8.067  0.00  0.00    +0.082 A 
ATOM     25  C   UNL     1       4.980  -0.835  -8.046  0.00  0.00    +0.017 A 
ATOM     26  C   UNL     1       4.276  -0.998  -9.218  0.00  0.00    +0.005 A 
ATOM     27  C   UNL     1       4.946  -1.140 -10.423  0.00  0.00    +0.049 A 
ATOM     28  C   UNL     1       6.329  -1.119 -10.460  0.00  0.00    +0.159 A 
ATOM     29  C   UNL     1       7.054  -0.950  -9.284  0.00  0.00    +0.171 A 
BRANCH  29  30
ATOM     30  O   UNL     1       8.411  -0.924  -9.317  0.00  0.00    -0.503 OA
ATOM     31  H   UNL     1       8.824  -1.793  -9.216  0.00  0.00    +0.292 HD
ENDBRANCH  29  30
BRANCH  28  32
ATOM     32  O   UNL     1       6.980  -1.260 -11.646  0.00  0.00    -0.503 OA
ATOM     33  H   UNL     1       7.152  -0.424 -12.101  0.00  0.00    +0.292 HD
ENDBRANCH  28  32
ENDBRANCH  22  24
BRANCH  21  34
ATOM     34  C   UNL     1       7.321   0.252  -4.552  0.00  0.00    +0.183 C 
BRANCH  34  35
ATOM     35  C   UNL     1       7.985   1.581  -4.804  0.00  0.00    +0.122 A 
ATOM     36  C   UNL     1       7.431   2.789  -4.597  0.00  0.00    +0.046 A 
ATOM     37  C   UNL     1       8.399   3.752  -4.963  0.00  0.00    +0.041 A 
ATOM     38  C   UNL     1       9.486   3.075  -5.373  0.00  0.00    +0.195 A 
ATOM     39  O   UNL     1       9.232   1.760  -5.269  0.00  0.00    -0.466 OA
ENDBRANCH  34  35
ENDBRANCH  21  34
ENDBRANCH   1  21
TORSDOF 11
