REMARK  Name = ZINC33501160
REMARK  5 active torsions:
REMARK  status: ('A' for Active; 'I' for Inactive)
REMARK    1  A    between atoms: C_1  and  C_2
REMARK    2  A    between atoms: C_2  and  C_3
REMARK    3  A    between atoms: C_4  and  C_11
REMARK    4  A    between atoms: C_5  and  C_9
REMARK    5  A    between atoms: C_6  and  N_8
REMARK                            x       y       z     vdW  Elec       q    Type
REMARK                         _______ _______ _______ _____ _____    ______ ____
ROOT
ATOM      1  C   UNL     1       4.383  -3.619   1.710  0.00  0.00    +0.000 A 
ATOM      2  C   UNL     1       3.356  -2.928   2.267  0.00  0.00    +0.012 A 
ATOM      3  C   UNL     1       2.722  -3.483   3.446  0.00  0.00    +0.088 A 
ATOM      4  C   UNL     1       3.227  -4.689   3.922  0.00  0.00    +0.081 A 
ATOM      5  S   UNL     1       4.540  -5.043   2.770  0.00  0.00    -0.077 S 
ENDROOT
BRANCH   2   6
ATOM      6  C   UNL     1       2.892  -1.648   1.682  0.00  0.00    -0.012 A 
ATOM      7  C   UNL     1       3.734  -0.536   1.677  0.00  0.00    +0.012 A 
ATOM      8  C   UNL     1       3.300   0.655   1.132  0.00  0.00    +0.050 A 
ATOM      9  C   UNL     1       2.029   0.752   0.588  0.00  0.00    +0.166 A 
ATOM     10  C   UNL     1       1.183  -0.356   0.590  0.00  0.00    +0.167 A 
ATOM     11  C   UNL     1       1.613  -1.552   1.136  0.00  0.00    +0.058 A 
ATOM     12  O   UNL     1       0.002  -0.004   0.002  0.00  0.00    -0.453 OA
ATOM     13  C   UNL     1      -0.017   1.436   0.010  0.00  0.00    +0.466 C 
ATOM     14  O   UNL     1       1.376   1.797  -0.001  0.00  0.00    -0.453 OA
ENDBRANCH   2   6
BRANCH   4  15
ATOM     15  N   UNL     1       2.813  -5.428   5.017  0.00  0.00    -0.352 N 
ATOM     16  H   UNL     1       3.319  -6.372   5.266  0.00  0.00    +0.143 HD
ATOM     17  H   UNL     1       1.978  -5.071   5.637  0.00  0.00    +0.143 HD
ENDBRANCH   4  15
BRANCH   1  19
ATOM     18  C   UNL     1       6.405  -2.427   0.911  0.00  0.00    +0.009 C 
ATOM     19  C   UNL     1       5.196  -3.266   0.492  0.00  0.00    +0.040 C 
ENDBRANCH   1  19
BRANCH   3  20
ATOM     20  C   UNL     1       1.629  -2.821   4.091  0.00  0.00    +0.102 C 
ATOM     21  N   UNL     1       0.761  -2.296   4.603  0.00  0.00    -0.191 NA
ENDBRANCH   3  20
TORSDOF 4
