REMARK  Name = ZINC15360489
REMARK  9 active torsions:
REMARK  status: ('A' for Active; 'I' for Inactive)
REMARK    1  A    between atoms: C_1  and  C_2
REMARK    2  A    between atoms: C_2  and  C_3
REMARK    3  A    between atoms: C_3  and  C_4
REMARK    4  A    between atoms: C_4  and  C_5
REMARK    5  A    between atoms: C_8  and  C_11
REMARK    6  A    between atoms: C_11  and  C_13
REMARK    7  A    between atoms: C_11  and  N_18
REMARK    8  A    between atoms: N_18  and  C_19
REMARK    9  A    between atoms: C_19  and  C_20
REMARK                            x       y       z     vdW  Elec       q    Type
REMARK                         _______ _______ _______ _____ _____    ______ ____
ROOT
ATOM      1  C   UNL     1      -6.834  -4.064   0.045  0.00  0.00    +0.122 C 
ENDROOT
BRANCH   1   5
ATOM      2  C   UNL     1      -2.826  -2.585   0.015  0.00  0.00    -0.047 A 
ATOM      3  C   UNL     1      -3.465  -2.825   1.217  0.00  0.00    +0.004 A 
ATOM      4  C   UNL     1      -4.762  -3.304   1.227  0.00  0.00    +0.006 A 
ATOM      5  C   UNL     1      -5.420  -3.542   0.035  0.00  0.00    -0.026 A 
ATOM      6  C   UNL     1      -4.782  -3.300  -1.167  0.00  0.00    +0.006 A 
ATOM      7  C   UNL     1      -3.486  -2.818  -1.177  0.00  0.00    +0.004 A 
BRANCH   2   8
ATOM      8  C   UNL     1      -1.413  -2.063   0.004  0.00  0.00    +0.035 C 
BRANCH   8   9
ATOM      9  C   UNL     1      -1.433  -0.534   0.013  0.00  0.00    +0.004 C 
BRANCH   9  11
ATOM     10  C   UNL     1      -0.019   1.526   0.010  0.00  0.00    +0.004 C 
ATOM     11  C   UNL     1       0.002  -0.004   0.002  0.00  0.00    -0.003 C 
ENDBRANCH   9  11
ENDBRANCH   8   9
ENDBRANCH   2   8
ENDBRANCH   1   5
BRANCH   1  12
ATOM     12  C   UNL     1      -6.822  -5.550  -0.204  0.00  0.00    +0.011 A 
ATOM     13  C   UNL     1      -6.932  -6.566   0.687  0.00  0.00    +0.013 A 
ATOM     14  C   UNL     1      -6.895  -7.869   0.226  0.00  0.00    +0.008 A 
ATOM     15  C   UNL     1      -6.750  -8.092  -1.103  0.00  0.00    +0.045 A 
ATOM     16  S   UNL     1      -6.666  -6.430  -1.750  0.00  0.00    -0.100 S 
ENDBRANCH   1  12
BRANCH   1  17
ATOM     17  N   UNL     1      -7.610  -3.397  -1.008  0.00  0.00    -0.297 NA
ATOM     18  H   UNL     1      -7.276  -2.458  -1.164  0.00  0.00    +0.123 HD
BRANCH  17  19
ATOM     19  C   UNL     1      -9.044  -3.399  -0.687  0.00  0.00    +0.179 C 
BRANCH  19  20
ATOM     20  C   UNL     1      -9.806  -2.708  -1.788  0.00  0.00    +0.237 C 
ATOM     21  O   UNL     1      -9.214  -2.259  -2.745  0.00  0.00    -0.274 OA
ATOM     22  N   UNL     1     -11.146  -2.590  -1.708  0.00  0.00    -0.223 N 
ATOM     23  C   UNL     1     -12.007  -1.946  -2.712  0.00  0.00    +0.136 C 
ATOM     24  C   UNL     1     -13.426  -2.089  -2.128  0.00  0.00    +0.125 C 
ATOM     25  N   UNL     1     -13.215  -2.798  -0.858  0.00  0.00    -0.297 N 
ATOM     26  C   UNL     1     -11.907  -3.045  -0.703  0.00  0.00    +0.309 C 
ATOM     27  O   UNL     1     -11.452  -3.626   0.262  0.00  0.00    -0.252 OA
ATOM     28  H   UNL     1     -13.912  -3.050  -0.232  0.00  0.00    +0.150 HD
ENDBRANCH  19  20
ENDBRANCH  17  19
ENDBRANCH   1  17
TORSDOF 8
