REMARK  Name = ZINC04843503
REMARK  6 active torsions:
REMARK  status: ('A' for Active; 'I' for Inactive)
REMARK    1  A    between atoms: C_1  and  C_2
REMARK    2  A    between atoms: C_7  and  S_15
REMARK    3  A    between atoms: S_15  and  C_16
REMARK    4  A    between atoms: C_16  and  C_18
REMARK    5  A    between atoms: C_16  and  C_19
REMARK    6  A    between atoms: N_24  and  C_25
REMARK                            x       y       z     vdW  Elec       q    Type
REMARK                         _______ _______ _______ _____ _____    ______ ____
ROOT
ATOM      1  C   UNL     1       4.978   1.425  -0.039  0.00  0.00    +0.044 C 
ATOM      2  C   UNL     1       3.654   2.144  -0.022  0.00  0.00    -0.038 A 
ATOM      3  C   UNL     1       3.610   3.496  -0.015  0.00  0.00    +0.052 A 
ATOM      4  C   UNL     1       2.366   4.171   0.001  0.00  0.00    +0.162 A 
ATOM      5  N   UNL     1       2.050   5.453   0.009  0.00  0.00    -0.129 NA
ATOM      6  N   UNL     1       0.771   5.587   0.022  0.00  0.00    -0.122 NA
ATOM      7  C   UNL     1       0.191   4.407   0.022  0.00  0.00    +0.197 A 
ATOM      8  N   UNL     1       1.181   3.469   0.009  0.00  0.00    -0.270 N 
ATOM      9  C   UNL     1       1.177   2.085   0.002  0.00  0.00    +0.058 A 
ATOM     10  C   UNL     1       2.398   1.388  -0.013  0.00  0.00    +0.002 A 
ATOM     11  C   UNL     1       2.400  -0.010  -0.021  0.00  0.00    +0.010 A 
ATOM     12  C   UNL     1       1.205  -0.694  -0.013  0.00  0.00    +0.001 A 
ATOM     13  C   UNL     1       0.002  -0.004   0.002  0.00  0.00    +0.002 A 
ATOM     14  C   UNL     1      -0.017   1.376   0.010  0.00  0.00    +0.027 A 
ENDROOT
BRANCH   7  15
ATOM     15  S   UNL     1      -1.544   4.095   0.037  0.00  0.00    -0.073 S 
BRANCH  15  16
ATOM     16  C   UNL     1      -2.168   5.794   0.050  0.00  0.00    +0.137 C 
ATOM     17  C   UNL     1      -1.760   6.477   1.357  0.00  0.00    +0.029 C 
BRANCH  16  18
ATOM     18  C   UNL     1      -3.671   5.777  -0.060  0.00  0.00    +0.233 C 
ATOM     19  O   UNL     1      -4.295   4.804   0.306  0.00  0.00    -0.274 OA
ATOM     20  N   UNL     1      -4.322   6.844  -0.565  0.00  0.00    -0.239 N 
ATOM     21  C   UNL     1      -5.666   6.829  -0.663  0.00  0.00    +0.306 C 
ATOM     22  O   UNL     1      -6.291   5.854  -0.296  0.00  0.00    -0.252 OA
ATOM     23  N   UNL     1      -6.316   7.896  -1.169  0.00  0.00    -0.302 N 
ATOM     24  C   UNL     1      -7.777   7.880  -1.275  0.00  0.00    +0.129 C 
ATOM     25  H   UNL     1      -3.822   7.622  -0.858  0.00  0.00    +0.159 HD
ATOM     26  H   UNL     1      -5.817   8.675  -1.462  0.00  0.00    +0.150 HD
ENDBRANCH  16  18
ENDBRANCH  15  16
ENDBRANCH   7  15
TORSDOF 3
