REMARK  Name = ZINC36769763
REMARK  4 active torsions:
REMARK  status: ('A' for Active; 'I' for Inactive)
REMARK    1  A    between atoms: C_1  and  C_2
REMARK    2  A    between atoms: C_2  and  C_3
REMARK    3  A    between atoms: N_6  and  C_10
REMARK    4  A    between atoms: C_10  and  N_12
REMARK                            x       y       z     vdW  Elec       q    Type
REMARK                         _______ _______ _______ _____ _____    ______ ____
ROOT
ATOM      1  C   UNL     1       0.717  -0.500  -1.253  0.00  0.00    +0.135 C 
ATOM      2  C   UNL     1       0.845  -2.027  -1.207  0.00  0.00    +0.138 C 
ATOM      3  N   UNL     1       1.367  -2.488  -2.504  0.00  0.00    -0.308 N 
ATOM      4  C   UNL     1       0.699  -2.013  -3.726  0.00  0.00    +0.135 C 
ATOM      5  C   UNL     1       0.578  -0.487  -3.649  0.00  0.00    +0.179 C 
ATOM      6  O   UNL     1      -0.035  -0.124  -2.409  0.00  0.00    -0.373 OA
ENDROOT
BRANCH   1   8
ATOM      7  C   UNL     1      -0.022   1.520   0.019  0.00  0.00    +0.006 C 
ATOM      8  C   UNL     1      -0.002  -0.010   0.006  0.00  0.00    +0.030 C 
ENDBRANCH   1   8
BRANCH   3   9
ATOM      9  C   UNL     1       2.425  -3.320  -2.570  0.00  0.00    +0.130 C 
ATOM     10  S   UNL     1       3.266  -3.751  -1.142  0.00  0.00    -0.019 S 
BRANCH   9  11
ATOM     11  N   UNL     1       2.821  -3.813  -3.760  0.00  0.00    -0.340 N 
ATOM     12  H   UNL     1       2.391  -3.514  -4.576  0.00  0.00    +0.144 HD
ATOM     13  H   UNL     1       3.536  -4.467  -3.800  0.00  0.00    +0.144 HD
ENDBRANCH   9  11
ENDBRANCH   3   9
TORSDOF 3
