REMARK  Name = ZINC59772728
REMARK  4 active torsions:
REMARK  status: ('A' for Active; 'I' for Inactive)
REMARK    1  A    between atoms: C_4  and  N_10
REMARK    2  A    between atoms: C_6  and  N_7
REMARK    3  A    between atoms: C_11  and  C_13
REMARK    4  A    between atoms: N_15  and  C_16
REMARK                            x       y       z     vdW  Elec       q    Type
REMARK                         _______ _______ _______ _____ _____    ______ ____
ROOT
ATOM      1  N   UNL     1       3.619  -0.651  -0.016  0.00  0.00    -0.276 N 
ATOM      2  C   UNL     1       3.642  -1.995   0.074  0.00  0.00    +0.303 C 
ATOM      3  O   UNL     1       2.601  -2.621   0.089  0.00  0.00    -0.265 OA
ATOM      4  H   UNL     1       4.449  -0.156  -0.097  0.00  0.00    +0.155 HD
ENDROOT
BRANCH   1   8
ATOM      5  C   UNL     1      -0.018   1.379   0.051  0.00  0.00    +0.034 A 
ATOM      6  C   UNL     1       1.099   1.947   0.637  0.00  0.00    +0.024 A 
ATOM      7  C   UNL     1       2.307   1.277   0.617  0.00  0.00    +0.062 A 
ATOM      8  C   UNL     1       2.398   0.030   0.007  0.00  0.00    +0.054 A 
ATOM      9  C   UNL     1       1.274  -0.535  -0.580  0.00  0.00    +0.057 A 
ATOM     10  C   UNL     1       0.070   0.141  -0.556  0.00  0.00    +0.128 A 
ATOM     11 CL   UNL     1       3.709   1.989   1.352  0.00  0.00    -0.082 Cl
BRANCH  10  12
ATOM     12  N   UNL     1      -1.129  -0.463  -1.182  0.00  0.00    +0.056 N 
ATOM     13  O   UNL     1      -2.183   0.128  -1.161  0.00  0.00    -0.126 OA
ATOM     14  O   UNL     1      -1.053  -1.546  -1.713  0.00  0.00    -0.126 OA
ENDBRANCH  10  12
ENDBRANCH   1   8
BRANCH   2  15
ATOM     15  C   UNL     1       4.946  -2.716   0.157  0.00  0.00    +0.304 C 
ATOM     16  O   UNL     1       5.987  -2.090   0.143  0.00  0.00    -0.265 OA
ATOM     17  N   UNL     1       4.969  -4.060   0.248  0.00  0.00    -0.275 N 
ATOM     18  H   UNL     1       4.144  -4.565   0.178  0.00  0.00    +0.155 HD
BRANCH  17  19
ATOM     19  C   UNL     1       6.183  -4.727   0.442  0.00  0.00    +0.070 A 
ATOM     20  C   UNL     1       7.250  -4.070   1.042  0.00  0.00    +0.029 A 
ATOM     21  C   UNL     1       8.447  -4.731   1.234  0.00  0.00    +0.040 A 
ATOM     22  C   UNL     1       8.587  -6.048   0.829  0.00  0.00    +0.126 A 
ATOM     23  C   UNL     1       7.526  -6.707   0.230  0.00  0.00    +0.078 A 
ATOM     24  C   UNL     1       6.323  -6.052   0.041  0.00  0.00    +0.147 A 
ATOM     25  F   UNL     1       5.285  -6.696  -0.538  0.00  0.00    -0.203 F 
ATOM     26  F   UNL     1       9.760  -6.691   1.017  0.00  0.00    -0.205 F 
ENDBRANCH  17  19
ENDBRANCH   2  15
TORSDOF 4
