REMARK  Name = ZINC09482774
REMARK  3 active torsions:
REMARK  status: ('A' for Active; 'I' for Inactive)
REMARK    1  A    between atoms: C_1  and  C_2
REMARK    2  A    between atoms: C_4  and  O_24
REMARK    3  A    between atoms: C_11  and  C_12
REMARK                            x       y       z     vdW  Elec       q    Type
REMARK                         _______ _______ _______ _____ _____    ______ ____
ROOT
ATOM      1  C   UNL     1       1.264   3.704   0.712  0.00  0.00    +0.045 C 
ATOM      2  C   UNL     1       1.266   2.198   0.783  0.00  0.00    -0.033 A 
ATOM      3  C   UNL     1       0.106   1.524   1.043  0.00  0.00    +0.049 A 
ATOM      4  C   UNL     1       0.106   0.134   1.109  0.00  0.00    +0.121 A 
ATOM      5  C   UNL     1       1.276  -0.582   0.913  0.00  0.00    +0.092 A 
ATOM      6  C   UNL     1       2.464   0.088   0.648  0.00  0.00    +0.143 A 
ATOM      7  C   UNL     1       2.452   1.491   0.584  0.00  0.00    +0.071 A 
ATOM      8  C   UNL     1       3.836   1.905   0.292  0.00  0.00    +0.232 C 
ATOM      9  O   UNL     1       4.263   3.039   0.155  0.00  0.00    -0.283 OA
ATOM     10  C   UNL     1       4.588   0.645   0.205  0.00  0.00    +0.176 C 
ATOM     11  C   UNL     1       5.915   0.519  -0.049  0.00  0.00    +0.061 C 
ATOM     12  O   UNL     1       3.715  -0.367   0.424  0.00  0.00    -0.451 OA
ENDROOT
BRANCH  11  13
ATOM     13  C   UNL     1       6.560  -0.796   0.050  0.00  0.00    +0.022 A 
ATOM     14  C   UNL     1       5.784  -1.962   0.052  0.00  0.00    +0.031 A 
ATOM     15  C   UNL     1       6.398  -3.193   0.140  0.00  0.00    +0.042 A 
ATOM     16  C   UNL     1       7.778  -3.280   0.239  0.00  0.00    +0.029 A 
ATOM     17  C   UNL     1       8.556  -2.137   0.244  0.00  0.00    +0.022 A 
ATOM     18  C   UNL     1       7.958  -0.892   0.148  0.00  0.00    +0.136 A 
ATOM     19  O   UNL     1       8.710   0.238   0.145  0.00  0.00    -0.465 OA
ATOM     20  C   UNL     1      10.060   0.118   0.604  0.00  0.00    +0.395 C 
ATOM     21  O   UNL     1      10.659  -1.019  -0.030  0.00  0.00    -0.339 OA
ATOM     22  C   UNL     1      10.055  -2.257   0.357  0.00  0.00    +0.202 C 
ATOM     23 CL   UNL     1       5.438  -4.639   0.134  0.00  0.00    -0.084 Cl
ENDBRANCH  11  13
BRANCH   4  24
ATOM     24  O   UNL     1      -1.052  -0.527   1.368  0.00  0.00    -0.507 OA
ATOM     25  H   UNL     1      -1.557  -0.759   0.577  0.00  0.00    +0.292 HD
ENDBRANCH   4  24
TORSDOF 2
