REMARK  Name = ZINC02782016
REMARK  11 active torsions:
REMARK  status: ('A' for Active; 'I' for Inactive)
REMARK    1  A    between atoms: C_1  and  C_2
REMARK    2  A    between atoms: C_5  and  C_24
REMARK    3  A    between atoms: C_10  and  C_12
REMARK    4  A    between atoms: N_14  and  N_15
REMARK    5  A    between atoms: N_15  and  C_16
REMARK    6  A    between atoms: C_16  and  N_18
REMARK    7  A    between atoms: N_18  and  C_19
REMARK    8  A    between atoms: C_19  and  C_20
REMARK    9  A    between atoms: C_20  and  O_21
REMARK   10  A    between atoms: O_21  and  C_22
REMARK   11  A    between atoms: C_24  and  C_25
REMARK                            x       y       z     vdW  Elec       q    Type
REMARK                         _______ _______ _______ _____ _____    ______ ____
ROOT
ATOM      1  C   UNL     1       0.526   1.036  -0.480  0.00  0.00    +0.028 C 
ATOM      2  C   UNL     1       0.321  -0.477  -0.399  0.00  0.00    +0.071 C 
ATOM      3  C   UNL     1      -1.170  -0.786  -0.222  0.00  0.00    +0.055 C 
ATOM      4  C   UNL     1      -1.391  -2.303  -0.208  0.00  0.00    +0.189 C 
ATOM      5  N   UNL     1      -0.456  -2.910   0.742  0.00  0.00    -0.241 N 
ATOM      6  C   UNL     1       0.679  -2.294   1.188  0.00  0.00    +0.118 A 
ATOM      7  C   UNL     1       1.299  -3.126   2.048  0.00  0.00    +0.078 A 
ATOM      8  C   UNL     1       0.521  -4.303   2.138  0.00  0.00    +0.150 A 
ATOM      9  N   UNL     1      -0.530  -4.163   1.350  0.00  0.00    -0.164 NA
ATOM     10  N   UNL     1       1.057  -1.016   0.762  0.00  0.00    -0.327 N 
ATOM     11  H   UNL     1       1.758  -0.512   1.204  0.00  0.00    +0.148 HD
ENDROOT
BRANCH   8  12
ATOM     12  C   UNL     1       0.831  -5.485   2.969  0.00  0.00    +0.280 C 
ATOM     13  O   UNL     1       1.833  -5.499   3.656  0.00  0.00    -0.267 OA
ATOM     14  N   UNL     1       0.002  -6.547   2.964  0.00  0.00    -0.230 N 
ATOM     15  H   UNL     1      -0.798  -6.536   2.415  0.00  0.00    +0.173 HD
BRANCH  14  16
ATOM     16  N   UNL     1       0.295  -7.668   3.752  0.00  0.00    -0.246 N 
ATOM     17  H   UNL     1       1.095  -7.679   4.300  0.00  0.00    +0.172 HD
BRANCH  16  18
ATOM     18  C   UNL     1      -0.534  -8.731   3.747  0.00  0.00    +0.147 C 
ATOM     19  S   UNL     1      -0.175 -10.100   4.710  0.00  0.00    -0.017 S 
BRANCH  18  20
ATOM     20  N   UNL     1      -1.645  -8.715   2.985  0.00  0.00    -0.323 N 
ATOM     21  H   UNL     1      -1.849  -7.939   2.439  0.00  0.00    +0.148 HD
BRANCH  20  22
ATOM     22  C   UNL     1      -2.546  -9.870   2.980  0.00  0.00    +0.131 C 
BRANCH  22  23
ATOM     23  C   UNL     1      -3.721  -9.597   2.039  0.00  0.00    +0.178 C 
BRANCH  23  24
ATOM     24  O   UNL     1      -3.241  -9.486   0.697  0.00  0.00    -0.381 OA
ATOM     25  C   UNL     1      -4.264  -9.229  -0.267  0.00  0.00    +0.194 C 
ENDBRANCH  23  24
ENDBRANCH  22  23
ENDBRANCH  20  22
ENDBRANCH  18  20
ENDBRANCH  16  18
ENDBRANCH  14  16
ENDBRANCH   8  12
BRANCH   4  26
ATOM     26  C   UNL     1      -2.829  -2.607   0.218  0.00  0.00    +0.363 C 
ATOM     27  F   UNL     1      -3.001  -3.991   0.324  0.00  0.00    -0.193 F 
ATOM     28  F   UNL     1      -3.085  -2.008   1.456  0.00  0.00    -0.193 F 
BRANCH  26  29
ATOM     29  C   UNL     1      -3.799  -2.051  -0.827  0.00  0.00    +0.456 C 
ATOM     30  F   UNL     1      -3.454  -2.542  -2.091  0.00  0.00    -0.165 F 
ATOM     31  F   UNL     1      -5.103  -2.450  -0.512  0.00  0.00    -0.165 F 
ATOM     32  F   UNL     1      -3.728  -0.654  -0.834  0.00  0.00    -0.165 F 
ENDBRANCH  26  29
ENDBRANCH   4  26
TORSDOF 9
