REMARK  Name = ZINC12573929
REMARK  8 active torsions:
REMARK  status: ('A' for Active; 'I' for Inactive)
REMARK    1  A    between atoms: C_10  and  O_11
REMARK    2  A    between atoms: O_11  and  C_12
REMARK    3  A    between atoms: C_12  and  C_13
REMARK    4  A    between atoms: N_15  and  C_16
REMARK    5  A    between atoms: C_16  and  N_18
REMARK    6  A    between atoms: N_18  and  N_19
REMARK    7  A    between atoms: C_20  and  C_22
REMARK    8  A    between atoms: C_26  and  N_28
REMARK                            x       y       z     vdW  Elec       q    Type
REMARK                         _______ _______ _______ _____ _____    ______ ____
ROOT
ATOM      1  C   UNL     1       2.227   8.103   0.024  0.00  0.00    +0.153 C 
ATOM      2  S   UNL     1       2.204   9.815   0.034  0.00  0.00    -0.017 S 
ENDROOT
BRANCH   1   5
ATOM      3  C   UNL     1       4.561   8.135   0.003  0.00  0.00    +0.256 C 
ATOM      4  O   UNL     1       4.544   9.347   0.010  0.00  0.00    -0.272 OA
ATOM      5  N   UNL     1       3.403   7.445   0.010  0.00  0.00    -0.264 N 
ATOM      6  H   UNL     1       3.416   6.475   0.005  0.00  0.00    +0.157 HD
BRANCH   3   7
ATOM      7  C   UNL     1       5.876   7.399  -0.013  0.00  0.00    +0.325 C 
BRANCH   7   8
ATOM      8  O   UNL     1       6.949   8.343  -0.018  0.00  0.00    -0.482 OA
BRANCH   8  18
ATOM      9  C   UNL     1      11.537  10.378  -0.049  0.00  0.00    +0.001 A 
ATOM     10  C   UNL     1      10.250  10.913  -0.035  0.00  0.00    +0.001 A 
ATOM     11  C   UNL     1       9.155  10.104  -0.029  0.00  0.00    +0.012 A 
ATOM     12  C   UNL     1       9.321   8.710  -0.043  0.00  0.00    +0.024 A 
ATOM     13  C   UNL     1      10.629   8.165  -0.052  0.00  0.00    -0.014 A 
ATOM     14  C   UNL     1      11.736   9.032  -0.058  0.00  0.00    +0.008 A 
ATOM     15  C   UNL     1      10.795   6.770  -0.061  0.00  0.00    +0.009 A 
ATOM     16  C   UNL     1       9.701   5.959  -0.056  0.00  0.00    +0.004 A 
ATOM     17  C   UNL     1       8.414   6.489  -0.041  0.00  0.00    +0.046 A 
ATOM     18  C   UNL     1       8.211   7.841  -0.032  0.00  0.00    +0.129 A 
ENDBRANCH   8  18
ENDBRANCH   7   8
ENDBRANCH   3   7
ENDBRANCH   1   5
BRANCH   1  19
ATOM     19  N   UNL     1       1.069   7.414   0.031  0.00  0.00    -0.245 N 
ATOM     20  H   UNL     1       0.222   7.887   0.042  0.00  0.00    +0.172 HD
BRANCH  19  21
ATOM     21  N   UNL     1       1.088   6.013   0.024  0.00  0.00    -0.231 N 
ATOM     22  C   UNL     1      -0.070   5.323   0.030  0.00  0.00    +0.260 C 
ATOM     23  O   UNL     1      -1.131   5.916   0.043  0.00  0.00    -0.269 OA
ATOM     24  H   UNL     1       1.934   5.539   0.013  0.00  0.00    +0.173 HD
BRANCH  22  25
ATOM     25  C   UNL     1      -0.050   3.845   0.022  0.00  0.00    +0.040 A 
ATOM     26  C   UNL     1       1.166   3.160   0.007  0.00  0.00    +0.013 A 
ATOM     27  C   UNL     1       1.178   1.781   0.000  0.00  0.00    +0.003 A 
ATOM     28  C   UNL     1      -0.013   1.076   0.008  0.00  0.00    +0.033 A 
ATOM     29  C   UNL     1      -1.222   1.748   0.017  0.00  0.00    +0.127 A 
ATOM     30  C   UNL     1      -1.247   3.128   0.030  0.00  0.00    +0.045 A 
BRANCH  29  31
ATOM     31  N   UNL     1      -2.490   0.986   0.020  0.00  0.00    +0.056 N 
ATOM     32  O   UNL     1      -2.469  -0.232   0.013  0.00  0.00    -0.126 OA
ATOM     33  O   UNL     1      -3.556   1.576   0.028  0.00  0.00    -0.126 OA
ENDBRANCH  29  31
ENDBRANCH  22  25
ENDBRANCH  19  21
ENDBRANCH   1  19
TORSDOF 8
