REMARK  Name = ZINC67000711
REMARK  5 active torsions:
REMARK  status: ('A' for Active; 'I' for Inactive)
REMARK    1  A    between atoms: C_10  and  C_11
REMARK    2  A    between atoms: C_10  and  O_28
REMARK    3  A    between atoms: C_11  and  N_12
REMARK    4  A    between atoms: C_13  and  C_15
REMARK    5  A    between atoms: N_17  and  C_18
REMARK                            x       y       z     vdW  Elec       q    Type
REMARK                         _______ _______ _______ _____ _____    ______ ____
ROOT
ATOM      1  N   UNL     1       4.461   1.556  -0.784  0.00  0.00    -0.305 N 
ATOM      2  C   UNL     1       5.279   2.381  -1.468  0.00  0.00    +0.299 C 
ATOM      3  O   UNL     1       5.957   1.947  -2.376  0.00  0.00    -0.265 OA
ATOM      4  H   UNL     1       3.919   1.904  -0.058  0.00  0.00    +0.149 HD
ENDROOT
BRANCH   2   5
ATOM      5  C   UNL     1       5.349   3.829  -1.110  0.00  0.00    +0.303 C 
ATOM      6  O   UNL     1       4.671   4.263  -0.202  0.00  0.00    -0.265 OA
ATOM      7  N   UNL     1       6.167   4.654  -1.794  0.00  0.00    -0.278 N 
ATOM      8  H   UNL     1       6.653   4.324  -2.567  0.00  0.00    +0.155 HD
BRANCH   7   9
ATOM      9  C   UNL     1       6.314   5.984  -1.392  0.00  0.00    +0.035 A 
ATOM     10  C   UNL     1       6.249   6.311  -0.042  0.00  0.00    +0.023 A 
ATOM     11  C   UNL     1       6.395   7.627   0.361  0.00  0.00    +0.008 A 
ATOM     12  C   UNL     1       6.605   8.615  -0.574  0.00  0.00    -0.018 A 
ATOM     13  C   UNL     1       6.673   8.300  -1.934  0.00  0.00    +0.043 A 
ATOM     14  C   UNL     1       6.532   6.973  -2.339  0.00  0.00    +0.036 A 
ATOM     15  C   UNL     1       6.904   9.549  -2.686  0.00  0.00    +0.245 C 
ATOM     16  O   UNL     1       7.013   9.621  -3.895  0.00  0.00    -0.270 OA
ATOM     17  N   UNL     1       6.977  10.594  -1.844  0.00  0.00    -0.307 N 
ATOM     18  C   UNL     1       6.799  10.107  -0.471  0.00  0.00    +0.140 C 
ATOM     19  H   UNL     1       7.124  11.518  -2.102  0.00  0.00    +0.149 HD
ENDBRANCH   7   9
ENDBRANCH   2   5
BRANCH   1  20
ATOM     20  C   UNL     1       4.392   0.136  -1.135  0.00  0.00    +0.144 C 
BRANCH  20  30
ATOM     21  C   UNL     1       3.266  -4.701  -1.309  0.00  0.00    +0.000 A 
ATOM     22  C   UNL     1       3.369  -3.726  -2.284  0.00  0.00    +0.000 A 
ATOM     23  C   UNL     1       3.394  -2.395  -1.921  0.00  0.00    +0.007 A 
ATOM     24  C   UNL     1       3.319  -2.026  -0.584  0.00  0.00    -0.011 A 
ATOM     25  C   UNL     1       3.221  -2.997   0.386  0.00  0.00    -0.041 A 
ATOM     26  C   UNL     1       3.191  -4.337   0.019  0.00  0.00    +0.004 A 
ATOM     27  C   UNL     1       3.151  -2.671   1.855  0.00  0.00    +0.035 C 
ATOM     28  C   UNL     1       2.764  -1.208   2.063  0.00  0.00    +0.008 C 
ATOM     29  C   UNL     1       3.693  -0.336   1.211  0.00  0.00    +0.041 C 
ATOM     30  C   UNL     1       3.345  -0.555  -0.260  0.00  0.00    +0.107 C 
BRANCH  30  31
ATOM     31  O   UNL     1       2.060   0.009  -0.529  0.00  0.00    -0.382 OA
ATOM     32  H   UNL     1       1.777  -0.077  -1.450  0.00  0.00    +0.211 HD
ENDBRANCH  30  31
ENDBRANCH  20  30
ENDBRANCH   1  20
TORSDOF 5
