REMARK  Name = ZINC65552670
REMARK  4 active torsions:
REMARK  status: ('A' for Active; 'I' for Inactive)
REMARK    1  A    between atoms: C_4  and  C_7
REMARK    2  A    between atoms: C_9  and  C_11
REMARK    3  A    between atoms: N_13  and  C_14
REMARK    4  A    between atoms: C_16  and  C_22
REMARK                            x       y       z     vdW  Elec       q    Type
REMARK                         _______ _______ _______ _____ _____    ______ ____
ROOT
ATOM      1  C   UNL     1       4.253  -4.138   0.371  0.00  0.00    +0.220 C 
ATOM      2  O   UNL     1       3.456  -4.712  -0.341  0.00  0.00    -0.275 OA
ATOM      3  N   UNL     1       4.795  -4.777   1.427  0.00  0.00    -0.281 N 
ATOM      4  H   UNL     1       5.485  -4.344   1.954  0.00  0.00    +0.155 HD
ENDROOT
BRANCH   3   5
ATOM      5  C   UNL     1       4.361  -6.066   1.764  0.00  0.00    +0.099 A 
ATOM      6  C   UNL     1       5.249  -7.107   1.803  0.00  0.00    +0.042 A 
ATOM      7  C   UNL     1       4.789  -8.386   2.144  0.00  0.00    +0.073 A 
ATOM      8  C   UNL     1       3.481  -8.582   2.429  0.00  0.00    +0.098 A 
ATOM      9  N   UNL     1       2.598  -7.549   2.391  0.00  0.00    -0.327 N 
ATOM     10  H   UNL     1       1.664  -7.710   2.599  0.00  0.00    +0.168 HD
ATOM     11  C   UNL     1       3.005  -6.306   2.073  0.00  0.00    +0.270 A 
ATOM     12  O   UNL     1       2.201  -5.388   2.047  0.00  0.00    -0.266 OA
BRANCH   7  13
ATOM     13  C   UNL     1       5.751  -9.545   2.192  0.00  0.00    +0.419 C 
ATOM     14  F   UNL     1       5.063 -10.708   2.552  0.00  0.00    -0.166 F 
ATOM     15  F   UNL     1       6.334  -9.719   0.932  0.00  0.00    -0.166 F 
ATOM     16  F   UNL     1       6.750  -9.282   3.135  0.00  0.00    -0.166 F 
ENDBRANCH   7  13
ENDBRANCH   3   5
BRANCH   1  19
ATOM     17  C   UNL     1       3.790  -0.819  -0.364  0.00  0.00    +0.020 C 
ATOM     18  C   UNL     1       3.932  -2.127  -1.160  0.00  0.00    +0.021 C 
ATOM     19  C   UNL     1       4.637  -2.711   0.076  0.00  0.00    +0.076 C 
ATOM     20  C   UNL     1       3.859  -1.679   0.909  0.00  0.00    +0.021 C 
BRANCH  17  24
ATOM     21  C   UNL     1       0.025   1.122  -0.919  0.00  0.00    +0.000 A 
ATOM     22  C   UNL     1       1.180   1.873  -0.801  0.00  0.00    +0.000 A 
ATOM     23  C   UNL     1       2.398   1.245  -0.621  0.00  0.00    +0.004 A 
ATOM     24  C   UNL     1       2.462  -0.134  -0.559  0.00  0.00    -0.044 A 
ATOM     25  C   UNL     1       1.308  -0.886  -0.677  0.00  0.00    +0.004 A 
ATOM     26  C   UNL     1       0.090  -0.258  -0.858  0.00  0.00    +0.000 A 
ENDBRANCH  17  24
ENDBRANCH   1  19
TORSDOF 4
