REMARK  Name = ZINC09068091
REMARK  6 active torsions:
REMARK  status: ('A' for Active; 'I' for Inactive)
REMARK    1  A    between atoms: C_4  and  N_7
REMARK    2  A    between atoms: C_9  and  C_14
REMARK    3  A    between atoms: C_14  and  N_15
REMARK    4  A    between atoms: C_16  and  C_18
REMARK    5  A    between atoms: C_18  and  O_19
REMARK    6  A    between atoms: O_19  and  C_20
REMARK                            x       y       z     vdW  Elec       q    Type
REMARK                         _______ _______ _______ _____ _____    ______ ____
ROOT
ATOM      1  C   UNL     1      -3.373   4.493  -1.214  0.00  0.00    +0.150 C 
ENDROOT
BRANCH   1   4
ATOM      2  N   UNL     1      -1.237   2.069   0.019  0.00  0.00    -0.234 N 
ATOM      3  C   UNL     1      -1.398   3.531   0.028  0.00  0.00    +0.163 C 
ATOM      4  C   UNL     1      -2.925   3.733   0.036  0.00  0.00    +0.213 C 
ATOM      5  O   UNL     1      -3.460   2.377   0.031  0.00  0.00    -0.444 OA
ATOM      6  C   UNL     1      -2.450   1.500   0.016  0.00  0.00    +0.408 C 
ATOM      7  O   UNL     1      -2.618   0.296   0.004  0.00  0.00    -0.226 OA
BRANCH   2  11
ATOM      8  C   UNL     1       2.396   0.031  -0.021  0.00  0.00    +0.000 A 
ATOM      9  C   UNL     1       1.208  -0.677  -0.013  0.00  0.00    +0.002 A 
ATOM     10  C   UNL     1       0.002  -0.004   0.002  0.00  0.00    +0.023 A 
ATOM     11  C   UNL     1      -0.017   1.384   0.010  0.00  0.00    +0.040 A 
ATOM     12  C   UNL     1       1.178   2.092   0.002  0.00  0.00    +0.023 A 
ATOM     13  C   UNL     1       2.381   1.413  -0.014  0.00  0.00    +0.002 A 
ENDBRANCH   2  11
ENDBRANCH   1   4
BRANCH   1  14
ATOM     14  N   UNL     1      -4.808   4.776  -1.125  0.00  0.00    -0.309 N 
ATOM     15  C   UNL     1      -5.426   5.442  -2.121  0.00  0.00    +0.251 C 
ATOM     16  O   UNL     1      -4.794   5.807  -3.090  0.00  0.00    -0.272 OA
ATOM     17  H   UNL     1      -5.313   4.484  -0.350  0.00  0.00    +0.149 HD
BRANCH  15  18
ATOM     18  C   UNL     1      -6.902   5.734  -2.030  0.00  0.00    +0.324 C 
BRANCH  18  19
ATOM     19  O   UNL     1      -7.319   6.444  -3.197  0.00  0.00    -0.480 OA
BRANCH  19  20
ATOM     20  C   UNL     1      -8.633   6.786  -3.274  0.00  0.00    +0.156 A 
ATOM     21  C   UNL     1      -9.502   6.440  -2.251  0.00  0.00    +0.048 A 
ATOM     22  C   UNL     1     -10.836   6.793  -2.329  0.00  0.00    +0.004 A 
ATOM     23  C   UNL     1     -11.307   7.481  -3.431  0.00  0.00    +0.003 A 
ATOM     24  C   UNL     1     -10.445   7.824  -4.456  0.00  0.00    +0.042 A 
ATOM     25  C   UNL     1      -9.108   7.478  -4.381  0.00  0.00    +0.165 A 
ATOM     26  F   UNL     1      -8.266   7.812  -5.383  0.00  0.00    -0.202 F 
ENDBRANCH  19  20
ENDBRANCH  18  19
ENDBRANCH  15  18
ENDBRANCH   1  14
TORSDOF 6
