REMARK  Name = ZINC18181410
REMARK  10 active torsions:
REMARK  status: ('A' for Active; 'I' for Inactive)
REMARK    1  A    between atoms: C_1  and  C_2
REMARK    2  A    between atoms: C_7  and  S_10
REMARK    3  A    between atoms: S_10  and  C_11
REMARK    4  A    between atoms: C_11  and  C_12
REMARK    5  A    between atoms: N_14  and  C_15
REMARK    6  A    between atoms: N_14  and  C_22
REMARK    7  A    between atoms: C_15  and  C_16
REMARK    8  A    between atoms: C_22  and  C_23
REMARK    9  A    between atoms: C_22  and  C_24
REMARK   10  A    between atoms: C_22  and  C_25
REMARK                            x       y       z     vdW  Elec       q    Type
REMARK                         _______ _______ _______ _____ _____    ______ ____
ROOT
ATOM      1  C   UNL     1      -4.590   6.449  -6.023  0.00  0.00    +0.227 C 
ATOM      2  O   UNL     1      -5.298   6.318  -6.999  0.00  0.00    -0.275 OA
ATOM      3  N   UNL     1      -3.722   7.477  -5.953  0.00  0.00    -0.291 N 
ENDROOT
BRANCH   3   4
ATOM      4  C   UNL     1      -2.754   7.546  -4.855  0.00  0.00    +0.029 C 
ATOM      5  C   UNL     1      -1.730   6.420  -5.007  0.00  0.00    +0.031 C 
ATOM      6  C   UNL     1      -2.037   8.897  -4.892  0.00  0.00    +0.031 C 
ATOM      7  C   UNL     1      -3.486   7.393  -3.520  0.00  0.00    +0.031 C 
ENDBRANCH   3   4
BRANCH   1   8
ATOM      8  C   UNL     1      -4.680   5.461  -4.888  0.00  0.00    +0.173 C 
BRANCH   8   9
ATOM      9  S   UNL     1      -5.804   4.113  -5.349  0.00  0.00    -0.077 S 
BRANCH   9  16
ATOM     10  C   UNL     1      -5.855   0.464  -0.585  0.00  0.00    +0.073 C 
ATOM     11  C   UNL     1      -5.856   1.367  -1.792  0.00  0.00    +0.124 A 
ATOM     12  C   UNL     1      -5.051   2.591  -1.807  0.00  0.00    +0.295 A 
ATOM     13  O   UNL     1      -4.369   2.892  -0.839  0.00  0.00    -0.264 OA
ATOM     14  N   UNL     1      -5.069   3.377  -2.890  0.00  0.00    -0.182 NA
ATOM     15  H   UNL     1      -7.090   1.712  -4.732  0.00  0.00    +0.191 HD
ATOM     16  C   UNL     1      -5.803   3.057  -3.938  0.00  0.00    +0.187 A 
ATOM     17  N   UNL     1      -6.558   1.927  -3.950  0.00  0.00    -0.255 N 
ATOM     18  N   UNL     1      -6.571   1.068  -2.843  0.00  0.00    -0.172 NA
ENDBRANCH   9  16
ENDBRANCH   8   9
ENDBRANCH   1   8
BRANCH   3  19
ATOM     19  C   UNL     1      -3.746   8.527  -6.975  0.00  0.00    +0.143 C 
BRANCH  19  20
ATOM     20  C   UNL     1      -4.808   9.539  -6.631  0.00  0.00    -0.030 A 
ATOM     21  C   UNL     1      -6.131   9.285  -6.942  0.00  0.00    +0.005 A 
ATOM     22  C   UNL     1      -7.105  10.214  -6.626  0.00  0.00    +0.000 A 
ATOM     23  C   UNL     1      -6.756  11.395  -5.999  0.00  0.00    +0.000 A 
ATOM     24  C   UNL     1      -5.434  11.648  -5.688  0.00  0.00    +0.000 A 
ATOM     25  C   UNL     1      -4.460  10.718  -6.000  0.00  0.00    +0.005 A 
ENDBRANCH  19  20
ENDBRANCH   3  19
TORSDOF 6
