REMARK  Name = ZINC59371546
REMARK  5 active torsions:
REMARK  status: ('A' for Active; 'I' for Inactive)
REMARK    1  A    between atoms: C_1  and  O_2
REMARK    2  A    between atoms: O_2  and  C_3
REMARK    3  A    between atoms: C_3  and  N_5
REMARK    4  A    between atoms: N_14  and  C_15
REMARK    5  A    between atoms: C_15  and  C_16
REMARK                            x       y       z     vdW  Elec       q    Type
REMARK                         _______ _______ _______ _____ _____    ______ ____
ROOT
ATOM      1  N   UNL     1       0.675  -1.949   1.087  0.00  0.00    -0.109 NA
ATOM      2  C   UNL     1       1.369  -2.547   2.048  0.00  0.00    +0.204 A 
ATOM      3  N   UNL     1       1.979  -1.919   3.089  0.00  0.00    -0.326 N 
ATOM      4  C   UNL     1       2.599  -2.883   3.877  0.00  0.00    +0.066 A 
ATOM      5  C   UNL     1       3.352  -2.813   5.041  0.00  0.00    +0.028 A 
ATOM      6  C   UNL     1       3.850  -3.969   5.609  0.00  0.00    +0.002 A 
ATOM      7  C   UNL     1       3.602  -5.199   5.021  0.00  0.00    +0.002 A 
ATOM      8  C   UNL     1       2.855  -5.279   3.863  0.00  0.00    +0.028 A 
ATOM      9  C   UNL     1       2.349  -4.123   3.285  0.00  0.00    +0.068 A 
ATOM     10  N   UNL     1       1.577  -3.888   2.152  0.00  0.00    -0.309 N 
ATOM     11  H   UNL     1       1.981  -0.963   3.253  0.00  0.00    +0.169 HD
ENDROOT
BRANCH   1  12
ATOM     12  C   UNL     1       0.633  -0.614   1.026  0.00  0.00    +0.427 C 
ATOM     13  O   UNL     1       1.150   0.052   1.905  0.00  0.00    -0.224 OA
BRANCH  12  15
ATOM     14  C   UNL     1       0.011   1.424  -0.010  0.00  0.00    +0.282 C 
ATOM     15  O   UNL     1       0.018  -0.005  -0.009  0.00  0.00    -0.452 OA
ENDBRANCH  12  15
ENDBRANCH   1  12
BRANCH  10  16
ATOM     16  C   UNL     1       1.078  -4.908   1.226  0.00  0.00    +0.159 C 
BRANCH  16  17
ATOM     17  C   UNL     1       2.106  -5.138   0.117  0.00  0.00    +0.164 C 
ATOM     18  C   UNL     1       1.738  -6.110  -1.006  0.00  0.00    +0.193 C 
ATOM     19  O   UNL     1       2.691  -6.437   0.010  0.00  0.00    -0.370 OA
ENDBRANCH  16  17
ENDBRANCH  10  16
TORSDOF 4
