REMARK  Name = ZINC03568445
REMARK  5 active torsions:
REMARK  status: ('A' for Active; 'I' for Inactive)
REMARK    1  A    between atoms: C_12  and  C_14
REMARK    2  A    between atoms: C_14  and  O_16
REMARK    3  A    between atoms: O_16  and  C_17
REMARK    4  A    between atoms: C_17  and  C_18
REMARK    5  A    between atoms: N_23  and  C_24
REMARK                            x       y       z     vdW  Elec       q    Type
REMARK                         _______ _______ _______ _____ _____    ______ ____
ROOT
ATOM      1  C   UNL     1      -3.068   0.526  -0.784  0.00  0.00    +0.343 C 
ATOM      2  O   UNL     1      -3.549  -0.034   0.171  0.00  0.00    -0.247 OA
ENDROOT
BRANCH   1  14
ATOM      3  C   UNL     1      -4.199   4.059   3.122  0.00  0.00    +0.002 A 
ATOM      4  C   UNL     1      -4.763   4.941   2.216  0.00  0.00    +0.001 A 
ATOM      5  C   UNL     1      -4.457   4.815   0.871  0.00  0.00    +0.016 A 
ATOM      6  C   UNL     1      -3.600   3.824   0.457  0.00  0.00    +0.032 A 
ATOM      7  C   UNL     1      -2.972   2.954   1.360  0.00  0.00    +0.052 A 
ATOM      8  C   UNL     1      -3.321   3.082   2.709  0.00  0.00    +0.025 A 
ATOM      9  N   UNL     1      -1.967   2.115   0.831  0.00  0.00    -0.245 N 
ATOM     10  C   UNL     1      -0.770   1.598   1.212  0.00  0.00    +0.221 C 
ATOM     11  O   UNL     1      -0.365   1.552   2.355  0.00  0.00    -0.275 OA
ATOM     12  C   UNL     1      -0.013   1.086   0.008  0.00  0.00    +0.100 C 
ATOM     13  C   UNL     1      -0.812   1.624  -1.206  0.00  0.00    +0.059 C 
ATOM     14  C   UNL     1      -2.213   1.752  -0.588  0.00  0.00    +0.190 C 
ATOM     15  S   UNL     1      -3.019   3.307  -1.146  0.00  0.00    -0.086 S 
ENDBRANCH   1  14
BRANCH   1  16
ATOM     16  O   UNL     1      -3.294   0.057  -2.022  0.00  0.00    -0.453 OA
BRANCH  16  17
ATOM     17  C   UNL     1      -4.126  -1.127  -2.136  0.00  0.00    +0.328 C 
BRANCH  17  18
ATOM     18  C   UNL     1      -4.268  -1.504  -3.588  0.00  0.00    +0.258 C 
ATOM     19  O   UNL     1      -3.721  -0.840  -4.442  0.00  0.00    -0.272 OA
ATOM     20  N   UNL     1      -5.002  -2.579  -3.937  0.00  0.00    -0.237 N 
ATOM     21  C   UNL     1      -5.129  -2.915  -5.236  0.00  0.00    +0.306 C 
ATOM     22  O   UNL     1      -4.581  -2.250  -6.093  0.00  0.00    -0.252 OA
ATOM     23  N   UNL     1      -5.863  -3.990  -5.585  0.00  0.00    -0.296 N 
ATOM     24  H   UNL     1      -5.439  -3.110  -3.253  0.00  0.00    +0.159 HD
ATOM     25  H   UNL     1      -6.300  -4.521  -4.901  0.00  0.00    +0.151 HD
BRANCH  23  26
ATOM     26  C   UNL     1      -6.001  -4.356  -6.997  0.00  0.00    +0.074 C 
ATOM     27  C   UNL     1      -7.184  -3.594  -7.627  0.00  0.00    +0.022 C 
ATOM     28  C   UNL     1      -7.818  -4.618  -8.602  0.00  0.00    +0.002 C 
ATOM     29  C   UNL     1      -7.694  -5.953  -7.826  0.00  0.00    +0.002 C 
ATOM     30  C   UNL     1      -6.324  -5.855  -7.123  0.00  0.00    +0.022 C 
ENDBRANCH  23  26
ENDBRANCH  17  18
ENDBRANCH  16  17
ENDBRANCH   1  16
TORSDOF 5
