REMARK  Name = ZINC23007573
REMARK  12 active torsions:
REMARK  status: ('A' for Active; 'I' for Inactive)
REMARK    1  A    between atoms: C_1  and  C_2
REMARK    2  A    between atoms: C_2  and  O_3
REMARK    3  A    between atoms: O_3  and  C_4
REMARK    4  A    between atoms: C_4  and  C_6
REMARK    5  A    between atoms: C_7  and  C_17
REMARK    6  A    between atoms: C_8  and  C_12
REMARK    7  A    between atoms: C_10  and  N_11
REMARK    8  A    between atoms: C_12  and  O_14
REMARK    9  A    between atoms: O_14  and  C_15
REMARK   10  A    between atoms: C_15  and  C_16
REMARK   11  A    between atoms: C_17  and  S_18
REMARK   12  A    between atoms: S_18  and  C_19
REMARK                            x       y       z     vdW  Elec       q    Type
REMARK                         _______ _______ _______ _____ _____    ______ ____
ROOT
ATOM      1  C   UNL     1      -1.248  -2.098   0.003  0.00  0.00    +0.092 A 
ATOM      2  C   UNL     1      -1.259  -2.821   1.185  0.00  0.00    -0.000 A 
ATOM      3  C   UNL     1      -1.318  -4.186   1.095  0.00  0.00    +0.103 A 
ATOM      4  S   UNL     1      -1.345  -4.463  -0.665  0.00  0.00    -0.066 S 
ATOM      5  C   UNL     1      -1.287  -2.816  -1.200  0.00  0.00    +0.078 A 
ENDROOT
BRANCH   5   6
ATOM      6  N   UNL     1      -1.281  -2.332  -2.487  0.00  0.00    -0.352 N 
ATOM      7  H   UNL     1      -1.316  -3.030  -3.337  0.00  0.00    +0.143 HD
ATOM      8  H   UNL     1      -1.242  -1.248  -2.667  0.00  0.00    +0.143 HD
ENDBRANCH   5   6
BRANCH   1   9
ATOM      9  C   UNL     1      -1.191  -0.633   0.010  0.00  0.00    +0.342 C 
ATOM     10  O   UNL     1      -2.220   0.016   0.023  0.00  0.00    -0.245 OA
BRANCH   9  11
ATOM     11  O   UNL     1       0.002  -0.004   0.002  0.00  0.00    -0.461 OA
BRANCH  11  13
ATOM     12  C   UNL     1       1.418   1.977  -0.001  0.00  0.00    +0.048 C 
ATOM     13  C   UNL     1      -0.018   1.448   0.010  0.00  0.00    +0.229 C 
ENDBRANCH  11  13
ENDBRANCH   9  11
ENDBRANCH   1   9
BRANCH   3  14
ATOM     14  C   UNL     1      -1.345  -5.171   2.175  0.00  0.00    +0.346 C 
ATOM     15  O   UNL     1      -1.319  -4.803   3.334  0.00  0.00    -0.244 OA
BRANCH  14  16
ATOM     16  O   UNL     1      -1.398  -6.488   1.885  0.00  0.00    -0.461 OA
BRANCH  16  17
ATOM     17  C   UNL     1      -1.421  -7.394   2.990  0.00  0.00    +0.229 C 
ATOM     18  C   UNL     1      -1.481  -8.831   2.468  0.00  0.00    +0.048 C 
ENDBRANCH  16  17
ENDBRANCH  14  16
ENDBRANCH   3  14
BRANCH   2  19
ATOM     19  C   UNL     1      -1.214  -2.129   2.523  0.00  0.00    +0.114 C 
BRANCH  19  20
ATOM     20  S   UNL     1      -2.901  -1.786   3.083  0.00  0.00    -0.081 S 
BRANCH  20  21
ATOM     21  C   UNL     1      -2.558  -0.999   4.622  0.00  0.00    +0.191 A 
ATOM     22  N   UNL     1      -3.567  -0.572   5.373  0.00  0.00    -0.207 NA
ATOM     23  C   UNL     1      -3.372   0.021   6.539  0.00  0.00    +0.129 A 
ATOM     24  C   UNL     1      -2.042   0.222   7.005  0.00  0.00    +0.047 A 
ATOM     25  C   UNL     1      -1.574   0.844   8.232  0.00  0.00    +0.021 A 
ATOM     26  C   UNL     1      -0.256   0.923   8.464  0.00  0.00    +0.048 A 
ATOM     27  S   UNL     1       0.467   0.154   7.027  0.00  0.00    -0.077 S 
ATOM     28  C   UNL     1      -1.022  -0.252   6.153  0.00  0.00    +0.114 A 
ATOM     29  N   UNL     1      -1.299  -0.839   5.005  0.00  0.00    -0.215 NA
ATOM     30  N   UNL     1      -4.449   0.447   7.295  0.00  0.00    -0.343 N 
ATOM     31  H   UNL     1      -4.280   0.940   8.264  0.00  0.00    +0.144 HD
ATOM     32  H   UNL     1      -5.474   0.293   6.927  0.00  0.00    +0.144 HD
ENDBRANCH  20  21
ENDBRANCH  19  20
ENDBRANCH   2  19
TORSDOF 10
