REMARK  Name = ZINC13247785
REMARK  7 active torsions:
REMARK  status: ('A' for Active; 'I' for Inactive)
REMARK    1  A    between atoms: C_4  and  C_30
REMARK    2  A    between atoms: C_6  and  S_7
REMARK    3  A    between atoms: S_7  and  N_10
REMARK    4  A    between atoms: N_10  and  C_11
REMARK    5  A    between atoms: C_12  and  C_20
REMARK    6  A    between atoms: N_22  and  C_23
REMARK    7  A    between atoms: C_23  and  C_24
REMARK                            x       y       z     vdW  Elec       q    Type
REMARK                         _______ _______ _______ _____ _____    ______ ____
ROOT
ATOM      1  C   UNL     1      -7.762   2.318  -1.435  0.00  0.00    +0.098 A 
ATOM      2  C   UNL     1      -7.043   1.278  -0.860  0.00  0.00    +0.070 A 
ATOM      3  C   UNL     1      -7.656   0.576   0.256  0.00  0.00    -0.023 A 
ATOM      4  C   UNL     1      -8.881   1.019   0.612  0.00  0.00    -0.004 A 
ATOM      5  S   UNL     1      -9.226   2.346  -0.509  0.00  0.00    -0.076 S 
ATOM      6  C   UNL     1      -9.747   0.493   1.714  0.00  0.00    +0.043 C 
ATOM      7  C   UNL     1      -9.199  -0.874   2.149  0.00  0.00    +0.005 C 
ATOM      8  C   UNL     1      -7.686  -0.758   2.349  0.00  0.00    +0.005 C 
ATOM      9  C   UNL     1      -6.994  -0.580   0.996  0.00  0.00    +0.037 C 
ENDROOT
BRANCH   2  10
ATOM     10  C   UNL     1      -5.716   0.907  -1.355  0.00  0.00    +0.247 C 
ATOM     11  O   UNL     1      -5.606   0.070  -2.232  0.00  0.00    -0.270 OA
ATOM     12  N   UNL     1      -4.617   1.492  -0.839  0.00  0.00    -0.309 N 
ATOM     13  H   UNL     1      -4.704   2.158  -0.140  0.00  0.00    +0.149 HD
BRANCH  12  14
ATOM     14  C   UNL     1      -3.289   1.120  -1.334  0.00  0.00    +0.136 C 
BRANCH  14  15
ATOM     15  C   UNL     1      -2.223   1.924  -0.587  0.00  0.00    +0.135 C 
ATOM     16  C   UNL     1      -0.833   1.634  -1.185  0.00  0.00    +0.035 C 
ATOM     17  C   UNL     1      -0.013   1.086   0.008  0.00  0.00    +0.031 C 
ATOM     18  C   UNL     1      -0.810   1.621   1.224  0.00  0.00    +0.160 C 
ATOM     19  O   UNL     1      -2.186   1.524   0.793  0.00  0.00    -0.375 OA
ENDBRANCH  14  15
ENDBRANCH  12  14
ENDBRANCH   2  10
BRANCH   1  20
ATOM     20  N   UNL     1      -7.399   3.132  -2.491  0.00  0.00    -0.209 N 
ATOM     21  H   UNL     1      -6.541   3.007  -2.927  0.00  0.00    +0.174 HD
BRANCH  20  22
ATOM     22  S   UNL     1      -8.427   4.321  -3.013  0.00  0.00    +0.073 S 
ATOM     23  O   UNL     1      -7.767   4.991  -4.077  0.00  0.00    -0.150 OA
ATOM     24  O   UNL     1      -9.703   3.714  -3.170  0.00  0.00    -0.150 OA
BRANCH  22  30
ATOM     25  C   UNL     1      -9.580   5.332  -0.754  0.00  0.00    +0.031 A 
ATOM     26  C   UNL     1      -9.707   6.239   0.282  0.00  0.00    +0.041 A 
ATOM     27  C   UNL     1      -8.843   7.315   0.371  0.00  0.00    +0.138 A 
ATOM     28  C   UNL     1      -7.837   7.481  -0.587  0.00  0.00    +0.100 A 
ATOM     29  C   UNL     1      -7.714   6.556  -1.626  0.00  0.00    +0.046 A 
ATOM     30  C   UNL     1      -8.582   5.488  -1.702  0.00  0.00    +0.109 A 
ATOM     31  F   UNL     1      -8.971   8.204   1.380  0.00  0.00    -0.205 F 
BRANCH  28  32
ATOM     32  C   UNL     1      -6.911   8.626  -0.499  0.00  0.00    +0.389 C 
ATOM     33  O   UNL     1      -7.021   9.428   0.406  0.00  0.00    -0.240 OA
ATOM     34  O   UNL     1      -5.943   8.782  -1.423  0.00  0.00    -0.240 OA
ENDBRANCH  28  32
ENDBRANCH  22  30
ENDBRANCH  20  22
ENDBRANCH   1  20
TORSDOF 7
