REMARK  Name = ZINC57153941
REMARK  9 active torsions:
REMARK  status: ('A' for Active; 'I' for Inactive)
REMARK    1  A    between atoms: C_1  and  C_2
REMARK    2  A    between atoms: C_6  and  N_9
REMARK    3  A    between atoms: C_7  and  C_8
REMARK    4  A    between atoms: N_9  and  C_10
REMARK    5  A    between atoms: C_10  and  N_12
REMARK    6  A    between atoms: N_12  and  N_13
REMARK    7  A    between atoms: C_14  and  C_16
REMARK    8  A    between atoms: N_21  and  C_22
REMARK    9  A    between atoms: C_22  and  C_23
REMARK                            x       y       z     vdW  Elec       q    Type
REMARK                         _______ _______ _______ _____ _____    ______ ____
ROOT
ATOM      1  N   UNL     1      -0.126  -4.123   4.764  0.00  0.00    -0.236 N 
ATOM      2  C   UNL     1      -0.214  -4.799   5.926  0.00  0.00    +0.216 C 
ATOM      3  O   UNL     1      -0.290  -6.009   5.920  0.00  0.00    -0.276 OA
ATOM      4  H   UNL     1      -0.065  -3.155   4.769  0.00  0.00    +0.173 HD
ENDROOT
BRANCH   2   5
ATOM      5  C   UNL     1      -0.217  -4.051   7.235  0.00  0.00    +0.021 C 
ATOM      6  C   UNL     1      -1.442  -3.114   7.301  0.00  0.00    -0.008 C 
ATOM      7  C   UNL     1      -2.472  -3.943   8.112  0.00  0.00    -0.020 C 
ATOM      8  C   UNL     1      -1.556  -4.679   9.121  0.00  0.00    -0.077 C 
ATOM      9  N   UNL     1      -0.329  -5.001   8.356  0.00  0.00    +0.390 N 
ATOM     10  H   UNL     1      -0.388  -5.943   7.998  0.00  0.00    -0.080 HD
BRANCH   9  11
ATOM     11  C   UNL     1       0.848  -4.879   9.227  0.00  0.00    -0.042 C 
BRANCH  11  12
ATOM     12  C   UNL     1       0.790  -5.934  10.301  0.00  0.00    -0.064 A 
ATOM     13  C   UNL     1       0.155  -5.667  11.500  0.00  0.00    +0.002 A 
ATOM     14  C   UNL     1       0.102  -6.635  12.485  0.00  0.00    +0.000 A 
ATOM     15  C   UNL     1       0.683  -7.871  12.271  0.00  0.00    +0.000 A 
ATOM     16  C   UNL     1       1.317  -8.139  11.072  0.00  0.00    +0.000 A 
ATOM     17  C   UNL     1       1.366  -7.172  10.086  0.00  0.00    +0.002 A 
ENDBRANCH  11  12
ENDBRANCH   9  11
ENDBRANCH   2   5
BRANCH   1  18
ATOM     18  N   UNL     1      -0.123  -4.818   3.548  0.00  0.00    -0.246 N 
ATOM     19  H   UNL     1      -0.184  -5.786   3.542  0.00  0.00    +0.172 HD
BRANCH  18  20
ATOM     20  C   UNL     1      -0.035  -4.142   2.385  0.00  0.00    +0.151 C 
ATOM     21  S   UNL     1      -0.031  -4.992   0.899  0.00  0.00    -0.017 S 
BRANCH  20  22
ATOM     22  N   UNL     1       0.050  -2.797   2.392  0.00  0.00    -0.296 N 
ATOM     23  H   UNL     1       0.128  -2.321   3.233  0.00  0.00    +0.154 HD
BRANCH  22  29
ATOM     24  C   UNL     1       1.866   0.777  -0.453  0.00  0.00    +0.044 C 
ATOM     25  C   UNL     1       0.894  -0.351  -0.219  0.00  0.00    -0.046 A 
ATOM     26  C   UNL     1      -0.024  -0.685  -1.198  0.00  0.00    +0.004 A 
ATOM     27  C   UNL     1      -0.918  -1.719  -0.987  0.00  0.00    +0.002 A 
ATOM     28  C   UNL     1      -0.896  -2.421   0.202  0.00  0.00    +0.023 A 
ATOM     29  C   UNL     1       0.025  -2.088   1.187  0.00  0.00    +0.036 A 
ATOM     30  C   UNL     1       0.925  -1.053   0.969  0.00  0.00    -0.026 A 
ATOM     31  C   UNL     1       1.931  -0.692   2.033  0.00  0.00    +0.046 C 
ENDBRANCH  22  29
ENDBRANCH  20  22
ENDBRANCH  18  20
ENDBRANCH   1  18
TORSDOF 7
