REMARK  Name = ZINC50062521
REMARK  8 active torsions:
REMARK  status: ('A' for Active; 'I' for Inactive)
REMARK    1  A    between atoms: C_1  and  C_2
REMARK    2  A    between atoms: C_5  and  C_28
REMARK    3  A    between atoms: N_8  and  C_10
REMARK    4  A    between atoms: C_10  and  C_11
REMARK    5  A    between atoms: C_11  and  N_12
REMARK    6  A    between atoms: N_15  and  C_16
REMARK    7  A    between atoms: N_22  and  C_27
REMARK    8  A    between atoms: N_25  and  C_26
REMARK                            x       y       z     vdW  Elec       q    Type
REMARK                         _______ _______ _______ _____ _____    ______ ____
ROOT
ATOM      1  N   UNL     1       3.745  -2.361   3.459  0.00  0.00    -0.301 N 
ATOM      2  C   UNL     1       5.064  -2.099   3.558  0.00  0.00    +0.304 C 
ATOM      3  O   UNL     1       5.592  -1.335   2.774  0.00  0.00    -0.253 OA
ATOM      4  N   UNL     1       5.796  -2.685   4.526  0.00  0.00    -0.269 N 
ATOM      5  H   UNL     1       3.324  -2.971   4.085  0.00  0.00    +0.150 HD
ATOM      6  H   UNL     1       5.362  -3.233   5.198  0.00  0.00    +0.156 HD
ENDROOT
BRANCH   4   7
ATOM      7  C   UNL     1       7.185  -2.501   4.562  0.00  0.00    +0.037 A 
ATOM      8  C   UNL     1       7.848  -2.463   5.783  0.00  0.00    +0.025 A 
ATOM      9  C   UNL     1       9.216  -2.283   5.825  0.00  0.00    +0.030 A 
ATOM     10  C   UNL     1       9.932  -2.139   4.646  0.00  0.00    +0.070 A 
ATOM     11  C   UNL     1       9.268  -2.177   3.418  0.00  0.00    +0.071 A 
ATOM     12  C   UNL     1       7.895  -2.363   3.379  0.00  0.00    +0.051 A 
ATOM     13  N   UNL     1      10.237  -2.007   2.432  0.00  0.00    -0.295 N 
ATOM     14  C   UNL     1      11.435  -1.873   3.031  0.00  0.00    +0.330 A 
ATOM     15  O   UNL     1      12.493  -1.708   2.453  0.00  0.00    -0.246 OA
ATOM     16  N   UNL     1      11.285  -1.948   4.367  0.00  0.00    -0.295 N 
ATOM     17  C   UNL     1      12.359  -1.845   5.358  0.00  0.00    +0.154 C 
ATOM     18  C   UNL     1       9.994  -1.981   0.988  0.00  0.00    +0.154 C 
ENDBRANCH   4   7
BRANCH   1  19
ATOM     19  C   UNL     1       2.949  -1.725   2.407  0.00  0.00    +0.087 C 
BRANCH  19  20
ATOM     20  C   UNL     1       1.495  -2.189   2.516  0.00  0.00    -0.060 C 
BRANCH  20  26
ATOM     21  C   UNL     1      -0.125   2.090   0.773  0.00  0.00    +0.005 C 
ATOM     22  C   UNL     1      -0.094   0.578   0.540  0.00  0.00    -0.031 C 
ATOM     23  C   UNL     1      -1.526   0.037   0.498  0.00  0.00    +0.003 C 
ATOM     24  C   UNL     1      -1.483  -1.485   0.343  0.00  0.00    -0.031 C 
ATOM     25  C   UNL     1      -0.669  -2.087   1.491  0.00  0.00    -0.076 C 
ATOM     26  N   UNL     1       0.697  -1.551   1.461  0.00  0.00    +0.381 N 
ATOM     27  C   UNL     1       0.669  -0.100   1.680  0.00  0.00    -0.076 C 
ATOM     28  C   UNL     1      -2.907  -2.043   0.378  0.00  0.00    +0.005 C 
ATOM     29  H   UNL     1       1.114  -1.746   0.563  0.00  0.00    -0.082 HD
ENDBRANCH  20  26
ENDBRANCH  19  20
ENDBRANCH   1  19
TORSDOF 4
