REMARK  Name = ZINC62611253
REMARK  3 active torsions:
REMARK  status: ('A' for Active; 'I' for Inactive)
REMARK    1  A    between atoms: C_3  and  O_9
REMARK    2  A    between atoms: O_9  and  C_10
REMARK    3  A    between atoms: C_15  and  N_16
REMARK                            x       y       z     vdW  Elec       q    Type
REMARK                         _______ _______ _______ _____ _____    ______ ____
ROOT
ATOM      1  C   UNL     1       3.481   3.465  -0.119  0.00  0.00    +0.151 A 
ATOM      2  C   UNL     1       2.252   4.102  -0.096  0.00  0.00    +0.071 A 
ATOM      3  C   UNL     1       2.186   5.485  -0.195  0.00  0.00    +0.040 A 
ATOM      4  C   UNL     1       3.352   6.229  -0.317  0.00  0.00    -0.024 A 
ATOM      5  C   UNL     1       4.579   5.596  -0.341  0.00  0.00    +0.032 A 
ATOM      6  C   UNL     1       4.650   4.215  -0.236  0.00  0.00    +0.068 A 
ATOM      7  C   UNL     1       3.274   7.731  -0.423  0.00  0.00    +0.046 C 
ATOM      8  C   UNL     1       2.011   8.125  -1.189  0.00  0.00    +0.101 C 
ATOM      9  C   UNL     1       0.822   7.392  -0.628  0.00  0.00    +0.218 C 
ATOM     10  O   UNL     1      -0.257   7.943  -0.588  0.00  0.00    -0.275 OA
ATOM     11  N   UNL     1       0.943   6.132  -0.172  0.00  0.00    -0.285 N 
ATOM     12  H   UNL     1       0.165   5.669   0.176  0.00  0.00    +0.155 HD
ENDROOT
BRANCH   6  13
ATOM     13  N   UNL     1       5.896   3.573  -0.254  0.00  0.00    -0.355 N 
ATOM     14  H   UNL     1       5.944   2.607  -0.184  0.00  0.00    +0.142 HD
ATOM     15  H   UNL     1       6.709   4.095  -0.336  0.00  0.00    +0.142 HD
ENDBRANCH   6  13
BRANCH   1  16
ATOM     16  O   UNL     1       3.548   2.110  -0.022  0.00  0.00    -0.451 OA
BRANCH  16  19
ATOM     17  C   UNL     1       0.649   0.266   1.179  0.00  0.00    +0.007 A 
ATOM     18  C   UNL     1       1.836   0.975   1.178  0.00  0.00    +0.049 A 
ATOM     19  C   UNL     1       2.382   1.412  -0.020  0.00  0.00    +0.166 A 
ATOM     20  C   UNL     1       1.734   1.137  -1.218  0.00  0.00    +0.200 A 
ATOM     21  C   UNL     1       0.546   0.426  -1.212  0.00  0.00    +0.162 A 
ATOM     22  C   UNL     1       0.005  -0.009  -0.013  0.00  0.00    +0.041 A 
ATOM     23  F   UNL     1      -0.086   0.156  -2.375  0.00  0.00    -0.202 F 
ATOM     24  F   UNL     1       2.262   1.562  -2.386  0.00  0.00    -0.199 F 
ENDBRANCH  16  19
ENDBRANCH   1  16
TORSDOF 3
