REMARK  Name = ZINC04562682
REMARK  10 active torsions:
REMARK  status: ('A' for Active; 'I' for Inactive)
REMARK    1  A    between atoms: C_1  and  C_2
REMARK    2  A    between atoms: C_2  and  C_3
REMARK    3  A    between atoms: C_8  and  N_9
REMARK    4  A    between atoms: C_10  and  C_12
REMARK    5  A    between atoms: C_12  and  N_13
REMARK    6  A    between atoms: N_13  and  C_14
REMARK    7  A    between atoms: C_15  and  C_17
REMARK    8  A    between atoms: C_17  and  O_18
REMARK    9  A    between atoms: O_18  and  C_19
REMARK   10  A    between atoms: C_24  and  C_25
REMARK                            x       y       z     vdW  Elec       q    Type
REMARK                         _______ _______ _______ _____ _____    ______ ____
ROOT
ATOM      1  N   UNL     1       2.407   1.044  -0.032  0.00  0.00    -0.293 N 
ATOM      2  C   UNL     1       2.990   0.576   1.228  0.00  0.00    +0.132 C 
ATOM      3  C   UNL     1       2.907   0.613  -1.207  0.00  0.00    +0.253 C 
ATOM      4  O   UNL     1       2.424   1.001  -2.250  0.00  0.00    -0.272 OA
ENDROOT
BRANCH   1   5
ATOM      5  C   UNL     1       1.280   1.980  -0.015  0.00  0.00    +0.203 C 
BRANCH   5   7
ATOM      6  N   UNL     1      -1.191   1.867   0.018  0.00  0.00    -0.284 N 
ATOM      7  C   UNL     1      -0.014   1.209   0.005  0.00  0.00    +0.235 C 
ATOM      8  O   UNL     1       0.003  -0.004   0.005  0.00  0.00    -0.274 OA
ATOM      9  H   UNL     1      -1.205   2.833   0.099  0.00  0.00    +0.155 HD
BRANCH   6  15
ATOM     10  C   UNL     1      -3.566   1.696   0.418  0.00  0.00    -0.026 A 
ATOM     11  C   UNL     1      -4.750   0.992   0.314  0.00  0.00    +0.005 A 
ATOM     12  C   UNL     1      -4.765  -0.251  -0.292  0.00  0.00    +0.000 A 
ATOM     13  C   UNL     1      -3.596  -0.793  -0.796  0.00  0.00    +0.002 A 
ATOM     14  C   UNL     1      -2.411  -0.091  -0.699  0.00  0.00    +0.023 A 
ATOM     15  C   UNL     1      -2.391   1.155  -0.086  0.00  0.00    +0.037 A 
BRANCH  10  17
ATOM     16  C   UNL     1      -3.680   4.140   0.011  0.00  0.00    +0.009 C 
ATOM     17  C   UNL     1      -3.551   3.051   1.078  0.00  0.00    +0.033 C 
ENDBRANCH  10  17
ENDBRANCH   6  15
ENDBRANCH   5   7
ENDBRANCH   1   5
BRANCH   3  18
ATOM     18  C   UNL     1       4.065  -0.350  -1.225  0.00  0.00    +0.324 C 
BRANCH  18  19
ATOM     19  O   UNL     1       4.411  -0.655  -2.578  0.00  0.00    -0.482 OA
BRANCH  19  20
ATOM     20  C   UNL     1       5.442  -1.515  -2.772  0.00  0.00    +0.133 A 
ATOM     21  C   UNL     1       6.115  -2.052  -1.684  0.00  0.00    +0.046 A 
ATOM     22  C   UNL     1       7.160  -2.931  -1.883  0.00  0.00    +0.004 A 
ATOM     23  C   UNL     1       7.553  -3.275  -3.166  0.00  0.00    +0.001 A 
ATOM     24  C   UNL     1       6.900  -2.746  -4.258  0.00  0.00    +0.017 A 
ATOM     25  C   UNL     1       5.837  -1.859  -4.071  0.00  0.00    +0.078 A 
BRANCH  25  26
ATOM     26  C   UNL     1       5.133  -1.289  -5.236  0.00  0.00    +0.245 C 
ATOM     27  O   UNL     1       4.208  -0.517  -5.070  0.00  0.00    -0.270 OA
ATOM     28  N   UNL     1       5.515  -1.623  -6.484  0.00  0.00    -0.325 N 
ATOM     29  H   UNL     1       6.253  -2.239  -6.617  0.00  0.00    +0.145 HD
ATOM     30  H   UNL     1       5.053  -1.248  -7.250  0.00  0.00    +0.145 HD
ENDBRANCH  25  26
ENDBRANCH  19  20
ENDBRANCH  18  19
ENDBRANCH   3  18
TORSDOF 8
