REMARK  Name = ZINC59766951
REMARK  4 active torsions:
REMARK  status: ('A' for Active; 'I' for Inactive)
REMARK    1  A    between atoms: C_1  and  C_2
REMARK    2  A    between atoms: C_12  and  C_14
REMARK    3  A    between atoms: N_16  and  C_17
REMARK    4  A    between atoms: C_20  and  N_24
REMARK                            x       y       z     vdW  Elec       q    Type
REMARK                         _______ _______ _______ _____ _____    ______ ____
ROOT
ATOM      1  C   UNL     1       2.836   0.592   0.458  0.00  0.00    +0.304 C 
ATOM      2  O   UNL     1       2.268   1.136  -0.466  0.00  0.00    -0.265 OA
ATOM      3  N   UNL     1       4.137   0.851   0.697  0.00  0.00    -0.276 N 
ATOM      4  H   UNL     1       4.568   0.484   1.485  0.00  0.00    +0.155 HD
ENDROOT
BRANCH   1  15
ATOM      5  C   UNL     1       0.002   1.675   0.392  0.00  0.00    +0.029 C 
ATOM      6  C   UNL     1      -0.054   0.161   0.173  0.00  0.00    +0.083 C 
ATOM      7  C   UNL     1      -1.484  -0.357   0.392  0.00  0.00    +0.059 C 
ATOM      8  C   UNL     1      -1.363  -1.332   1.541  0.00  0.00    -0.024 A 
ATOM      9  C   UNL     1      -2.315  -2.105   2.179  0.00  0.00    +0.005 A 
ATOM     10  C   UNL     1      -1.951  -2.933   3.224  0.00  0.00    +0.000 A 
ATOM     11  C   UNL     1      -0.630  -2.987   3.631  0.00  0.00    +0.002 A 
ATOM     12  C   UNL     1       0.323  -2.219   2.998  0.00  0.00    +0.024 A 
ATOM     13  C   UNL     1      -0.037  -1.379   1.942  0.00  0.00    +0.040 A 
ATOM     14  N   UNL     1       0.764  -0.528   1.174  0.00  0.00    -0.260 N 
ATOM     15  C   UNL     1       2.093  -0.364   1.331  0.00  0.00    +0.306 C 
ATOM     16  O   UNL     1       2.686  -0.995   2.183  0.00  0.00    -0.265 OA
ENDBRANCH   1  15
BRANCH   3  17
ATOM     17  C   UNL     1       4.865   1.647  -0.192  0.00  0.00    +0.052 A 
ATOM     18  C   UNL     1       4.412   1.833  -1.492  0.00  0.00    +0.027 A 
ATOM     19  C   UNL     1       5.133   2.620  -2.367  0.00  0.00    +0.034 A 
ATOM     20  C   UNL     1       6.306   3.223  -1.952  0.00  0.00    +0.128 A 
ATOM     21  C   UNL     1       6.762   3.040  -0.659  0.00  0.00    +0.054 A 
ATOM     22  C   UNL     1       6.042   2.258   0.224  0.00  0.00    +0.064 A 
ATOM     23 CL   UNL     1       6.610   2.034   1.849  0.00  0.00    -0.082 Cl
BRANCH  20  24
ATOM     24  N   UNL     1       7.077   4.067  -2.893  0.00  0.00    +0.056 N 
ATOM     25  O   UNL     1       6.680   4.228  -4.024  0.00  0.00    -0.126 OA
ATOM     26  O   UNL     1       8.103   4.594  -2.532  0.00  0.00    -0.126 OA
ENDBRANCH  20  24
ENDBRANCH   3  17
TORSDOF 3
