REMARK  Name = ZINC16698510
REMARK  7 active torsions:
REMARK  status: ('A' for Active; 'I' for Inactive)
REMARK    1  A    between atoms: C_1  and  C_2
REMARK    2  A    between atoms: C_3  and  C_20
REMARK    3  A    between atoms: C_5  and  C_19
REMARK    4  A    between atoms: C_6  and  C_7
REMARK    5  A    between atoms: C_7  and  O_9
REMARK    6  A    between atoms: O_9  and  C_10
REMARK    7  A    between atoms: C_10  and  C_11
REMARK                            x       y       z     vdW  Elec       q    Type
REMARK                         _______ _______ _______ _____ _____    ______ ____
ROOT
ATOM      1  C   UNL     1       1.188  -5.172   2.541  0.00  0.00    +0.308 C 
ENDROOT
BRANCH   1   2
ATOM      2  C   UNL     1       2.591  -5.636   2.840  0.00  0.00    +0.173 A 
ATOM      3  N   UNL     1       3.200  -6.467   2.013  0.00  0.00    -0.196 NA
ATOM      4  C   UNL     1       4.441  -6.876   2.272  0.00  0.00    +0.217 A 
ATOM      5  N   UNL     1       5.062  -6.455   3.368  0.00  0.00    -0.181 NA
ATOM      6  C   UNL     1       4.444  -5.623   4.199  0.00  0.00    +0.217 A 
ATOM      7  N   UNL     1       3.205  -5.215   3.931  0.00  0.00    -0.196 NA
ATOM      8  N   UNL     1       5.084  -5.183   5.340  0.00  0.00    -0.327 N 
ATOM      9  N   UNL     1       5.078  -7.740   1.405  0.00  0.00    -0.327 N 
ATOM     10  H   UNL     1       4.632  -4.576   5.947  0.00  0.00    +0.145 HD
ATOM     11  H   UNL     1       5.987  -5.481   5.535  0.00  0.00    +0.145 HD
ATOM     12  H   UNL     1       5.981  -8.040   1.596  0.00  0.00    +0.145 HD
ATOM     13  H   UNL     1       4.624  -8.047   0.605  0.00  0.00    +0.145 HD
ENDBRANCH   1   2
BRANCH   1  14
ATOM     14  O   UNL     1       1.240  -3.955   1.750  0.00  0.00    -0.453 OA
BRANCH  14  15
ATOM     15  C   UNL     1       0.062  -3.406   1.395  0.00  0.00    +0.343 C 
ATOM     16  O   UNL     1      -0.981  -3.929   1.737  0.00  0.00    -0.245 OA
BRANCH  15  22
ATOM     17  C   UNL     1       0.032  -0.341   2.530  0.00  0.00    +0.048 C 
ATOM     18  C   UNL     1       0.023  -0.787   1.091  0.00  0.00    +0.004 A 
ATOM     19  C   UNL     1       0.002  -0.004   0.002  0.00  0.00    +0.106 A 
ATOM     20  O   UNL     1      -0.004  -0.776  -1.096  0.00  0.00    -0.464 OA
ATOM     21  C   UNL     1       0.022  -2.071  -0.768  0.00  0.00    +0.116 A 
ATOM     22  C   UNL     1       0.037  -2.171   0.593  0.00  0.00    +0.103 A 
ATOM     23  C   UNL     1       0.027  -3.226  -1.737  0.00  0.00    +0.087 C 
ATOM     24  C   UNL     1      -0.018   1.503   0.010  0.00  0.00    +0.086 C 
ENDBRANCH  15  22
ENDBRANCH  14  15
ENDBRANCH   1  14
TORSDOF 4
