REMARK  Name = ZINC32070523
REMARK  5 active torsions:
REMARK  status: ('A' for Active; 'I' for Inactive)
REMARK    1  A    between atoms: C_1  and  C_2
REMARK    2  A    between atoms: C_10  and  O_13
REMARK    3  A    between atoms: O_13  and  C_14
REMARK    4  A    between atoms: C_19  and  C_21
REMARK    5  A    between atoms: C_26  and  C_27
REMARK                            x       y       z     vdW  Elec       q    Type
REMARK                         _______ _______ _______ _____ _____    ______ ____
ROOT
ATOM      1  C   UNL     1       0.440   0.913  -0.204  0.00  0.00    +0.068 C 
ATOM      2  C   UNL     1       0.407  -0.572  -0.456  0.00  0.00    +0.066 A 
ATOM      3  C   UNL     1       0.140  -1.185  -1.671  0.00  0.00    +0.023 A 
ATOM      4  C   UNL     1       0.209  -2.540  -1.486  0.00  0.00    +0.134 A 
ATOM      5  N   UNL     1       0.503  -2.760  -0.188  0.00  0.00    -0.198 N 
ATOM      6  N   UNL     1       0.633  -1.508   0.437  0.00  0.00    -0.168 NA
ATOM      7  C   UNL     1       0.656  -4.008   0.425  0.00  0.00    +0.178 A 
ATOM      8  C   UNL     1       1.433  -4.131   1.576  0.00  0.00    +0.055 A 
ATOM      9  C   UNL     1       1.556  -5.387   2.146  0.00  0.00    +0.072 A 
ATOM     10  C   UNL     1       0.894  -6.450   1.533  0.00  0.00    +0.234 A 
ATOM     11  N   UNL     1       0.178  -6.239   0.442  0.00  0.00    -0.110 NA
ATOM     12  N   UNL     1       0.060  -5.074  -0.084  0.00  0.00    -0.126 NA
ATOM     13  N   UNL     1       0.006  -3.438  -2.533  0.00  0.00    -0.270 N 
ATOM     14  C   UNL     1      -0.063  -2.946  -3.788  0.00  0.00    +0.219 C 
ATOM     15  O   UNL     1      -0.425  -3.677  -4.686  0.00  0.00    -0.275 OA
ATOM     16  C   UNL     1       0.293  -1.522  -4.108  0.00  0.00    +0.109 C 
ATOM     17  C   UNL     1      -0.186  -0.569  -3.008  0.00  0.00    +0.063 C 
ATOM     18  H   UNL     1      -0.082  -4.389  -2.364  0.00  0.00    +0.156 HD
ENDROOT
BRANCH  17  19
ATOM     19  C   UNL     1      -1.675  -0.366  -3.125  0.00  0.00    -0.028 A 
ATOM     20  C   UNL     1      -2.537  -1.421  -2.885  0.00  0.00    +0.005 A 
ATOM     21  C   UNL     1      -3.902  -1.235  -2.992  0.00  0.00    +0.000 A 
ATOM     22  C   UNL     1      -4.406   0.004  -3.339  0.00  0.00    +0.001 A 
ATOM     23  C   UNL     1      -3.545   1.058  -3.579  0.00  0.00    +0.012 A 
ATOM     24  C   UNL     1      -2.179   0.874  -3.467  0.00  0.00    +0.059 A 
BRANCH  24  25
ATOM     25  C   UNL     1      -1.240   2.025  -3.724  0.00  0.00    +0.418 C 
ATOM     26  F   UNL     1      -1.970   3.131  -4.173  0.00  0.00    -0.166 F 
ATOM     27  F   UNL     1      -0.574   2.355  -2.539  0.00  0.00    -0.166 F 
ATOM     28  F   UNL     1      -0.305   1.656  -4.697  0.00  0.00    -0.166 F 
ENDBRANCH  24  25
ENDBRANCH  17  19
BRANCH  10  29
ATOM     29  O   UNL     1       0.985  -7.700   2.056  0.00  0.00    -0.479 OA
ATOM     30  C   UNL     1       0.281  -8.740   1.375  0.00  0.00    +0.279 C 
ENDBRANCH  10  29
TORSDOF 3
