REMARK  Name = ZINC09312006
REMARK  9 active torsions:
REMARK  status: ('A' for Active; 'I' for Inactive)
REMARK    1  A    between atoms: C_1  and  N_57
REMARK    2  A    between atoms: C_2  and  N_57
REMARK    3  A    between atoms: C_3  and  C_4
REMARK    4  A    between atoms: C_3  and  N_57
REMARK    5  A    between atoms: C_4  and  C_5
REMARK    6  A    between atoms: C_5  and  N_6
REMARK    7  A    between atoms: C_7  and  C_26
REMARK    8  A    between atoms: C_10  and  C_11
REMARK    9  A    between atoms: C_10  and  O_21
REMARK                            x       y       z     vdW  Elec       q    Type
REMARK                         _______ _______ _______ _____ _____    ______ ____
ROOT
ATOM      1  N   UNL     1       3.969  -4.371   0.044  0.00  0.00    -0.284 N 
ATOM      2  C   UNL     1       4.728  -3.121   0.141  0.00  0.00    +0.147 C 
ATOM      3  C   UNL     1       3.718  -1.998   0.116  0.00  0.00    +0.071 C 
ATOM      4  C   UNL     1       3.981  -0.643   0.187  0.00  0.00    +0.133 C 
ATOM      5  C   UNL     1       2.460  -2.607  -0.000  0.00  0.00    +0.249 C 
ATOM      6  O   UNL     1       1.389  -2.029  -0.057  0.00  0.00    -0.282 OA
ATOM      7  C   UNL     1       2.659  -4.080  -0.042  0.00  0.00    +0.288 C 
ATOM      8  O   UNL     1       1.770  -4.901  -0.139  0.00  0.00    -0.266 OA
ENDROOT
BRANCH   4   9
ATOM      9  C   UNL     1       2.870   0.319   0.258  0.00  0.00    +0.021 A 
ATOM     10  C   UNL     1       1.836   0.132   1.183  0.00  0.00    +0.015 A 
ATOM     11  C   UNL     1       0.798   1.034   1.244  0.00  0.00    +0.050 A 
ATOM     12  C   UNL     1       0.770   2.131   0.391  0.00  0.00    +0.162 A 
ATOM     13  C   UNL     1       1.798   2.325  -0.531  0.00  0.00    +0.163 A 
ATOM     14  C   UNL     1       2.843   1.424  -0.601  0.00  0.00    +0.061 A 
ATOM     15  O   UNL     1       1.789   3.400  -1.367  0.00  0.00    -0.485 OA
ATOM     16  C   UNL     1       0.540   4.081  -1.526  0.00  0.00    +0.270 C 
ATOM     17  C   UNL     1      -0.075   4.289  -0.136  0.00  0.00    +0.270 C 
ATOM     18  O   UNL     1      -0.270   3.003   0.464  0.00  0.00    -0.485 OA
ENDBRANCH   4   9
BRANCH   2  19
ATOM     19  C   UNL     1       5.671  -2.994  -1.028  0.00  0.00    +0.013 A 
ATOM     20  C   UNL     1       5.325  -2.210  -2.112  0.00  0.00    +0.008 A 
ATOM     21  C   UNL     1       6.191  -2.089  -3.182  0.00  0.00    +0.001 A 
ATOM     22  C   UNL     1       7.400  -2.760  -3.174  0.00  0.00    +0.003 A 
ATOM     23  C   UNL     1       7.746  -3.548  -2.093  0.00  0.00    +0.039 A 
ATOM     24  C   UNL     1       6.881  -3.666  -1.018  0.00  0.00    +0.129 A 
ATOM     25  F   UNL     1       7.217  -4.437   0.039  0.00  0.00    -0.205 F 
ENDBRANCH   2  19
BRANCH   4  26
ATOM     26  O   UNL     1       5.257  -0.202   0.192  0.00  0.00    -0.506 OA
ATOM     27  H   UNL     1       5.264   0.796   0.247  0.00  0.00    +0.292 HD
ENDBRANCH   4  26
BRANCH   1  28
ATOM     28  C   UNL     1       4.544  -5.718   0.035  0.00  0.00    +0.107 C 
BRANCH  28  29
ATOM     29  C   UNL     1       4.720  -6.187  -1.411  0.00  0.00    +0.000 C 
BRANCH  29  30
ATOM     30  C   UNL     1       5.203  -7.639  -1.421  0.00  0.00    -0.078 C 
BRANCH  30  33
ATOM     31  C   UNL     1       6.458  -7.355  -3.472  0.00  0.00    -0.097 C 
ATOM     32  C   UNL     1       5.604  -9.539  -2.867  0.00  0.00    -0.097 C 
ATOM     33  N   UNL     1       5.348  -8.084  -2.823  0.00  0.00    +0.376 N 
ATOM     34  H   UNL     1       4.477  -7.883  -3.328  0.00  0.00    -0.083 HD
ENDBRANCH  30  33
ENDBRANCH  29  30
ENDBRANCH  28  29
ENDBRANCH   1  28
TORSDOF 7
