REMARK  Name = ZINC09376293
REMARK  12 active torsions:
REMARK  status: ('A' for Active; 'I' for Inactive)
REMARK    1  A    between atoms: C_1  and  C_2
REMARK    2  A    between atoms: C_2  and  C_3
REMARK    3  A    between atoms: C_3  and  C_4
REMARK    4  A    between atoms: C_4  and  N_5
REMARK    5  A    between atoms: C_6  and  N_37
REMARK    6  A    between atoms: C_7  and  N_14
REMARK    7  A    between atoms: N_14  and  C_15
REMARK    8  A    between atoms: C_15  and  C_16
REMARK    9  A    between atoms: C_22  and  C_24
REMARK   10  A    between atoms: C_24  and  N_25
REMARK   11  A    between atoms: C_27  and  C_30
REMARK   12  A    between atoms: C_35  and  C_36
REMARK                            x       y       z     vdW  Elec       q    Type
REMARK                         _______ _______ _______ _____ _____    ______ ____
ROOT
ATOM      1  N   UNL     1       3.885  -0.811  -1.349  0.00  0.00    -0.258 N 
ATOM      2  C   UNL     1       3.592  -2.050  -1.798  0.00  0.00    +0.244 C 
ATOM      3  O   UNL     1       3.986  -2.409  -2.888  0.00  0.00    -0.273 OA
ENDROOT
BRANCH   1   6
ATOM      4  N   UNL     1       6.780   1.202  -2.381  0.00  0.00    -0.280 N 
ATOM      5  C   UNL     1       5.977   0.381  -1.624  0.00  0.00    +0.127 A 
ATOM      6  C   UNL     1       4.731   0.030  -2.102  0.00  0.00    +0.140 A 
ATOM      7  C   UNL     1       4.321   0.522  -3.355  0.00  0.00    +0.277 A 
ATOM      8  O   UNL     1       3.226   0.225  -3.803  0.00  0.00    -0.266 OA
ATOM      9  N   UNL     1       5.144   1.328  -4.054  0.00  0.00    -0.273 N 
ATOM     10  H   UNL     1       4.850   1.685  -4.941  0.00  0.00    +0.173 HD
ATOM     11  C   UNL     1       6.355   1.659  -3.573  0.00  0.00    +0.331 A 
ATOM     12  O   UNL     1       7.080   2.384  -4.227  0.00  0.00    -0.246 OA
BRANCH   5  13
ATOM     13  N   UNL     1       6.411  -0.086  -0.406  0.00  0.00    -0.343 N 
ATOM     14  H   UNL     1       5.878  -0.731   0.084  0.00  0.00    +0.144 HD
ATOM     15  H   UNL     1       7.251   0.231  -0.037  0.00  0.00    +0.144 HD
ENDBRANCH   5  13
BRANCH   4  16
ATOM     16  C   UNL     1       8.105   1.582  -1.886  0.00  0.00    +0.128 C 
BRANCH  16  17
ATOM     17  C   UNL     1       9.139   0.559  -2.361  0.00  0.00    +0.021 C 
BRANCH  17  19
ATOM     18  C   UNL     1      11.558  -0.067  -2.318  0.00  0.00    +0.004 C 
ATOM     19  C   UNL     1      10.524   0.956  -1.844  0.00  0.00    -0.002 C 
ENDBRANCH  17  19
ENDBRANCH  16  17
ENDBRANCH   4  16
ENDBRANCH   1   6
BRANCH   1  20
ATOM     20  C   UNL     1       3.323  -0.341  -0.080  0.00  0.00    +0.149 C 
BRANCH  20  21
ATOM     21  C   UNL     1       2.078   0.464  -0.350  0.00  0.00    -0.030 A 
ATOM     22  C   UNL     1       0.842  -0.155  -0.354  0.00  0.00    +0.005 A 
ATOM     23  C   UNL     1      -0.300   0.583  -0.602  0.00  0.00    +0.000 A 
ATOM     24  C   UNL     1      -0.207   1.940  -0.845  0.00  0.00    +0.000 A 
ATOM     25  C   UNL     1       1.029   2.560  -0.840  0.00  0.00    +0.000 A 
ATOM     26  C   UNL     1       2.171   1.822  -0.593  0.00  0.00    +0.005 A 
ENDBRANCH  20  21
ENDBRANCH   1  20
BRANCH   2  27
ATOM     27  C   UNL     1       2.777  -2.987  -0.945  0.00  0.00    +0.264 C 
BRANCH  27  28
ATOM     28  N   UNL     1       2.481  -4.205  -1.704  0.00  0.00    -0.154 N 
ATOM     29  N   UNL     1       1.444  -4.387  -2.447  0.00  0.00    -0.130 NA
ATOM     30  C   UNL     1       1.526  -5.596  -2.965  0.00  0.00    +0.205 A 
ATOM     31  N   UNL     1       2.657  -6.140  -2.494  0.00  0.00    -0.108 NA
ATOM     32  N   UNL     1       3.213  -5.264  -1.728  0.00  0.00    -0.045 NA
BRANCH  30  33
ATOM     33  C   UNL     1       0.552  -6.234  -3.888  0.00  0.00    +0.026 A 
ATOM     34  C   UNL     1      -0.588  -5.540  -4.289  0.00  0.00    +0.012 A 
ATOM     35  C   UNL     1      -1.486  -6.136  -5.151  0.00  0.00    +0.001 A 
ATOM     36  C   UNL     1      -1.262  -7.422  -5.607  0.00  0.00    +0.000 A 
ATOM     37  C   UNL     1      -0.135  -8.117  -5.207  0.00  0.00    +0.004 A 
ATOM     38  C   UNL     1       0.773  -7.529  -4.350  0.00  0.00    -0.040 A 
ATOM     39  C   UNL     1       2.001  -8.286  -3.916  0.00  0.00    +0.044 C 
ENDBRANCH  30  33
ENDBRANCH  27  28
ENDBRANCH   2  27
TORSDOF 10
