REMARK  Name = ZINC12945956
REMARK  14 active torsions:
REMARK  status: ('A' for Active; 'I' for Inactive)
REMARK    1  A    between atoms: C_1  and  C_2
REMARK    2  A    between atoms: C_2  and  C_3
REMARK    3  A    between atoms: C_3  and  C_4
REMARK    4  A    between atoms: C_4  and  N_5
REMARK    5  A    between atoms: C_6  and  N_36
REMARK    6  A    between atoms: C_7  and  N_14
REMARK    7  A    between atoms: N_14  and  C_15
REMARK    8  A    between atoms: C_15  and  C_16
REMARK    9  A    between atoms: C_16  and  O_17
REMARK   10  A    between atoms: O_17  and  C_18
REMARK   11  A    between atoms: C_19  and  C_21
REMARK   12  A    between atoms: N_26  and  C_28
REMARK   13  A    between atoms: C_32  and  S_34
REMARK   14  A    between atoms: S_34  and  C_35
REMARK                            x       y       z     vdW  Elec       q    Type
REMARK                         _______ _______ _______ _____ _____    ______ ____
ROOT
ATOM      1  N   UNL     1       5.429  -2.562   3.861  0.00  0.00    -0.262 N 
ATOM      2  C   UNL     1       5.818  -3.658   4.546  0.00  0.00    +0.225 C 
ATOM      3  O   UNL     1       6.683  -4.379   4.096  0.00  0.00    -0.275 OA
ENDROOT
BRANCH   1   6
ATOM      4  N   UNL     1       2.080  -1.088   4.193  0.00  0.00    -0.280 N 
ATOM      5  C   UNL     1       3.115  -1.857   3.714  0.00  0.00    +0.127 A 
ATOM      6  C   UNL     1       4.348  -1.785   4.328  0.00  0.00    +0.140 A 
ATOM      7  C   UNL     1       4.509  -0.923   5.429  0.00  0.00    +0.277 A 
ATOM      8  O   UNL     1       5.589  -0.839   5.990  0.00  0.00    -0.266 OA
ATOM      9  N   UNL     1       3.463  -0.190   5.858  0.00  0.00    -0.273 N 
ATOM     10  H   UNL     1       3.573   0.404   6.617  0.00  0.00    +0.173 HD
ATOM     11  C   UNL     1       2.269  -0.270   5.244  0.00  0.00    +0.331 A 
ATOM     12  O   UNL     1       1.343   0.406   5.649  0.00  0.00    -0.246 OA
BRANCH   5  13
ATOM     13  N   UNL     1       2.922  -2.689   2.637  0.00  0.00    -0.343 N 
ATOM     14  H   UNL     1       2.043  -2.766   2.235  0.00  0.00    +0.144 HD
ATOM     15  H   UNL     1       3.666  -3.199   2.279  0.00  0.00    +0.144 HD
ENDBRANCH   5  13
BRANCH   4  16
ATOM     16  C   UNL     1       0.765  -1.155   3.550  0.00  0.00    +0.128 C 
BRANCH  16  17
ATOM     17  C   UNL     1       0.691  -0.115   2.430  0.00  0.00    +0.021 C 
BRANCH  17  19
ATOM     18  C   UNL     1      -0.756   0.854   0.639  0.00  0.00    +0.004 C 
ATOM     19  C   UNL     1      -0.682  -0.185   1.759  0.00  0.00    -0.002 C 
ENDBRANCH  17  19
ENDBRANCH  16  17
ENDBRANCH   4  16
ENDBRANCH   1   6
BRANCH   2  20
ATOM     20  C   UNL     1       5.177  -3.986   5.870  0.00  0.00    +0.102 C 
ATOM     21  C   UNL     1       4.069  -5.051   5.699  0.00  0.00    +0.110 C 
ATOM     22  C   UNL     1       4.774  -6.364   5.957  0.00  0.00    +0.221 C 
ATOM     23  O   UNL     1       4.341  -7.456   5.655  0.00  0.00    -0.275 OA
ATOM     24  N   UNL     1       5.950  -6.145   6.569  0.00  0.00    -0.271 N 
ATOM     25  C   UNL     1       6.173  -4.712   6.801  0.00  0.00    +0.127 C 
BRANCH  24  26
ATOM     26  C   UNL     1       6.848  -7.153   6.938  0.00  0.00    +0.037 A 
ATOM     27  C   UNL     1       8.044  -6.824   7.564  0.00  0.00    +0.023 A 
ATOM     28  C   UNL     1       8.932  -7.818   7.928  0.00  0.00    +0.003 A 
ATOM     29  C   UNL     1       8.634  -9.142   7.672  0.00  0.00    +0.015 A 
ATOM     30  C   UNL     1       7.440  -9.479   7.046  0.00  0.00    +0.009 A 
ATOM     31  C   UNL     1       6.543  -8.482   6.684  0.00  0.00    +0.038 A 
BRANCH  30  32
ATOM     32  S   UNL     1       7.061 -11.168   6.718  0.00  0.00    -0.129 S 
ATOM     33  C   UNL     1       8.495 -12.072   7.363  0.00  0.00    +0.090 C 
ENDBRANCH  30  32
ENDBRANCH  24  26
ENDBRANCH   2  20
BRANCH   1  34
ATOM     34  C   UNL     1       6.130  -2.179   2.633  0.00  0.00    +0.142 C 
BRANCH  34  35
ATOM     35  C   UNL     1       7.199  -1.135   2.960  0.00  0.00    +0.178 C 
BRANCH  35  36
ATOM     36  O   UNL     1       8.211  -1.728   3.776  0.00  0.00    -0.381 OA
ATOM     37  C   UNL     1       9.207  -0.808   4.227  0.00  0.00    +0.194 C 
ENDBRANCH  35  36
ENDBRANCH  34  35
ENDBRANCH   1  34
TORSDOF 11
