REMARK  Name = ZINC39303717
REMARK  17 active torsions:
REMARK  status: ('A' for Active; 'I' for Inactive)
REMARK    1  A    between atoms: C_1  and  C_2
REMARK    2  A    between atoms: C_2  and  C_3
REMARK    3  A    between atoms: C_2  and  C_4
REMARK    4  A    between atoms: C_7  and  O_38
REMARK    5  A    between atoms: C_8  and  C_10
REMARK    6  A    between atoms: C_10  and  N_11
REMARK    7  A    between atoms: C_16  and  C_18
REMARK    8  A    between atoms: N_20  and  C_21
REMARK    9  A    between atoms: C_21  and  C_22
REMARK   10  A    between atoms: C_22  and  C_23
REMARK   11  A    between atoms: C_22  and  C_24
REMARK   12  A    between atoms: C_22  and  N_25
REMARK   13  A    between atoms: C_26  and  C_28
REMARK   14  A    between atoms: N_34  and  C_35
REMARK   15  A    between atoms: C_35  and  C_36
REMARK   16  A    between atoms: C_35  and  C_37
REMARK   17  A    between atoms: O_38  and  C_39
REMARK                            x       y       z     vdW  Elec       q    Type
REMARK                         _______ _______ _______ _____ _____    ______ ____
ROOT
ATOM      1  C   UNL     1      -2.831  -4.639  -3.961  0.00  0.00    +0.200 C 
ATOM      2  O   UNL     1      -1.934  -3.854  -3.740  0.00  0.00    -0.278 OA
ATOM      3  N   UNL     1      -2.921  -5.238  -5.165  0.00  0.00    -0.315 N 
ATOM      4  H   UNL     1      -3.638  -5.866  -5.343  0.00  0.00    +0.149 HD
ENDROOT
BRANCH   1  10
ATOM      5  N   UNL     1      -3.988  -3.784  -2.004  0.00  0.00    +0.390 N 
ATOM      6  C   UNL     1      -5.029  -4.044  -1.003  0.00  0.00    -0.077 C 
ATOM      7  C   UNL     1      -4.610  -5.221  -0.119  0.00  0.00    -0.019 C 
ATOM      8  C   UNL     1      -4.416  -6.464  -0.992  0.00  0.00    -0.003 C 
ATOM      9  C   UNL     1      -3.381  -6.157  -2.079  0.00  0.00    -0.006 C 
ATOM     10  C   UNL     1      -3.846  -4.945  -2.890  0.00  0.00    +0.020 C 
ATOM     11  H   UNL     1      -3.111  -3.610  -1.537  0.00  0.00    -0.080 HD
BRANCH   5  12
ATOM     12  C   UNL     1      -4.359  -2.605  -2.800  0.00  0.00    -0.038 C 
BRANCH  12  17
ATOM     13  C   UNL     1      -3.244   0.540  -1.034  0.00  0.00    -0.044 A 
ATOM     14  C   UNL     1      -4.368   0.859  -0.295  0.00  0.00    +0.007 A 
ATOM     15  C   UNL     1      -5.491   0.058  -0.363  0.00  0.00    +0.046 A 
ATOM     16  C   UNL     1      -5.491  -1.067  -1.175  0.00  0.00    +0.121 A 
ATOM     17  C   UNL     1      -4.362  -1.384  -1.917  0.00  0.00    -0.022 A 
ATOM     18  C   UNL     1      -3.243  -0.577  -1.849  0.00  0.00    +0.009 A 
BRANCH  13  20
ATOM     19  C   UNL     1      -2.377   2.833  -1.409  0.00  0.00    +0.012 C 
ATOM     20  C   UNL     1      -2.019   1.416  -0.958  0.00  0.00    +0.013 C 
ATOM     21  C   UNL     1      -1.509   1.454   0.484  0.00  0.00    +0.012 C 
ENDBRANCH  13  20
BRANCH  16  22
ATOM     22  O   UNL     1      -6.594  -1.857  -1.244  0.00  0.00    -0.495 OA
ATOM     23  C   UNL     1      -7.720  -1.470  -0.453  0.00  0.00    +0.277 C 
ENDBRANCH  16  22
ENDBRANCH  12  17
ENDBRANCH   5  12
ENDBRANCH   1  10
BRANCH   3  24
ATOM     24  C   UNL     1      -1.934  -4.940  -6.206  0.00  0.00    +0.129 C 
BRANCH  24  25
ATOM     25  C   UNL     1      -2.262  -5.746  -7.465  0.00  0.00    +0.045 C 
ATOM     26  C   UNL     1      -1.231  -5.435  -8.552  0.00  0.00    +0.033 C 
ATOM     27  C   UNL     1      -2.224  -7.240  -7.138  0.00  0.00    +0.033 C 
BRANCH  25  28
ATOM     28  N   UNL     1      -3.599  -5.385  -7.942  0.00  0.00    -0.305 N 
ATOM     29  C   UNL     1      -4.103  -5.972  -9.045  0.00  0.00    +0.246 C 
ATOM     30  O   UNL     1      -3.447  -6.802  -9.645  0.00  0.00    -0.270 OA
ATOM     31  H   UNL     1      -4.122  -4.722  -7.463  0.00  0.00    +0.150 HD
BRANCH  29  32
ATOM     32  C   UNL     1      -5.449  -5.608  -9.525  0.00  0.00    +0.055 A 
ATOM     33  C   UNL     1      -5.986  -6.218 -10.670  0.00  0.00    +0.018 A 
ATOM     34  C   UNL     1      -7.239  -5.849 -11.079  0.00  0.00    +0.044 A 
ATOM     35  C   UNL     1      -7.940  -4.887 -10.354  0.00  0.00    +0.119 A 
ATOM     36  N   UNL     1      -7.410  -4.326  -9.276  0.00  0.00    -0.240 NA
ATOM     37  C   UNL     1      -6.210  -4.656  -8.845  0.00  0.00    +0.126 A 
ATOM     38  N   UNL     1      -9.208  -4.512 -10.765  0.00  0.00    -0.327 N 
ATOM     39  H   UNL     1      -9.702  -3.843 -10.266  0.00  0.00    +0.148 HD
BRANCH  38  40
ATOM     40  C   UNL     1      -9.803  -5.125 -11.955  0.00  0.00    +0.066 C 
ATOM     41  C   UNL     1     -10.479  -6.442 -11.567  0.00  0.00    +0.027 C 
ATOM     42  C   UNL     1     -10.844  -4.175 -12.552  0.00  0.00    +0.027 C 
ENDBRANCH  38  40
ENDBRANCH  29  32
ENDBRANCH  25  28
ENDBRANCH  24  25
ENDBRANCH   3  24
TORSDOF 10
