REMARK  Name = ZINC14647787
REMARK  11 active torsions:
REMARK  status: ('A' for Active; 'I' for Inactive)
REMARK    1  A    between atoms: C_1  and  C_2
REMARK    2  A    between atoms: C_2  and  C_3
REMARK    3  A    between atoms: C_3  and  O_4
REMARK    4  A    between atoms: O_4  and  C_5
REMARK    5  A    between atoms: C_8  and  C_12
REMARK    6  A    between atoms: N_14  and  C_15
REMARK    7  A    between atoms: C_15  and  N_17
REMARK    8  A    between atoms: N_17  and  N_18
REMARK    9  A    between atoms: C_19  and  C_21
REMARK   10  A    between atoms: C_21  and  O_22
REMARK   11  A    between atoms: O_22  and  C_23
REMARK                            x       y       z     vdW  Elec       q    Type
REMARK                         _______ _______ _______ _____ _____    ______ ____
ROOT
ATOM      1  C   UNL     1       2.320   1.243  -0.013  0.00  0.00    +0.153 C 
ATOM      2  S   UNL     1       2.343  -0.469  -0.023  0.00  0.00    -0.017 S 
ENDROOT
BRANCH   1   5
ATOM      3  C   UNL     1      -0.014   1.211   0.009  0.00  0.00    +0.250 C 
ATOM      4  O   UNL     1       0.002  -0.004   0.002  0.00  0.00    -0.270 OA
ATOM      5  N   UNL     1       1.143   1.901   0.001  0.00  0.00    -0.263 N 
ATOM      6  H   UNL     1       1.130   2.871   0.007  0.00  0.00    +0.157 HD
BRANCH   3  10
ATOM      7  C   UNL     1      -3.720   3.285   0.039  0.00  0.00    +0.134 A 
ATOM      8  C   UNL     1      -2.526   3.998   0.037  0.00  0.00    +0.047 A 
ATOM      9  C   UNL     1      -1.323   3.329   0.032  0.00  0.00    +0.017 A 
ATOM     10  C   UNL     1      -1.302   1.931   0.019  0.00  0.00    +0.038 A 
ATOM     11  C   UNL     1      -2.504   1.218   0.021  0.00  0.00    +0.032 A 
ATOM     12  C   UNL     1      -3.704   1.895   0.030  0.00  0.00    +0.060 A 
ATOM     13 BR   UNL     1      -5.331   0.931   0.033  0.00  0.00    -0.046 Br
BRANCH   7  14
ATOM     14  O   UNL     1      -4.904   3.949   0.049  0.00  0.00    -0.491 OA
BRANCH  14  15
ATOM     15  C   UNL     1      -4.848   5.376   0.057  0.00  0.00    +0.229 C 
BRANCH  15  17
ATOM     16  C   UNL     1      -6.209   7.471   0.076  0.00  0.00    +0.007 C 
ATOM     17  C   UNL     1      -6.269   5.943   0.067  0.00  0.00    +0.038 C 
ENDBRANCH  15  17
ENDBRANCH  14  15
ENDBRANCH   7  14
ENDBRANCH   3  10
ENDBRANCH   1   5
BRANCH   1  18
ATOM     18  N   UNL     1       3.478   1.933  -0.021  0.00  0.00    -0.245 N 
ATOM     19  H   UNL     1       4.324   1.459  -0.031  0.00  0.00    +0.172 HD
BRANCH  18  20
ATOM     20  N   UNL     1       3.459   3.334  -0.013  0.00  0.00    -0.232 N 
ATOM     21  C   UNL     1       4.617   4.023  -0.020  0.00  0.00    +0.267 C 
ATOM     22  O   UNL     1       5.675   3.431  -0.034  0.00  0.00    -0.271 OA
ATOM     23  H   UNL     1       2.612   3.807  -0.002  0.00  0.00    +0.173 HD
BRANCH  21  24
ATOM     24  C   UNL     1       4.596   5.530  -0.012  0.00  0.00    +0.326 C 
BRANCH  24  25
ATOM     25  O   UNL     1       5.937   6.025  -0.022  0.00  0.00    -0.483 OA
BRANCH  25  26
ATOM     26  C   UNL     1       6.096   7.375  -0.017  0.00  0.00    +0.121 A 
ATOM     27  C   UNL     1       4.986   8.205  -0.007  0.00  0.00    +0.047 A 
ATOM     28  C   UNL     1       5.150   9.577   0.003  0.00  0.00    +0.023 A 
ATOM     29  C   UNL     1       6.422  10.122  -0.006  0.00  0.00    +0.041 A 
ATOM     30  C   UNL     1       7.531   9.295  -0.020  0.00  0.00    +0.023 A 
ATOM     31  C   UNL     1       7.371   7.923  -0.026  0.00  0.00    +0.047 A 
ATOM     32 CL   UNL     1       6.626  11.846   0.001  0.00  0.00    -0.084 Cl
ENDBRANCH  25  26
ENDBRANCH  24  25
ENDBRANCH  21  24
ENDBRANCH  18  20
ENDBRANCH   1  18
TORSDOF 10
