REMARK  Name = ZINC20234549
REMARK  12 active torsions:
REMARK  status: ('A' for Active; 'I' for Inactive)
REMARK    1  A    between atoms: C_1  and  C_2
REMARK    2  A    between atoms: C_2  and  C_3
REMARK    3  A    between atoms: C_12  and  S_14
REMARK    4  A    between atoms: S_14  and  N_17
REMARK    5  A    between atoms: N_17  and  C_18
REMARK    6  A    between atoms: C_18  and  C_20
REMARK    7  A    between atoms: C_18  and  C_27
REMARK    8  A    between atoms: C_20  and  C_21
REMARK    9  A    between atoms: N_29  and  C_30
REMARK   10  A    between atoms: C_32  and  C_38
REMARK   11  A    between atoms: C_35  and  O_36
REMARK   12  A    between atoms: O_36  and  C_37
REMARK                            x       y       z     vdW  Elec       q    Type
REMARK                         _______ _______ _______ _____ _____    ______ ____
ROOT
ATOM      1  C   UNL     1      -3.689  -0.862   0.241  0.00  0.00    +0.167 C 
ENDROOT
BRANCH   1   2
ATOM      2  C   UNL     1      -2.330  -0.218   0.349  0.00  0.00    +0.236 C 
ATOM      3  O   UNL     1      -2.232   0.991   0.369  0.00  0.00    -0.274 OA
ATOM      4  N   UNL     1      -1.225  -0.985   0.425  0.00  0.00    -0.281 N 
ATOM      5  H   UNL     1      -1.304  -2.077   0.312  0.00  0.00    +0.155 HD
BRANCH   4   6
ATOM      6  C   UNL     1       0.025  -0.393   0.648  0.00  0.00    +0.076 A 
ATOM      7  C   UNL     1       0.104   0.884   1.184  0.00  0.00    +0.030 A 
ATOM      8  C   UNL     1       1.338   1.466   1.404  0.00  0.00    -0.048 A 
ATOM      9  C   UNL     1       2.496   0.778   1.091  0.00  0.00    +0.007 A 
ATOM     10  C   UNL     1       2.425  -0.495   0.557  0.00  0.00    +0.048 A 
ATOM     11  C   UNL     1       1.192  -1.085   0.333  0.00  0.00    +0.141 A 
ATOM     12  C   UNL     1       1.422   2.853   1.986  0.00  0.00    +0.044 C 
BRANCH  11  13
ATOM     13  O   UNL     1       1.121  -2.337  -0.193  0.00  0.00    -0.493 OA
ATOM     14  C   UNL     1       2.358  -2.987  -0.491  0.00  0.00    +0.277 C 
ENDBRANCH  11  13
ENDBRANCH   4   6
ENDBRANCH   1   2
BRANCH   1  15
ATOM     15  N   UNL     1      -4.718   0.178   0.173  0.00  0.00    -0.178 NA
ATOM     16  H   UNL     1      -5.223   0.513   1.092  0.00  0.00    +0.149 HD
BRANCH  15  17
ATOM     17  S   UNL     1      -5.299   0.675  -1.296  0.00  0.00    +0.059 S 
ATOM     18  O   UNL     1      -6.303   1.645  -1.029  0.00  0.00    -0.153 OA
ATOM     19  O   UNL     1      -4.167   0.954  -2.107  0.00  0.00    -0.153 OA
BRANCH  17  29
ATOM     20  C   UNL     1      -9.127  -4.458  -3.861  0.00  0.00    +0.220 C 
ATOM     21  O   UNL     1      -9.987  -3.825  -3.287  0.00  0.00    -0.275 OA
ATOM     22  N   UNL     1      -7.848  -4.034  -3.836  0.00  0.00    -0.271 N 
ATOM     23  C   UNL     1      -6.725  -4.712  -4.489  0.00  0.00    +0.118 C 
ATOM     24  C   UNL     1      -5.492  -3.850  -4.171  0.00  0.00    +0.056 C 
ATOM     25  C   UNL     1      -6.030  -2.711  -3.334  0.00  0.00    -0.023 A 
ATOM     26  C   UNL     1      -7.397  -2.884  -3.181  0.00  0.00    +0.040 A 
ATOM     27  C   UNL     1      -8.120  -1.948  -2.439  0.00  0.00    +0.026 A 
ATOM     28  C   UNL     1      -7.479  -0.868  -1.869  0.00  0.00    +0.030 A 
ATOM     29  C   UNL     1      -6.115  -0.706  -2.027  0.00  0.00    +0.106 A 
ATOM     30  C   UNL     1      -5.393  -1.626  -2.764  0.00  0.00    +0.034 A 
BRANCH  20  32
ATOM     31  C   UNL     1     -10.992  -5.972  -4.476  0.00  0.00    +0.013 C 
ATOM     32  C   UNL     1      -9.488  -5.719  -4.604  0.00  0.00    +0.093 C 
ENDBRANCH  20  32
ENDBRANCH  17  29
ENDBRANCH  15  17
ENDBRANCH   1  15
BRANCH   1  33
ATOM     33  C   UNL     1      -3.935  -1.744   1.466  0.00  0.00    +0.065 C 
BRANCH  33  34
ATOM     34  C   UNL     1      -5.233  -2.490   1.296  0.00  0.00    -0.045 A 
ATOM     35  C   UNL     1      -6.422  -1.908   1.695  0.00  0.00    +0.004 A 
ATOM     36  C   UNL     1      -7.613  -2.590   1.534  0.00  0.00    +0.000 A 
ATOM     37  C   UNL     1      -7.615  -3.858   0.984  0.00  0.00    +0.000 A 
ATOM     38  C   UNL     1      -6.425  -4.443   0.591  0.00  0.00    +0.000 A 
ATOM     39  C   UNL     1      -5.234  -3.758   0.746  0.00  0.00    +0.004 A 
ENDBRANCH  33  34
ENDBRANCH   1  33
TORSDOF 9
