REMARK  Name = ZINC00216837
REMARK  5 active torsions:
REMARK  status: ('A' for Active; 'I' for Inactive)
REMARK    1  A    between atoms: C_1  and  C_2
REMARK    2  A    between atoms: C_2  and  C_3
REMARK    3  A    between atoms: C_3  and  N_4
REMARK    4  A    between atoms: C_8  and  O_19
REMARK    5  A    between atoms: C_9  and  O_18
REMARK                            x       y       z     vdW  Elec       q    Type
REMARK                         _______ _______ _______ _____ _____    ______ ____
ROOT
ATOM      1  N   UNL     1      -1.413  -1.998   0.005  0.00  0.00    -0.249 N 
ATOM      2  C   UNL     1      -1.407  -2.768  -1.091  0.00  0.00    +0.307 C 
ATOM      3  O   UNL     1      -1.419  -2.314  -2.220  0.00  0.00    -0.252 OA
ATOM      4  N   UNL     1      -1.388  -4.082  -0.833  0.00  0.00    -0.261 N 
ATOM      5  C   UNL     1      -1.380  -4.289   0.623  0.00  0.00    +0.250 C 
ATOM      6  C   UNL     1      -1.391  -2.856   1.199  0.00  0.00    +0.218 C 
ATOM      7  C   UNL     1      -0.079  -2.684   1.925  0.00  0.00    +0.018 A 
ATOM      8  C   UNL     1       0.424  -1.601   2.622  0.00  0.00    +0.009 A 
ATOM      9  C   UNL     1       1.671  -1.669   3.216  0.00  0.00    +0.000 A 
ATOM     10  C   UNL     1       2.426  -2.825   3.117  0.00  0.00    +0.001 A 
ATOM     11  C   UNL     1       1.940  -3.912   2.427  0.00  0.00    +0.012 A 
ATOM     12  C   UNL     1       0.674  -3.852   1.821  0.00  0.00    +0.030 A 
ATOM     13  C   UNL     1      -0.055  -4.870   1.049  0.00  0.00    +0.218 C 
ATOM     14  O   UNL     1       0.347  -5.985   0.793  0.00  0.00    -0.287 OA
ATOM     15  H   UNL     1      -1.381  -4.786  -1.500  0.00  0.00    +0.154 HD
ENDROOT
BRANCH   6  16
ATOM     16  O   UNL     1      -2.521  -2.628   2.042  0.00  0.00    -0.364 OA
ATOM     17  H   UNL     1      -2.581  -1.725   2.384  0.00  0.00    +0.213 HD
ENDBRANCH   6  16
BRANCH   5  18
ATOM     18  O   UNL     1      -2.486  -5.079   1.064  0.00  0.00    -0.362 OA
ATOM     19  H   UNL     1      -2.507  -5.970   0.689  0.00  0.00    +0.213 HD
ENDBRANCH   5  18
BRANCH   1  20
ATOM     20  C   UNL     1      -1.433  -0.534   0.013  0.00  0.00    +0.112 C 
BRANCH  20  22
ATOM     21  C   UNL     1      -0.019   1.526   0.010  0.00  0.00    +0.005 C 
ATOM     22  C   UNL     1       0.002  -0.004   0.002  0.00  0.00    +0.016 C 
ENDBRANCH  20  22
ENDBRANCH   1  20
TORSDOF 4
