REMARK  Name = ZINC25742427
REMARK  6 active torsions:
REMARK  status: ('A' for Active; 'I' for Inactive)
REMARK    1  A    between atoms: C_1  and  C_2
REMARK    2  A    between atoms: C_5  and  N_13
REMARK    3  A    between atoms: C_7  and  N_8
REMARK    4  A    between atoms: N_13  and  C_14
REMARK    5  A    between atoms: C_14  and  C_15
REMARK    6  A    between atoms: N_17  and  C_18
REMARK                            x       y       z     vdW  Elec       q    Type
REMARK                         _______ _______ _______ _____ _____    ______ ____
ROOT
ATOM      1  C   UNL     1       5.673  -4.741  -0.062  0.00  0.00    +0.197 C 
ENDROOT
BRANCH   1   2
ATOM      2  C   UNL     1       7.168  -4.698  -0.249  0.00  0.00    +0.231 C 
ATOM      3  O   UNL     1       7.714  -3.653  -0.533  0.00  0.00    -0.274 OA
ATOM      4  N   UNL     1       7.898  -5.822  -0.101  0.00  0.00    -0.307 N 
ATOM      5  H   UNL     1       7.402  -6.769   0.156  0.00  0.00    +0.149 HD
BRANCH   4   6
ATOM      6  C   UNL     1       9.351  -5.780  -0.283  0.00  0.00    +0.103 C 
ATOM      7  C   UNL     1       9.990  -6.921   0.506  0.00  0.00    +0.027 C 
ATOM      8  C   UNL     1      11.475  -6.994   0.134  0.00  0.00    +0.007 C 
ATOM      9  C   UNL     1      11.587  -7.498  -1.304  0.00  0.00    +0.035 C 
ATOM     10  C   UNL     1      10.701  -6.692  -2.218  0.00  0.00    -0.042 A 
ATOM     11  C   UNL     1       9.672  -5.906  -1.749  0.00  0.00    -0.024 A 
ATOM     12  C   UNL     1       8.887  -5.194  -2.647  0.00  0.00    +0.006 A 
ATOM     13  C   UNL     1       9.134  -5.263  -4.002  0.00  0.00    +0.000 A 
ATOM     14  C   UNL     1      10.170  -6.048  -4.472  0.00  0.00    +0.000 A 
ATOM     15  C   UNL     1      10.949  -6.759  -3.583  0.00  0.00    +0.004 A 
ENDBRANCH   4   6
ENDBRANCH   1   2
BRANCH   1  16
ATOM     16  N   UNL     1       5.116  -3.402  -0.276  0.00  0.00    -0.335 N 
ATOM     17  H   UNL     1       5.781  -2.564  -0.531  0.00  0.00    +0.147 HD
BRANCH  16  22
ATOM     18  C   UNL     1      -0.473  -2.555   0.224  0.00  0.00    +0.046 C 
ATOM     19  C   UNL     1       1.011  -2.780   0.088  0.00  0.00    -0.025 A 
ATOM     20  C   UNL     1       1.539  -4.042   0.283  0.00  0.00    +0.007 A 
ATOM     21  C   UNL     1       2.899  -4.250   0.165  0.00  0.00    +0.023 A 
ATOM     22  C   UNL     1       3.740  -3.191  -0.156  0.00  0.00    +0.030 A 
ATOM     23  C   UNL     1       3.212  -1.924  -0.358  0.00  0.00    +0.051 A 
ATOM     24  C   UNL     1       1.845  -1.719  -0.239  0.00  0.00    +0.073 A 
BRANCH  24  25
ATOM     25  N   UNL     1       1.307  -0.440  -0.443  0.00  0.00    -0.200 N 
ATOM     26  C   UNL     1       1.753   0.729   0.068  0.00  0.00    +0.250 A 
ATOM     27  N   UNL     1       0.964   1.672  -0.374  0.00  0.00    -0.116 NA
ATOM     28  N   UNL     1       0.050   1.181  -1.130  0.00  0.00    -0.023 NA
ATOM     29  N   UNL     1       0.189  -0.098  -1.223  0.00  0.00    -0.039 NA
ENDBRANCH  24  25
ENDBRANCH  16  22
ENDBRANCH   1  16
TORSDOF 5
