REMARK  Name = ZINC04191266
REMARK  8 active torsions:
REMARK  status: ('A' for Active; 'I' for Inactive)
REMARK    1  A    between atoms: C_1  and  C_2
REMARK    2  A    between atoms: C_2  and  O_3
REMARK    3  A    between atoms: O_3  and  C_4
REMARK    4  A    between atoms: C_9  and  O_10
REMARK    5  A    between atoms: O_10  and  C_11
REMARK    6  A    between atoms: C_11  and  C_12
REMARK    7  A    between atoms: C_18  and  C_22
REMARK    8  A    between atoms: C_27  and  O_28
REMARK                            x       y       z     vdW  Elec       q    Type
REMARK                         _______ _______ _______ _____ _____    ______ ____
ROOT
ATOM      1  C   UNL     1       0.890  -1.890   1.513  0.00  0.00    +0.162 A 
ATOM      2  C   UNL     1       0.257  -2.629   0.526  0.00  0.00    +0.053 A 
ATOM      3  C   UNL     1       0.337  -4.006   0.539  0.00  0.00    -0.037 A 
ATOM      4  C   UNL     1       1.028  -4.643   1.567  0.00  0.00    +0.051 A 
ATOM      5  C   UNL     1       1.690  -3.916   2.533  0.00  0.00    +0.075 A 
ATOM      6  C   UNL     1       1.624  -2.529   2.508  0.00  0.00    +0.164 A 
ATOM      7  N   UNL     1       0.938  -6.048   1.611  0.00  0.00    -0.321 N 
ATOM      8  C   UNL     1       1.892  -6.982   1.823  0.00  0.00    +0.091 A 
ATOM      9  C   UNL     1       1.301  -8.197   1.761  0.00  0.00    +0.020 A 
ATOM     10  C   UNL     1      -0.072  -7.990   1.503  0.00  0.00    +0.022 A 
ATOM     11  C   UNL     1      -0.269  -6.663   1.418  0.00  0.00    +0.014 A 
ATOM     12  C   UNL     1      -1.551  -5.923   1.165  0.00  0.00    +0.011 C 
ATOM     13  N   UNL     1      -1.587  -5.396  -0.210  0.00  0.00    +0.390 N 
ATOM     14  C   UNL     1      -0.268  -4.837  -0.550  0.00  0.00    -0.043 C 
ATOM     15  H   UNL     1      -1.813  -6.142  -0.851  0.00  0.00    -0.084 HD
ATOM     16  H   UNL     1      -2.287  -4.672  -0.275  0.00  0.00    -0.084 HD
ENDROOT
BRANCH  12  17
ATOM     17  C   UNL     1      -2.713  -6.861   1.367  0.00  0.00    -0.014 A 
ATOM     18  C   UNL     1      -3.233  -7.558   0.293  0.00  0.00    +0.006 A 
ATOM     19  C   UNL     1      -4.300  -8.418   0.477  0.00  0.00    +0.000 A 
ATOM     20  C   UNL     1      -4.848  -8.584   1.736  0.00  0.00    +0.004 A 
ATOM     21  C   UNL     1      -4.331  -7.891   2.812  0.00  0.00    +0.045 A 
ATOM     22  C   UNL     1      -3.257  -7.030   2.631  0.00  0.00    +0.119 A 
BRANCH  22  23
ATOM     23  O   UNL     1      -2.743  -6.351   3.690  0.00  0.00    -0.507 OA
ATOM     24  H   UNL     1      -3.157  -5.490   3.843  0.00  0.00    +0.292 HD
ENDBRANCH  22  23
ENDBRANCH  12  17
BRANCH   1  25
ATOM     25  O   UNL     1       0.798  -0.533   1.507  0.00  0.00    -0.489 OA
BRANCH  25  27
ATOM     26  C   UNL     1       0.041   1.582   0.616  0.00  0.00    +0.048 C 
ATOM     27  C   UNL     1       0.029   0.061   0.459  0.00  0.00    +0.226 C 
ENDBRANCH  25  27
ENDBRANCH   1  25
BRANCH   6  28
ATOM     28  O   UNL     1       2.271  -1.798   3.455  0.00  0.00    -0.489 OA
BRANCH  28  29
ATOM     29  C   UNL     1       3.005  -2.522   4.444  0.00  0.00    +0.226 C 
ATOM     30  C   UNL     1       3.660  -1.538   5.415  0.00  0.00    +0.048 C 
ENDBRANCH  28  29
ENDBRANCH   6  28
TORSDOF 6
