REMARK  Name = ZINC44785487
REMARK  7 active torsions:
REMARK  status: ('A' for Active; 'I' for Inactive)
REMARK    1  A    between atoms: C_1  and  C_2
REMARK    2  A    between atoms: C_2  and  N_3
REMARK    3  A    between atoms: C_6  and  C_9
REMARK    4  A    between atoms: C_9  and  N_10
REMARK    5  A    between atoms: C_11  and  C_13
REMARK    6  A    between atoms: C_13  and  C_19
REMARK    7  A    between atoms: N_20  and  O_21
REMARK                            x       y       z     vdW  Elec       q    Type
REMARK                         _______ _______ _______ _____ _____    ______ ____
ROOT
ATOM      1  N   UNL     1       3.595  -4.203   2.122  0.00  0.00    -0.314 N 
ATOM      2  C   UNL     1       3.974  -5.234   2.903  0.00  0.00    +0.227 C 
ATOM      3  O   UNL     1       3.197  -5.702   3.708  0.00  0.00    -0.275 OA
ATOM      4  H   UNL     1       4.238  -3.780   1.532  0.00  0.00    +0.149 HD
ENDROOT
BRANCH   2   5
ATOM      5  C   UNL     1       5.362  -5.806   2.776  0.00  0.00    +0.109 C 
ATOM      6  C   UNL     1       5.480  -7.065   3.640  0.00  0.00    +0.052 C 
ATOM      7  C   UNL     1       4.505  -8.124   3.119  0.00  0.00    +0.161 C 
ATOM      8  O   UNL     1       4.791  -8.399   1.746  0.00  0.00    -0.380 OA
ATOM      9  C   UNL     1       4.651  -7.269   0.883  0.00  0.00    +0.161 C 
ATOM     10  C   UNL     1       5.632  -6.176   1.314  0.00  0.00    +0.052 C 
BRANCH   5  11
ATOM     11  C   UNL     1       6.372  -4.784   3.232  0.00  0.00    +0.147 C 
ATOM     12  N   UNL     1       7.216  -4.289   2.388  0.00  0.00    -0.076 NA
ATOM     13  N   UNL     1       6.394  -4.376   4.547  0.00  0.00    -0.343 N 
ATOM     14  H   UNL     1       5.714  -4.691   5.163  0.00  0.00    +0.144 HD
ATOM     15  H   UNL     1       7.088  -3.775   4.857  0.00  0.00    +0.144 HD
BRANCH  12  16
ATOM     16  O   UNL     1       8.165  -3.329   2.817  0.00  0.00    -0.408 OA
ATOM     17  H   UNL     1       8.754  -3.018   2.116  0.00  0.00    +0.328 HD
ENDBRANCH  12  16
ENDBRANCH   5  11
ENDBRANCH   2   5
BRANCH   1  18
ATOM     18  C   UNL     1       2.212  -3.721   2.166  0.00  0.00    +0.105 C 
BRANCH  18  22
ATOM     19  N   UNL     1       0.673  -0.552   1.114  0.00  0.00    +0.380 N 
ATOM     20  C   UNL     1       2.094  -0.156   1.015  0.00  0.00    -0.079 C 
ATOM     21  C   UNL     1       2.877  -1.327   1.660  0.00  0.00    -0.016 C 
ATOM     22  C   UNL     1       2.049  -2.553   1.191  0.00  0.00    -0.012 C 
ATOM     23  C   UNL     1       0.600  -2.021   1.209  0.00  0.00    -0.074 C 
ATOM     24  H   UNL     1       0.264  -0.138   1.938  0.00  0.00    -0.082 HD
BRANCH  19  26
ATOM     25  C   UNL     1      -0.080   1.433  -0.108  0.00  0.00    -0.017 C 
ATOM     26  C   UNL     1      -0.051  -0.097  -0.080  0.00  0.00    -0.082 C 
ENDBRANCH  19  26
ENDBRANCH  18  22
ENDBRANCH   1  18
TORSDOF 6
