REMARK  Name = ZINC66426859
REMARK  12 active torsions:
REMARK  status: ('A' for Active; 'I' for Inactive)
REMARK    1  A    between atoms: C_1  and  C_2
REMARK    2  A    between atoms: C_2  and  C_3
REMARK    3  A    between atoms: C_2  and  C_4
REMARK    4  A    between atoms: C_2  and  C_5
REMARK    5  A    between atoms: C_10  and  O_11
REMARK    6  A    between atoms: O_11  and  C_12
REMARK    7  A    between atoms: C_12  and  C_13
REMARK    8  A    between atoms: C_13  and  N_14
REMARK    9  A    between atoms: C_15  and  C_17
REMARK   10  A    between atoms: C_17  and  N_18
REMARK   11  A    between atoms: N_21  and  C_22
REMARK   12  A    between atoms: C_22  and  C_23
REMARK                            x       y       z     vdW  Elec       q    Type
REMARK                         _______ _______ _______ _____ _____    ______ ____
ROOT
ATOM      1  N   UNL     1      -1.529  -4.779   0.258  0.00  0.00    -0.311 N 
ATOM      2  C   UNL     1      -2.288  -5.430   1.162  0.00  0.00    +0.230 C 
ATOM      3  O   UNL     1      -1.770  -6.184   1.958  0.00  0.00    -0.274 OA
ATOM      4  H   UNL     1      -1.943  -4.176  -0.379  0.00  0.00    +0.149 HD
ENDROOT
BRANCH   1   5
ATOM      5  C   UNL     1      -0.078  -4.982   0.238  0.00  0.00    +0.145 C 
BRANCH   5   6
ATOM      6  C   UNL     1       0.540  -4.132  -0.874  0.00  0.00    +0.247 C 
BRANCH   6   7
ATOM      7  O   UNL     1       0.356  -2.747  -0.573  0.00  0.00    -0.490 OA
BRANCH   7  13
ATOM      8  C   UNL     1       0.707  -0.490  -1.238  0.00  0.00    -0.000 A 
ATOM      9  C   UNL     1       1.217   0.419  -2.145  0.00  0.00    +0.008 A 
ATOM     10  C   UNL     1       1.863  -0.026  -3.283  0.00  0.00    +0.001 A 
ATOM     11  C   UNL     1       2.003  -1.382  -3.516  0.00  0.00    +0.004 A 
ATOM     12  C   UNL     1       1.496  -2.295  -2.612  0.00  0.00    +0.046 A 
ATOM     13  C   UNL     1       0.851  -1.851  -1.467  0.00  0.00    +0.124 A 
BRANCH   8  15
ATOM     14  C   UNL     1      -0.019   1.526   0.010  0.00  0.00    +0.015 C 
ATOM     15  C   UNL     1       0.002  -0.004   0.002  0.00  0.00    -0.009 C 
ATOM     16  C   UNL     1       0.742  -0.511   1.242  0.00  0.00    +0.015 C 
ATOM     17  C   UNL     1      -1.433  -0.534   0.013  0.00  0.00    +0.015 C 
ENDBRANCH   8  15
ENDBRANCH   7  13
ENDBRANCH   6   7
ENDBRANCH   5   6
ENDBRANCH   1   5
BRANCH   2  18
ATOM     18  C   UNL     1      -3.780  -5.222   1.182  0.00  0.00    +0.201 C 
BRANCH  18  19
ATOM     19  N   UNL     1      -4.373  -6.036   2.247  0.00  0.00    -0.291 N 
ATOM     20  C   UNL     1      -5.704  -6.009   2.453  0.00  0.00    +0.300 C 
ATOM     21  O   UNL     1      -6.414  -5.311   1.756  0.00  0.00    -0.253 OA
ATOM     22  N   UNL     1      -6.249  -6.758   3.433  0.00  0.00    -0.292 N 
ATOM     23  H   UNL     1      -3.806  -6.593   2.803  0.00  0.00    +0.151 HD
ATOM     24  H   UNL     1      -5.683  -7.316   3.989  0.00  0.00    +0.151 HD
BRANCH  22  25
ATOM     25  C   UNL     1      -7.696  -6.729   3.658  0.00  0.00    +0.180 C 
BRANCH  25  26
ATOM     26  C   UNL     1      -8.045  -7.647   4.801  0.00  0.00    +0.122 A 
ATOM     27  C   UNL     1      -8.108  -7.298   6.099  0.00  0.00    +0.046 A 
ATOM     28  C   UNL     1      -8.468  -8.460   6.819  0.00  0.00    +0.041 A 
ATOM     29  C   UNL     1      -8.604  -9.450   5.918  0.00  0.00    +0.195 A 
ATOM     30  O   UNL     1      -8.353  -8.950   4.697  0.00  0.00    -0.466 OA
ENDBRANCH  25  26
ENDBRANCH  22  25
ENDBRANCH  18  19
ENDBRANCH   2  18
TORSDOF 9
