REMARK  Name = ZINC23257690
REMARK  5 active torsions:
REMARK  status: ('A' for Active; 'I' for Inactive)
REMARK    1  A    between atoms: C_1  and  N_2
REMARK    2  A    between atoms: N_10  and  C_14
REMARK    3  A    between atoms: C_14  and  N_15
REMARK    4  A    between atoms: N_18  and  C_21
REMARK    5  A    between atoms: C_21  and  C_22
REMARK                            x       y       z     vdW  Elec       q    Type
REMARK                         _______ _______ _______ _____ _____    ______ ____
ROOT
ATOM      1  C   UNL     1      -0.928   7.903   0.050  0.00  0.00    -0.096 C 
ATOM      2  N   UNL     1      -1.224   6.465   0.046  0.00  0.00    +0.378 N 
ATOM      3  C   UNL     1      -0.693   5.814   1.250  0.00  0.00    -0.077 C 
ATOM      4  C   UNL     1      -1.155   4.354   1.288  0.00  0.00    +0.017 C 
ATOM      5  C   UNL     1      -0.678   3.641   0.027  0.00  0.00    +0.109 C 
ATOM      6  C   UNL     1      -1.178   4.367  -1.218  0.00  0.00    +0.017 C 
ATOM      7  C   UNL     1      -0.715   5.826  -1.175  0.00  0.00    -0.077 C 
ATOM      8  C   UNL     1      -1.144   2.204   0.019  0.00  0.00    +0.247 C 
ATOM      9  O   UNL     1      -2.288   1.803   0.022  0.00  0.00    -0.273 OA
ATOM     10  N   UNL     1      -0.018   1.461   0.010  0.00  0.00    -0.211 N 
ATOM     11  C   UNL     1       1.079   2.228   0.004  0.00  0.00    +0.310 C 
ATOM     12  O   UNL     1       2.212   1.788  -0.008  0.00  0.00    -0.252 OA
ATOM     13  N   UNL     1       0.786   3.543   0.013  0.00  0.00    -0.285 N 
ATOM     14  H   UNL     1       1.399   4.457   0.012  0.00  0.00    +0.151 HD
ATOM     15  H   UNL     1      -2.318   6.343   0.055  0.00  0.00    -0.082 HD
ENDROOT
BRANCH  10  16
ATOM     16  C   UNL     1       0.002  -0.004   0.002  0.00  0.00    +0.205 C 
BRANCH  16  17
ATOM     17  N   UNL     1       0.021  -0.501   1.384  0.00  0.00    -0.284 NA
ATOM     18  C   UNL     1       1.382  -0.463   1.938  0.00  0.00    +0.101 C 
ATOM     19  C   UNL     1       1.347  -0.913   3.401  0.00  0.00    +0.100 C 
ATOM     20  N   UNL     1       0.786  -2.269   3.481  0.00  0.00    -0.295 NA
ATOM     21  C   UNL     1      -0.575  -2.306   2.927  0.00  0.00    +0.100 C 
ATOM     22  C   UNL     1      -0.539  -1.857   1.464  0.00  0.00    +0.101 C 
BRANCH  20  23
ATOM     23  C   UNL     1       0.805  -2.766   4.863  0.00  0.00    +0.127 C 
BRANCH  23  24
ATOM     24  C   UNL     1       2.152  -2.486   5.479  0.00  0.00    +0.005 A 
ATOM     25  C   UNL     1       2.566  -1.395   6.168  0.00  0.00    +0.013 A 
ATOM     26  C   UNL     1       3.862  -1.356   6.646  0.00  0.00    +0.023 A 
ATOM     27  C   UNL     1       4.682  -2.411   6.412  0.00  0.00    +0.055 A 
ATOM     28  S   UNL     1       3.614  -3.511   5.496  0.00  0.00    -0.085 S 
ATOM     29 BR   UNL     1       6.484  -2.657   6.927  0.00  0.00    -0.043 Br
ENDBRANCH  23  24
ENDBRANCH  20  23
ENDBRANCH  16  17
ENDBRANCH  10  16
TORSDOF 4
