REMARK  Name = ZINC43699031
REMARK  7 active torsions:
REMARK  status: ('A' for Active; 'I' for Inactive)
REMARK    1  A    between atoms: C_3  and  O_9
REMARK    2  A    between atoms: C_6  and  C_7
REMARK    3  A    between atoms: O_9  and  C_10
REMARK    4  A    between atoms: C_10  and  C_11
REMARK    5  A    between atoms: C_13  and  C_16
REMARK    6  A    between atoms: C_17  and  C_18
REMARK    7  A    between atoms: C_18  and  O_19
REMARK                            x       y       z     vdW  Elec       q    Type
REMARK                         _______ _______ _______ _____ _____    ______ ____
ROOT
ATOM      1  C   UNL     1       4.756   1.355  -0.038  0.00  0.00    +0.271 C 
ENDROOT
BRANCH   1   2
ATOM      2  C   UNL     1       5.936   2.291  -0.045  0.00  0.00    +0.028 A 
ATOM      3  C   UNL     1       6.615   2.808   1.003  0.00  0.00    +0.031 A 
ATOM      4  C   UNL     1       7.688   3.662   0.759  0.00  0.00    +0.032 A 
ATOM      5  C   UNL     1       8.013   3.944  -0.541  0.00  0.00    +0.062 A 
ATOM      6  S   UNL     1       6.800   2.993  -1.440  0.00  0.00    -0.097 S 
BRANCH   4   7
ATOM      7  C   UNL     1       8.433   4.231   1.841  0.00  0.00    -0.063 C 
ATOM      8  C   UNL     1       9.044   4.698   2.729  0.00  0.00    -0.069 C 
BRANCH   8   9
ATOM      9  C   UNL     1       9.809   5.284   3.841  0.00  0.00    +0.244 C 
BRANCH   9  10
ATOM     10  O   UNL     1      10.847   6.115   3.320  0.00  0.00    -0.383 OA
ATOM     11  H   UNL     1      11.393   6.535   3.998  0.00  0.00    +0.211 HD
ENDBRANCH   9  10
ENDBRANCH   8   9
ENDBRANCH   4   7
ENDBRANCH   1   2
BRANCH   1  12
ATOM     12  O   UNL     1       3.546   2.114  -0.022  0.00  0.00    -0.487 OA
BRANCH  12  15
ATOM     13  C   UNL     1      -0.017   1.393   0.010  0.00  0.00    +0.022 A 
ATOM     14  C   UNL     1       1.168   2.096   0.002  0.00  0.00    +0.047 A 
ATOM     15  C   UNL     1       2.380   1.418  -0.013  0.00  0.00    +0.121 A 
ATOM     16  C   UNL     1       2.404   0.028  -0.021  0.00  0.00    +0.047 A 
ATOM     17  C   UNL     1       1.224  -0.682  -0.013  0.00  0.00    +0.022 A 
ATOM     18  C   UNL     1       0.002  -0.004   0.002  0.00  0.00    +0.052 A 
BRANCH  18  19
ATOM     19  C   UNL     1      -1.227  -0.739   0.010  0.00  0.00    +0.099 C 
ATOM     20  N   UNL     1      -2.202  -1.322   0.017  0.00  0.00    -0.191 NA
ENDBRANCH  18  19
ENDBRANCH  12  15
ENDBRANCH   1  12
TORSDOF 7
