REMARK  Name = ZINC04189660
REMARK  7 active torsions:
REMARK  status: ('A' for Active; 'I' for Inactive)
REMARK    1  A    between atoms: C_1  and  C_2
REMARK    2  A    between atoms: C_3  and  C_28
REMARK    3  A    between atoms: C_4  and  C_21
REMARK    4  A    between atoms: C_10  and  C_12
REMARK    5  A    between atoms: C_15  and  N_18
REMARK    6  A    between atoms: N_18  and  C_19
REMARK    7  A    between atoms: N_18  and  C_20
REMARK                            x       y       z     vdW  Elec       q    Type
REMARK                         _______ _______ _______ _____ _____    ______ ____
ROOT
ATOM      1  C   UNL     1      -0.731   1.622  -0.394  0.00  0.00    +0.066 C 
ATOM      2  C   UNL     1      -0.431   0.158  -0.200  0.00  0.00    +0.052 C 
ATOM      3  C   UNL     1      -1.467  -0.734  -0.180  0.00  0.00    +0.062 C 
ATOM      4  C   UNL     1      -1.117  -2.199   0.017  0.00  0.00    +0.165 C 
ATOM      5  N   UNL     1       0.310  -2.507   0.167  0.00  0.00    -0.207 N 
ATOM      6  C   UNL     1       1.222  -1.478   0.121  0.00  0.00    +0.237 C 
ATOM      7  N   UNL     1       0.828  -0.226  -0.060  0.00  0.00    -0.218 NA
ATOM      8  N   UNL     1       2.441  -2.014   0.280  0.00  0.00    -0.196 NA
ATOM      9  C   UNL     1       2.352  -3.322   0.424  0.00  0.00    +0.146 C 
ATOM     10  N   UNL     1       1.032  -3.687   0.361  0.00  0.00    -0.244 N 
ATOM     11  H   UNL     1       0.672  -4.584   0.436  0.00  0.00    +0.172 HD
ENDROOT
BRANCH   4  12
ATOM     12  C   UNL     1      -1.831  -2.690   1.250  0.00  0.00    -0.002 A 
ATOM     13  C   UNL     1      -2.219  -1.794   2.228  0.00  0.00    +0.007 A 
ATOM     14  C   UNL     1      -2.874  -2.244   3.358  0.00  0.00    +0.000 A 
ATOM     15  C   UNL     1      -3.142  -3.592   3.511  0.00  0.00    +0.001 A 
ATOM     16  C   UNL     1      -2.755  -4.489   2.534  0.00  0.00    +0.020 A 
ATOM     17  C   UNL     1      -2.104  -4.038   1.400  0.00  0.00    +0.046 A 
ATOM     18 CL   UNL     1      -1.623  -5.164   0.169  0.00  0.00    -0.083 Cl
ENDBRANCH   4  12
BRANCH   9  19
ATOM     19  C   UNL     1       3.486  -4.241   0.621  0.00  0.00    +0.016 A 
ATOM     20  C   UNL     1       3.260  -5.616   0.755  0.00  0.00    +0.013 A 
ATOM     21  C   UNL     1       4.318  -6.468   0.938  0.00  0.00    +0.024 A 
ATOM     22  C   UNL     1       5.616  -5.968   0.990  0.00  0.00    +0.029 A 
ATOM     23  C   UNL     1       5.845  -4.601   0.858  0.00  0.00    +0.024 A 
ATOM     24  C   UNL     1       4.793  -3.743   0.668  0.00  0.00    +0.013 A 
BRANCH  22  25
ATOM     25  N   UNL     1       6.687  -6.835   1.176  0.00  0.00    -0.336 N 
ATOM     26  C   UNL     1       6.448  -8.274   1.317  0.00  0.00    +0.129 C 
ATOM     27  C   UNL     1       8.053  -6.311   1.232  0.00  0.00    +0.129 C 
ENDBRANCH  22  25
ENDBRANCH   9  19
BRANCH   3  28
ATOM     28  C   UNL     1      -2.800  -0.313  -0.335  0.00  0.00    +0.241 C 
ATOM     29  O   UNL     1      -3.061   0.877  -0.384  0.00  0.00    -0.271 OA
ATOM     30  N   UNL     1      -3.788  -1.225  -0.429  0.00  0.00    -0.325 N 
ATOM     31  H   UNL     1      -3.590  -2.168  -0.318  0.00  0.00    +0.145 HD
ATOM     32  H   UNL     1      -4.697  -0.938  -0.607  0.00  0.00    +0.145 HD
ENDBRANCH   3  28
TORSDOF 4
