REMARK  Name = ZINC06023976
REMARK  9 active torsions:
REMARK  status: ('A' for Active; 'I' for Inactive)
REMARK    1  A    between atoms: C_1  and  C_2
REMARK    2  A    between atoms: C_4  and  C_27
REMARK    3  A    between atoms: C_5  and  S_9
REMARK    4  A    between atoms: C_7  and  C_8
REMARK    5  A    between atoms: S_9  and  N_12
REMARK    6  A    between atoms: N_12  and  C_13
REMARK    7  A    between atoms: C_16  and  O_26
REMARK    8  A    between atoms: C_17  and  S_19
REMARK    9  A    between atoms: S_19  and  C_20
REMARK                            x       y       z     vdW  Elec       q    Type
REMARK                         _______ _______ _______ _____ _____    ______ ____
ROOT
ATOM      1  C   UNL     1      -2.542  -4.881  -0.561  0.00  0.00    +0.049 A 
ATOM      2  C   UNL     1      -2.923  -4.993   0.770  0.00  0.00    +0.028 A 
ATOM      3  C   UNL     1      -4.193  -4.614   1.162  0.00  0.00    +0.048 A 
ATOM      4  C   UNL     1      -5.090  -4.122   0.229  0.00  0.00    +0.131 A 
ATOM      5  C   UNL     1      -4.713  -4.008  -1.107  0.00  0.00    +0.059 A 
ATOM      6  C   UNL     1      -3.435  -4.383  -1.499  0.00  0.00    +0.043 A 
ENDROOT
BRANCH   1   7
ATOM      7  N   UNL     1      -1.256  -5.265  -0.955  0.00  0.00    -0.216 N 
ATOM      8  H   UNL     1      -1.134  -5.813  -1.747  0.00  0.00    +0.174 HD
BRANCH   7   9
ATOM      9  S   UNL     1       0.059  -4.785  -0.071  0.00  0.00    +0.073 S 
ATOM     10  O   UNL     1       1.209  -5.230  -0.778  0.00  0.00    -0.150 OA
ATOM     11  O   UNL     1      -0.199  -5.158   1.276  0.00  0.00    -0.150 OA
BRANCH   9  16
ATOM     12  C   UNL     1       0.184   1.246  -0.196  0.00  0.00    +0.044 C 
ATOM     13  C   UNL     1       0.153  -0.260  -0.165  0.00  0.00    -0.047 A 
ATOM     14  C   UNL     1       0.325  -0.980  -1.333  0.00  0.00    +0.009 A 
ATOM     15  C   UNL     1       0.296  -2.361  -1.304  0.00  0.00    -0.024 A 
ATOM     16  C   UNL     1       0.097  -3.024  -0.107  0.00  0.00    +0.112 A 
ATOM     17  C   UNL     1      -0.074  -2.305   1.061  0.00  0.00    +0.032 A 
ATOM     18  C   UNL     1      -0.041  -0.923   1.033  0.00  0.00    -0.046 A 
ATOM     19  C   UNL     1      -0.222  -0.139   2.307  0.00  0.00    +0.044 C 
ATOM     20  C   UNL     1       0.482  -3.145  -2.578  0.00  0.00    +0.046 C 
ENDBRANCH   9  16
ENDBRANCH   7   9
ENDBRANCH   1   7
BRANCH   4  21
ATOM     21  O   UNL     1      -6.341  -3.751   0.616  0.00  0.00    -0.506 OA
ATOM     22  H   UNL     1      -6.412  -2.824   0.881  0.00  0.00    +0.292 HD
ENDBRANCH   4  21
BRANCH   5  23
ATOM     23  S   UNL     1      -5.852  -3.383  -2.297  0.00  0.00    -0.047 S 
BRANCH  23  24
ATOM     24  C   UNL     1      -6.977  -4.715  -2.551  0.00  0.00    +0.189 A 
ATOM     25  N   UNL     1      -7.978  -4.749  -3.457  0.00  0.00    -0.254 N 
ATOM     26  H   UNL     1      -8.216  -4.051  -4.088  0.00  0.00    +0.191 HD
ATOM     27  N   UNL     1      -8.606  -5.996  -3.305  0.00  0.00    -0.160 NA
ATOM     28  C   UNL     1      -7.976  -6.627  -2.351  0.00  0.00    +0.245 A 
ATOM     29  N   UNL     1      -6.986  -5.858  -1.897  0.00  0.00    -0.209 NA
ENDBRANCH  23  24
ENDBRANCH   5  23
TORSDOF 6
