REMARK  Name = ZINC67619737
REMARK  10 active torsions:
REMARK  status: ('A' for Active; 'I' for Inactive)
REMARK    1  A    between atoms: C_1  and  C_2
REMARK    2  A    between atoms: C_5  and  C_12
REMARK    3  A    between atoms: C_8  and  C_10
REMARK    4  A    between atoms: C_8  and  C_11
REMARK    5  A    between atoms: C_12  and  C_13
REMARK    6  A    between atoms: C_15  and  C_16
REMARK    7  A    between atoms: C_15  and  C_18
REMARK    8  A    between atoms: N_20  and  C_21
REMARK    9  A    between atoms: C_24  and  N_27
REMARK   10  A    between atoms: C_28  and  C_30
REMARK                            x       y       z     vdW  Elec       q    Type
REMARK                         _______ _______ _______ _____ _____    ______ ____
ROOT
ATOM      1  C   UNL     1      -3.564  -2.218  -1.210  0.00  0.00    +0.179 C 
ATOM      2  O   UNL     1      -4.149  -1.012  -1.300  0.00  0.00    -0.291 OA
ATOM      3  C   UNL     1      -3.488  -3.023  -2.308  0.00  0.00    +0.156 C 
ENDROOT
BRANCH   3   4
ATOM      4  C   UNL     1      -2.845  -4.341  -2.210  0.00  0.00    +0.262 C 
ATOM      5  O   UNL     1      -2.449  -4.746  -1.134  0.00  0.00    -0.269 OA
ATOM      6  N   UNL     1      -2.695  -5.101  -3.313  0.00  0.00    -0.281 N 
ATOM      7  H   UNL     1      -3.068  -4.807  -4.159  0.00  0.00    +0.155 HD
BRANCH   6   8
ATOM      8  C   UNL     1      -2.000  -6.314  -3.238  0.00  0.00    +0.034 A 
ATOM      9  C   UNL     1      -2.097  -7.101  -2.098  0.00  0.00    +0.025 A 
ATOM     10  C   UNL     1      -1.411  -8.297  -2.024  0.00  0.00    +0.025 A 
ATOM     11  C   UNL     1      -0.625  -8.713  -3.089  0.00  0.00    +0.033 A 
ATOM     12  C   UNL     1      -0.527  -7.927  -4.230  0.00  0.00    +0.025 A 
ATOM     13  C   UNL     1      -1.218  -6.734  -4.306  0.00  0.00    +0.025 A 
BRANCH  11  14
ATOM     14  N   UNL     1       0.071  -9.927  -3.014  0.00  0.00    -0.286 N 
ATOM     15  C   UNL     1       1.277 -10.050  -3.604  0.00  0.00    +0.214 C 
ATOM     16  O   UNL     1       1.797  -9.088  -4.127  0.00  0.00    -0.276 OA
ATOM     17  C   UNL     1       1.978 -11.384  -3.613  0.00  0.00    +0.109 C 
ATOM     18  H   UNL     1      -0.315 -10.678  -2.537  0.00  0.00    +0.155 HD
ENDBRANCH  11  14
ENDBRANCH   6   8
ENDBRANCH   3   4
BRANCH   3  19
ATOM     19  C   UNL     1      -4.035  -2.584  -3.557  0.00  0.00    +0.108 C 
ATOM     20  N   UNL     1      -4.469  -2.236  -4.547  0.00  0.00    -0.191 NA
ENDBRANCH   3  19
BRANCH   1  21
ATOM     21  C   UNL     1      -2.990  -2.681   0.104  0.00  0.00    +0.084 C 
BRANCH  21  25
ATOM     22  C   UNL     1       0.540   0.854   0.051  0.00  0.00    +0.007 C 
ATOM     23  C   UNL     1       0.282  -0.653   0.097  0.00  0.00    -0.013 C 
ATOM     24  C   UNL     1      -1.225  -0.913   0.078  0.00  0.00    +0.007 C 
ATOM     25  C   UNL     1      -1.483  -2.421   0.123  0.00  0.00    -0.003 C 
ATOM     26  C   UNL     1      -0.881  -3.003   1.404  0.00  0.00    +0.010 C 
ATOM     27  C   UNL     1       0.627  -2.742   1.423  0.00  0.00    -0.034 C 
ATOM     28  C   UNL     1       0.885  -1.235   1.377  0.00  0.00    +0.009 C 
ATOM     29  C   UNL     1       1.274  -3.408   0.206  0.00  0.00    +0.011 C 
ATOM     30  C   UNL     1       1.229  -3.324   2.703  0.00  0.00    +0.011 C 
ENDBRANCH  21  25
ENDBRANCH   1  21
TORSDOF 6
