REMARK  Name = ZINC13065496
REMARK  9 active torsions:
REMARK  status: ('A' for Active; 'I' for Inactive)
REMARK    1  A    between atoms: C_1  and  C_2
REMARK    2  A    between atoms: C_5  and  C_8
REMARK    3  A    between atoms: C_8  and  N_63
REMARK    4  A    between atoms: C_9  and  C_10
REMARK    5  A    between atoms: C_9  and  N_63
REMARK    6  A    between atoms: C_16  and  C_22
REMARK    7  A    between atoms: C_23  and  C_24
REMARK    8  A    between atoms: C_23  and  N_63
REMARK    9  A    between atoms: N_28  and  C_29
REMARK                            x       y       z     vdW  Elec       q    Type
REMARK                         _______ _______ _______ _____ _____    ______ ____
ROOT
ATOM      1  N   UNL     1      -3.232   3.627  -1.656  0.00  0.00    +0.390 N 
ATOM      2  H   UNL     1      -3.242   2.699  -2.095  0.00  0.00    -0.080 HD
ENDROOT
BRANCH   1   3
ATOM      3  C   UNL     1      -4.519   4.300  -1.928  0.00  0.00    -0.042 C 
BRANCH   3   8
ATOM      4  C   UNL     1      -5.844   3.592  -7.508  0.00  0.00    +0.044 C 
ATOM      5  C   UNL     1      -5.499   3.777  -6.053  0.00  0.00    -0.050 A 
ATOM      6  C   UNL     1      -5.795   2.781  -5.140  0.00  0.00    +0.003 A 
ATOM      7  C   UNL     1      -5.478   2.951  -3.805  0.00  0.00    +0.002 A 
ATOM      8  C   UNL     1      -4.864   4.115  -3.383  0.00  0.00    -0.064 A 
ATOM      9  C   UNL     1      -4.573   5.113  -4.295  0.00  0.00    +0.002 A 
ATOM     10  C   UNL     1      -4.886   4.941  -5.630  0.00  0.00    +0.003 A 
ENDBRANCH   3   8
ENDBRANCH   1   3
BRANCH   1  11
ATOM     11  C   UNL     1      -3.043   3.467  -0.199  0.00  0.00    -0.036 C 
BRANCH  11  12
ATOM     12  C   UNL     1      -1.982   2.424   0.039  0.00  0.00    +0.001 A 
ATOM     13  C   UNL     1      -0.799   2.779   0.600  0.00  0.00    +0.017 A 
ATOM     14  C   UNL     1       0.211   1.742   0.818  0.00  0.00    -0.001 A 
ATOM     15  C   UNL     1       1.449   2.048   1.393  0.00  0.00    +0.010 A 
ATOM     16  C   UNL     1       2.370   1.058   1.583  0.00  0.00    +0.001 A 
ATOM     17  C   UNL     1       2.089  -0.250   1.211  0.00  0.00    +0.005 A 
ATOM     18  C   UNL     1       0.876  -0.574   0.643  0.00  0.00    -0.026 A 
ATOM     19  C   UNL     1      -0.078   0.418   0.440  0.00  0.00    +0.052 A 
ATOM     20  N   UNL     1      -1.300   0.122  -0.126  0.00  0.00    -0.322 N 
ATOM     21  H   UNL     1      -1.498  -0.791  -0.386  0.00  0.00    +0.169 HD
ATOM     22  C   UNL     1      -2.219   1.082  -0.328  0.00  0.00    +0.251 A 
ATOM     23  O   UNL     1      -3.287   0.785  -0.836  0.00  0.00    -0.268 OA
ATOM     24  C   UNL     1       0.584  -1.998   0.244  0.00  0.00    +0.046 C 
ENDBRANCH  11  12
ENDBRANCH   1  11
BRANCH   1  25
ATOM     25  C   UNL     1      -2.119   4.416  -2.226  0.00  0.00    +0.001 C 
BRANCH  25  26
ATOM     26  C   UNL     1      -0.927   3.510  -2.402  0.00  0.00    +0.135 A 
ATOM     27  N   UNL     1       0.120   3.435  -1.618  0.00  0.00    -0.115 NA
ATOM     28  N   UNL     1       0.917   2.545  -2.103  0.00  0.00    -0.023 NA
ATOM     29  N   UNL     1       0.408   2.057  -3.180  0.00  0.00    -0.044 NA
ATOM     30  N   UNL     1      -0.729   2.627  -3.398  0.00  0.00    -0.228 N 
BRANCH  30  31
ATOM     31  C   UNL     1      -1.635   2.361  -4.519  0.00  0.00    +0.111 C 
ATOM     32  C   UNL     1      -2.109   0.894  -4.479  0.00  0.00    +0.027 C 
ATOM     33  C   UNL     1      -2.172   0.475  -5.969  0.00  0.00    +0.002 C 
ATOM     34  C   UNL     1      -0.939   1.187  -6.578  0.00  0.00    +0.002 C 
ATOM     35  C   UNL     1      -0.891   2.548  -5.853  0.00  0.00    +0.027 C 
ENDBRANCH  30  31
ENDBRANCH  25  26
ENDBRANCH   1  25
TORSDOF 7
