REMARK  Name = ZINC49508443
REMARK  5 active torsions:
REMARK  status: ('A' for Active; 'I' for Inactive)
REMARK    1  A    between atoms: C_1  and  C_2
REMARK    2  A    between atoms: N_8  and  C_28
REMARK    3  A    between atoms: C_13  and  N_18
REMARK    4  A    between atoms: C_19  and  C_21
REMARK    5  A    between atoms: C_22  and  C_23
REMARK                            x       y       z     vdW  Elec       q    Type
REMARK                         _______ _______ _______ _____ _____    ______ ____
ROOT
ATOM      1  C   UNL     1       0.228   1.435  -0.715  0.00  0.00    +0.044 C 
ATOM      2  C   UNL     1       0.181  -0.060  -0.532  0.00  0.00    -0.048 A 
ATOM      3  C   UNL     1       0.078  -0.887  -1.635  0.00  0.00    +0.007 A 
ATOM      4  C   UNL     1       0.048  -2.259  -1.470  0.00  0.00    +0.048 A 
ATOM      5  C   UNL     1       0.112  -2.811  -0.198  0.00  0.00    +0.150 A 
ATOM      6  C   UNL     1       0.193  -1.981   0.913  0.00  0.00    +0.079 A 
ATOM      7  C   UNL     1       0.246  -0.603   0.736  0.00  0.00    +0.030 A 
ATOM      8  N   UNL     1       0.190  -2.494   2.209  0.00  0.00    -0.267 N 
ATOM      9  C   UNL     1       0.816  -3.588   2.620  0.00  0.00    +0.254 C 
ATOM     10  O   UNL     1       0.720  -3.882   3.796  0.00  0.00    -0.270 OA
ATOM     11  C   UNL     1       1.617  -4.472   1.762  0.00  0.00    +0.081 A 
ATOM     12  C   UNL     1       2.794  -5.041   2.259  0.00  0.00    +0.040 A 
ATOM     13  C   UNL     1       3.539  -5.893   1.462  0.00  0.00    +0.035 A 
ATOM     14  C   UNL     1       3.117  -6.187   0.170  0.00  0.00    +0.027 A 
ATOM     15  C   UNL     1       1.962  -5.622  -0.329  0.00  0.00    +0.049 A 
ATOM     16  C   UNL     1       1.212  -4.756   0.454  0.00  0.00    +0.141 A 
ATOM     17  O   UNL     1       0.115  -4.161  -0.068  0.00  0.00    -0.453 OA
ATOM     18  C   UNL     1      -0.577  -1.754   3.213  0.00  0.00    +0.139 C 
ENDROOT
BRANCH  13  19
ATOM     19  N   UNL     1       4.720  -6.460   1.958  0.00  0.00    -0.282 N 
ATOM     20  C   UNL     1       5.754  -6.699   1.127  0.00  0.00    +0.241 C 
ATOM     21  O   UNL     1       5.699  -6.333  -0.033  0.00  0.00    -0.270 OA
ATOM     22  H   UNL     1       4.793  -6.682   2.900  0.00  0.00    +0.155 HD
BRANCH  20  23
ATOM     23  C   UNL     1       6.902  -7.372   1.603  0.00  0.00    +0.068 C 
ATOM     24  C   UNL     1       7.943  -7.612   0.767  0.00  0.00    +0.020 C 
BRANCH  24  25
ATOM     25  C   UNL     1       9.094  -8.287   1.243  0.00  0.00    +0.012 A 
ATOM     26  C   UNL     1      10.258  -8.623   0.562  0.00  0.00    +0.015 A 
ATOM     27  C   UNL     1      11.210  -9.283   1.300  0.00  0.00    +0.008 A 
ATOM     28  C   UNL     1      10.960  -9.557   2.605  0.00  0.00    +0.046 A 
ATOM     29  S   UNL     1       9.430  -8.920   2.876  0.00  0.00    -0.097 S 
ENDBRANCH  24  25
ENDBRANCH  20  23
ENDBRANCH  13  19
TORSDOF 3
