REMARK  Name = ZINC36657552
REMARK  3 active torsions:
REMARK  status: ('A' for Active; 'I' for Inactive)
REMARK    1  A    between atoms: C_1  and  C_2
REMARK    2  A    between atoms: C_5  and  C_8
REMARK    3  A    between atoms: C_8  and  C_9
REMARK                            x       y       z     vdW  Elec       q    Type
REMARK                         _______ _______ _______ _____ _____    ______ ____
ROOT
ATOM      1  C   UNL     1       0.059  -4.275  -0.021  0.00  0.00    +0.132 C 
ENDROOT
BRANCH   1   2
ATOM      2  C   UNL     1       1.487  -4.759  -0.032  0.00  0.00    +0.223 A 
ATOM      3  N   UNL     1       2.218  -5.017   1.012  0.00  0.00    -0.111 NA
ATOM      4  N   UNL     1       3.384  -5.409   0.634  0.00  0.00    -0.093 NA
ATOM      5  C   UNL     1       3.436  -5.415  -0.675  0.00  0.00    +0.305 A 
ATOM      6  O   UNL     1       2.235  -5.009  -1.125  0.00  0.00    -0.409 OA
ATOM      7  N   UNL     1       4.522  -5.777  -1.451  0.00  0.00    -0.312 N 
ATOM      8  H   UNL     1       5.347  -6.061  -1.028  0.00  0.00    +0.147 HD
ATOM      9  H   UNL     1       4.459  -5.746  -2.418  0.00  0.00    +0.147 HD
ENDBRANCH   1   2
BRANCH   1  14
ATOM     10  C   UNL     1      -0.018   1.503   0.010  0.00  0.00    +0.044 C 
ATOM     11  C   UNL     1       0.002  -0.004   0.002  0.00  0.00    -0.050 A 
ATOM     12  C   UNL     1       0.006  -0.689  -1.199  0.00  0.00    +0.003 A 
ATOM     13  C   UNL     1       0.025  -2.071  -1.206  0.00  0.00    +0.004 A 
ATOM     14  C   UNL     1       0.040  -2.768  -0.013  0.00  0.00    -0.038 A 
ATOM     15  C   UNL     1       0.037  -2.084   1.188  0.00  0.00    +0.004 A 
ATOM     16  C   UNL     1       0.023  -0.702   1.195  0.00  0.00    +0.003 A 
ENDBRANCH   1  14
TORSDOF 2
