REMARK  Name = ZINC54753828
REMARK  7 active torsions:
REMARK  status: ('A' for Active; 'I' for Inactive)
REMARK    1  A    between atoms: C_4  and  N_6
REMARK    2  A    between atoms: C_7  and  C_9
REMARK    3  A    between atoms: C_9  and  C_10
REMARK    4  A    between atoms: C_10  and  N_11
REMARK    5  A    between atoms: N_14  and  C_15
REMARK    6  A    between atoms: C_15  and  C_16
REMARK    7  A    between atoms: C_16  and  N_21
REMARK                            x       y       z     vdW  Elec       q    Type
REMARK                         _______ _______ _______ _____ _____    ______ ____
ROOT
ATOM      1  N   UNL     1       0.567  -5.610  -3.930  0.00  0.00    -0.299 N 
ATOM      2  C   UNL     1       0.318  -6.930  -3.820  0.00  0.00    +0.300 C 
ATOM      3  O   UNL     1       0.286  -7.453  -2.723  0.00  0.00    -0.253 OA
ATOM      4  N   UNL     1       0.106  -7.670  -4.927  0.00  0.00    -0.301 N 
ATOM      5  H   UNL     1       0.593  -5.192  -4.805  0.00  0.00    +0.150 HD
ATOM      6  H   UNL     1       0.132  -7.252  -5.802  0.00  0.00    +0.150 HD
ENDROOT
BRANCH   1   7
ATOM      7  C   UNL     1       0.798  -4.806  -2.727  0.00  0.00    +0.115 C 
BRANCH   7   8
ATOM      8  C   UNL     1       1.054  -3.351  -3.127  0.00  0.00    +0.114 C 
BRANCH   8  10
ATOM      9  N   UNL     1       1.540  -1.204  -2.000  0.00  0.00    -0.312 N 
ATOM     10  C   UNL     1       1.292  -2.524  -1.890  0.00  0.00    +0.215 C 
ATOM     11  O   UNL     1       1.259  -3.046  -0.796  0.00  0.00    -0.276 OA
ATOM     12  H   UNL     1       1.566  -0.786  -2.875  0.00  0.00    +0.149 HD
BRANCH   9  16
ATOM     13  C   UNL     1       0.509   1.659  -0.278  0.00  0.00    +0.002 C 
ATOM     14  C   UNL     1       2.027   1.964  -0.254  0.00  0.00    +0.002 C 
ATOM     15  C   UNL     1       2.615   0.843  -1.147  0.00  0.00    +0.022 C 
ATOM     16  C   UNL     1       1.771  -0.400  -0.797  0.00  0.00    +0.073 C 
ATOM     17  C   UNL     1       0.432   0.119  -0.244  0.00  0.00    +0.022 C 
ENDBRANCH   9  16
ENDBRANCH   8  10
ENDBRANCH   7   8
ENDBRANCH   1   7
BRANCH   4  18
ATOM     18  C   UNL     1      -0.165  -9.104  -4.808  0.00  0.00    +0.094 C 
BRANCH  18  19
ATOM     19  C   UNL     1      -0.489  -9.679  -6.188  0.00  0.00    -0.050 C 
ATOM     20  C   UNL     1      -1.755  -9.005  -6.757  0.00  0.00    -0.010 C 
ATOM     21  C   UNL     1      -2.491 -10.147  -7.500  0.00  0.00    -0.001 C 
ATOM     22  C   UNL     1      -2.250 -11.367  -6.577  0.00  0.00    -0.001 C 
ATOM     23  C   UNL     1      -0.803 -11.180  -6.074  0.00  0.00    -0.010 C 
BRANCH  19  24
ATOM     24  N   UNL     1       0.645  -9.470  -7.098  0.00  0.00    +0.386 N 
ATOM     25  C   UNL     1       0.251  -9.861  -8.454  0.00  0.00    -0.067 C 
ATOM     26  C   UNL     1       1.262  -9.314  -9.468  0.00  0.00    +0.050 C 
ATOM     27  S   UNL     1       2.885 -10.058  -9.114  0.00  0.00    -0.164 S 
ATOM     28  C   UNL     1       3.069  -9.780  -7.325  0.00  0.00    +0.050 C 
ATOM     29  C   UNL     1       1.788 -10.258  -6.631  0.00  0.00    -0.067 C 
ATOM     30  H   UNL     1       0.895  -8.492  -7.097  0.00  0.00    -0.081 HD
ENDBRANCH  19  24
ENDBRANCH  18  19
ENDBRANCH   4  18
TORSDOF 7
