REMARK  Name = ZINC36764665
REMARK  9 active torsions:
REMARK  status: ('A' for Active; 'I' for Inactive)
REMARK    1  A    between atoms: C_1  and  C_2
REMARK    2  A    between atoms: C_2  and  C_3
REMARK    3  A    between atoms: C_2  and  C_4
REMARK    4  A    between atoms: C_2  and  C_5
REMARK    5  A    between atoms: C_7  and  C_10
REMARK    6  A    between atoms: C_10  and  C_12
REMARK    7  A    between atoms: C_10  and  N_21
REMARK    8  A    between atoms: C_17  and  O_18
REMARK    9  A    between atoms: O_18  and  C_19
REMARK                            x       y       z     vdW  Elec       q    Type
REMARK                         _______ _______ _______ _____ _____    ______ ____
ROOT
ATOM      1  C   UNL     1       3.576  -0.751  -3.427  0.00  0.00    +0.032 C 
ENDROOT
BRANCH   1   2
ATOM      2  C   UNL     1       3.477   0.183  -4.606  0.00  0.00    -0.012 A 
ATOM      3  C   UNL     1       3.208  -0.319  -5.865  0.00  0.00    +0.021 A 
ATOM      4  C   UNL     1       3.116   0.538  -6.947  0.00  0.00    +0.018 A 
ATOM      5  C   UNL     1       3.294   1.899  -6.771  0.00  0.00    +0.019 A 
ATOM      6  C   UNL     1       3.562   2.404  -5.514  0.00  0.00    +0.047 A 
ATOM      7  C   UNL     1       3.649   1.547  -4.426  0.00  0.00    +0.122 A 
ATOM      8 BR   UNL     1       2.749  -0.152  -8.669  0.00  0.00    -0.050 Br
BRANCH   7   9
ATOM      9  O   UNL     1       3.909   2.043  -3.188  0.00  0.00    -0.495 OA
ATOM     10  C   UNL     1       4.075   3.458  -3.078  0.00  0.00    +0.277 C 
ENDBRANCH   7   9
ENDBRANCH   1   2
BRANCH   1  13
ATOM     11  C   UNL     1       0.707  -0.490  -1.238  0.00  0.00    +0.233 A 
ATOM     12  N   UNL     1       1.943  -0.232  -1.565  0.00  0.00    -0.197 NA
ATOM     13  C   UNL     1       2.243  -0.821  -2.728  0.00  0.00    +0.162 A 
ATOM     14  N   UNL     1       1.196  -1.464  -3.157  0.00  0.00    -0.063 NA
ATOM     15  O   UNL     1       0.175  -1.266  -2.191  0.00  0.00    -0.338 OA
BRANCH  11  17
ATOM     16  C   UNL     1      -0.019   1.526   0.010  0.00  0.00    +0.020 C 
ATOM     17  C   UNL     1       0.002  -0.004   0.002  0.00  0.00    +0.041 C 
ATOM     18  C   UNL     1       0.742  -0.511   1.242  0.00  0.00    +0.020 C 
ATOM     19  C   UNL     1      -1.433  -0.534   0.013  0.00  0.00    +0.020 C 
ENDBRANCH  11  17
ENDBRANCH   1  13
BRANCH   1  20
ATOM     20  N   UNL     1       3.954  -2.091  -3.895  0.00  0.00    +0.388 N 
ATOM     21  H   UNL     1       3.255  -2.433  -4.537  0.00  0.00    -0.089 HD
ATOM     22  H   UNL     1       4.847  -2.045  -4.364  0.00  0.00    -0.089 HD
ATOM     23  H   UNL     1       4.021  -2.717  -3.106  0.00  0.00    -0.089 HD
ENDBRANCH   1  20
TORSDOF 5
