REMARK  Name = ZINC46658264
REMARK  10 active torsions:
REMARK  status: ('A' for Active; 'I' for Inactive)
REMARK    1  A    between atoms: C_1  and  C_2
REMARK    2  A    between atoms: C_5  and  O_8
REMARK    3  A    between atoms: O_8  and  C_9
REMARK    4  A    between atoms: C_14  and  N_15
REMARK    5  A    between atoms: C_16  and  C_18
REMARK    6  A    between atoms: C_18  and  O_19
REMARK    7  A    between atoms: O_19  and  C_20
REMARK    8  A    between atoms: C_20  and  C_22
REMARK    9  A    between atoms: C_25  and  S_27
REMARK   10  A    between atoms: S_27  and  N_30
REMARK                            x       y       z     vdW  Elec       q    Type
REMARK                         _______ _______ _______ _____ _____    ______ ____
ROOT
ATOM      1  N   UNL     1       0.311  -6.894   0.015  0.00  0.00    -0.280 N 
ATOM      2  C   UNL     1      -0.248  -8.120  -0.023  0.00  0.00    +0.255 C 
ATOM      3  O   UNL     1      -0.676  -8.624   0.994  0.00  0.00    -0.272 OA
ATOM      4  H   UNL     1       0.704  -6.516  -0.787  0.00  0.00    +0.155 HD
ENDROOT
BRANCH   1  10
ATOM      5  C   UNL     1       0.211  -4.779   1.189  0.00  0.00    +0.150 A 
ATOM      6  C   UNL     1       0.219  -4.066   2.377  0.00  0.00    +0.048 A 
ATOM      7  C   UNL     1       0.346  -4.732   3.582  0.00  0.00    +0.004 A 
ATOM      8  C   UNL     1       0.465  -6.110   3.606  0.00  0.00    +0.002 A 
ATOM      9  C   UNL     1       0.458  -6.828   2.425  0.00  0.00    +0.027 A 
ATOM     10  C   UNL     1       0.325  -6.168   1.213  0.00  0.00    +0.076 A 
BRANCH   5  11
ATOM     11  O   UNL     1       0.086  -4.126   0.003  0.00  0.00    -0.454 OA
BRANCH  11  16
ATOM     12  C   UNL     1       0.124   1.506   0.068  0.00  0.00    +0.044 C 
ATOM     13  C   UNL     1       0.114  -0.001   0.050  0.00  0.00    -0.050 A 
ATOM     14  C   UNL     1       1.256  -0.703   0.390  0.00  0.00    +0.007 A 
ATOM     15  C   UNL     1       1.249  -2.084   0.375  0.00  0.00    +0.046 A 
ATOM     16  C   UNL     1       0.095  -2.768   0.019  0.00  0.00    +0.129 A 
ATOM     17  C   UNL     1      -1.050  -2.061  -0.321  0.00  0.00    +0.046 A 
ATOM     18  C   UNL     1      -1.040  -0.680  -0.299  0.00  0.00    +0.007 A 
ENDBRANCH  11  16
ENDBRANCH   5  11
ENDBRANCH   1  10
BRANCH   2  19
ATOM     19  C   UNL     1      -0.343  -8.865  -1.330  0.00  0.00    +0.328 C 
BRANCH  19  20
ATOM     20  O   UNL     1      -0.970 -10.130  -1.113  0.00  0.00    -0.450 OA
BRANCH  20  21
ATOM     21  C   UNL     1      -1.132 -10.927  -2.190  0.00  0.00    +0.375 C 
ATOM     22  O   UNL     1      -0.751 -10.555  -3.283  0.00  0.00    -0.241 OA
BRANCH  21  23
ATOM     23  C   UNL     1      -1.767 -12.238  -2.042  0.00  0.00    +0.214 A 
ATOM     24  C   UNL     1      -1.987 -13.141  -3.043  0.00  0.00    +0.059 A 
ATOM     25  C   UNL     1      -2.614 -14.251  -2.456  0.00  0.00    +0.072 A 
ATOM     26  C   UNL     1      -2.747 -13.980  -1.138  0.00  0.00    +0.258 A 
ATOM     27  O   UNL     1      -2.232 -12.769  -0.892  0.00  0.00    -0.430 OA
BRANCH  26  28
ATOM     28  S   UNL     1      -3.476 -15.048   0.060  0.00  0.00    +0.089 S 
ATOM     29  O   UNL     1      -3.919 -14.220   1.126  0.00  0.00    -0.150 OA
ATOM     30  O   UNL     1      -4.353 -15.913  -0.648  0.00  0.00    -0.150 OA
BRANCH  28  31
ATOM     31  N   UNL     1      -2.264 -15.998   0.670  0.00  0.00    -0.201 NA
ATOM     32  H   UNL     1      -2.316 -16.323   1.583  0.00  0.00    +0.144 HD
ATOM     33  H   UNL     1      -1.503 -16.229   0.115  0.00  0.00    +0.144 HD
ENDBRANCH  28  31
ENDBRANCH  26  28
ENDBRANCH  21  23
ENDBRANCH  20  21
ENDBRANCH  19  20
ENDBRANCH   2  19
TORSDOF 9
