REMARK  Name = ZINC04257694
REMARK  8 active torsions:
REMARK  status: ('A' for Active; 'I' for Inactive)
REMARK    1  A    between atoms: C_1  and  C_2
REMARK    2  A    between atoms: C_5  and  S_8
REMARK    3  A    between atoms: S_8  and  C_9
REMARK    4  A    between atoms: C_10  and  C_19
REMARK    5  A    between atoms: N_12  and  C_15
REMARK    6  A    between atoms: C_15  and  C_16
REMARK    7  A    between atoms: C_15  and  C_17
REMARK    8  A    between atoms: C_15  and  C_18
REMARK                            x       y       z     vdW  Elec       q    Type
REMARK                         _______ _______ _______ _____ _____    ______ ____
ROOT
ATOM      1  C   UNL     1       0.014  -5.098   1.645  0.00  0.00    +0.099 A 
ATOM      2  C   UNL     1      -0.091  -4.327   2.750  0.00  0.00    +0.049 A 
ATOM      3  N   UNL     1      -0.092  -5.141   3.854  0.00  0.00    -0.297 N 
ATOM      4  N   UNL     1       0.017  -6.474   3.440  0.00  0.00    -0.246 N 
ATOM      5  C   UNL     1       0.077  -6.490   2.092  0.00  0.00    +0.282 A 
ATOM      6  O   UNL     1       0.171  -7.476   1.383  0.00  0.00    -0.265 OA
ATOM      7  C   UNL     1      -0.192  -2.823   2.766  0.00  0.00    +0.066 C 
ATOM      8  H   UNL     1      -0.156  -4.841   4.774  0.00  0.00    +0.187 HD
ENDROOT
BRANCH   4   9
ATOM      9  C   UNL     1       0.051  -7.647   4.317  0.00  0.00    +0.057 C 
ATOM     10  C   UNL     1      -0.050  -7.196   5.776  0.00  0.00    +0.036 C 
ATOM     11  C   UNL     1      -1.125  -8.567   3.985  0.00  0.00    +0.036 C 
ATOM     12  C   UNL     1       1.365  -8.402   4.107  0.00  0.00    +0.036 C 
ENDBRANCH   4   9
BRANCH   1  13
ATOM     13  S   UNL     1       0.058  -4.533  -0.023  0.00  0.00    -0.082 S 
BRANCH  13  18
ATOM     14  C   UNL     1       5.620  -5.945  -1.895  0.00  0.00    +0.044 C 
ATOM     15  C   UNL     1       4.232  -5.593  -1.428  0.00  0.00    -0.050 A 
ATOM     16  C   UNL     1       3.309  -5.087  -2.326  0.00  0.00    +0.004 A 
ATOM     17  C   UNL     1       2.036  -4.763  -1.901  0.00  0.00    +0.015 A 
ATOM     18  C   UNL     1       1.682  -4.946  -0.570  0.00  0.00    +0.013 A 
ATOM     19  C   UNL     1       2.612  -5.454   0.330  0.00  0.00    +0.015 A 
ATOM     20  C   UNL     1       3.881  -5.780  -0.103  0.00  0.00    +0.004 A 
ENDBRANCH  13  18
ENDBRANCH   1  13
TORSDOF 3
