REMARK  Name = ZINC13643387
REMARK  9 active torsions:
REMARK  status: ('A' for Active; 'I' for Inactive)
REMARK    1  A    between atoms: C_3  and  C_33
REMARK    2  A    between atoms: C_4  and  O_22
REMARK    3  A    between atoms: C_6  and  C_7
REMARK    4  A    between atoms: N_9  and  C_10
REMARK    5  A    between atoms: C_10  and  C_11
REMARK    6  A    between atoms: N_14  and  C_17
REMARK    7  A    between atoms: O_22  and  C_23
REMARK    8  A    between atoms: C_23  and  C_24
REMARK    9  A    between atoms: C_24  and  C_25
REMARK                            x       y       z     vdW  Elec       q    Type
REMARK                         _______ _______ _______ _____ _____    ______ ____
ROOT
ATOM      1  C   UNL     1       1.203  -0.678  -0.013  0.00  0.00    +0.014 A 
ATOM      2  C   UNL     1       0.002  -0.004   0.002  0.00  0.00    +0.017 A 
ATOM      3  C   UNL     1      -0.017   1.392   0.010  0.00  0.00    +0.078 A 
ATOM      4  C   UNL     1       1.188   2.107   0.002  0.00  0.00    +0.133 A 
ATOM      5  C   UNL     1       2.394   1.426  -0.013  0.00  0.00    +0.059 A 
ATOM      6  C   UNL     1       2.405   0.033  -0.021  0.00  0.00    +0.040 A 
ENDROOT
BRANCH   3   7
ATOM      7  C   UNL     1      -1.306   2.115   0.020  0.00  0.00    +0.245 C 
ATOM      8  O   UNL     1      -1.321   3.330   0.026  0.00  0.00    -0.270 OA
ATOM      9  N   UNL     1      -2.464   1.426   0.021  0.00  0.00    -0.325 N 
ATOM     10  H   UNL     1      -2.452   0.456   0.016  0.00  0.00    +0.145 HD
ATOM     11  H   UNL     1      -3.310   1.900   0.028  0.00  0.00    +0.145 HD
ENDBRANCH   3   7
BRANCH   6  12
ATOM     12  C   UNL     1       3.694  -0.696  -0.037  0.00  0.00    +0.244 C 
ATOM     13  O   UNL     1       4.741  -0.079  -0.044  0.00  0.00    -0.270 OA
ATOM     14  N   UNL     1       3.706  -2.044  -0.045  0.00  0.00    -0.311 N 
ATOM     15  H   UNL     1       2.870  -2.537  -0.039  0.00  0.00    +0.149 HD
BRANCH  14  16
ATOM     16  C   UNL     1       4.981  -2.765  -0.061  0.00  0.00    +0.108 C 
BRANCH  16  17
ATOM     17  C   UNL     1       4.715  -4.272  -0.066  0.00  0.00    +0.009 C 
ATOM     18  C   UNL     1       4.045  -4.678   1.249  0.00  0.00    +0.024 C 
ATOM     19  C   UNL     1       3.837  -6.194   1.263  0.00  0.00    +0.105 C 
ATOM     20  N   UNL     1       5.133  -6.869   1.125  0.00  0.00    -0.330 N 
ATOM     21  C   UNL     1       5.774  -6.531  -0.153  0.00  0.00    +0.105 C 
ATOM     22  C   UNL     1       6.040  -5.025  -0.209  0.00  0.00    +0.024 C 
BRANCH  20  23
ATOM     23  C   UNL     1       4.996  -8.247   1.265  0.00  0.00    +0.032 A 
ATOM     24  C   UNL     1       5.435  -9.115   0.265  0.00  0.00    +0.040 A 
ATOM     25  C   UNL     1       5.285 -10.474   0.445  0.00  0.00    +0.084 A 
ATOM     26  C   UNL     1       4.294 -10.165   2.507  0.00  0.00    +0.084 A 
ATOM     27  C   UNL     1       4.412  -8.795   2.406  0.00  0.00    +0.040 A 
ATOM     28  N   UNL     1       4.719 -11.034   1.549  0.00  0.00    -0.367 N 
ATOM     29  H   UNL     1       4.617 -12.050   1.652  0.00  0.00    +0.165 HD
ENDBRANCH  20  23
ENDBRANCH  16  17
ENDBRANCH  14  16
ENDBRANCH   6  12
BRANCH   4  30
ATOM     30  O   UNL     1       1.174   3.464   0.009  0.00  0.00    -0.491 OA
BRANCH  30  31
ATOM     31  C   UNL     1       2.440   4.126   0.001  0.00  0.00    +0.234 C 
BRANCH  31  32
ATOM     32  C   UNL     1       2.224   5.641   0.011  0.00  0.00    +0.077 C 
BRANCH  32  33
ATOM     33  C   UNL     1       3.559   6.339   0.002  0.00  0.00    -0.026 A 
ATOM     34  C   UNL     1       4.064   6.850  -1.179  0.00  0.00    +0.006 A 
ATOM     35  C   UNL     1       5.288   7.491  -1.188  0.00  0.00    +0.020 A 
ATOM     36  C   UNL     1       6.009   7.622  -0.015  0.00  0.00    +0.042 A 
ATOM     37  C   UNL     1       5.505   7.111   1.168  0.00  0.00    +0.040 A 
ATOM     38  C   UNL     1       4.277   6.474   1.177  0.00  0.00    +0.046 A 
ATOM     39 CL   UNL     1       3.640   5.838   2.662  0.00  0.00    -0.083 Cl
ATOM     40 CL   UNL     1       7.548   8.427  -0.026  0.00  0.00    -0.083 Cl
ENDBRANCH  32  33
ENDBRANCH  31  32
ENDBRANCH  30  31
ENDBRANCH   4  30
TORSDOF 9
