REMARK  Name = ZINC09239584
REMARK  10 active torsions:
REMARK  status: ('A' for Active; 'I' for Inactive)
REMARK    1  A    between atoms: C_1  and  C_2
REMARK    2  A    between atoms: C_2  and  C_3
REMARK    3  A    between atoms: C_3  and  C_4
REMARK    4  A    between atoms: C_10  and  C_26
REMARK    5  A    between atoms: C_12  and  C_15
REMARK    6  A    between atoms: N_17  and  C_18
REMARK    7  A    between atoms: C_21  and  C_25
REMARK    8  A    between atoms: C_22  and  C_24
REMARK    9  A    between atoms: C_29  and  C_32
REMARK   10  A    between atoms: C_32  and  C_33
REMARK                            x       y       z     vdW  Elec       q    Type
REMARK                         _______ _______ _______ _____ _____    ______ ____
ROOT
ATOM      1  C   UNL     1       4.952   1.641  -2.293  0.00  0.00    +0.151 A 
ATOM      2  N   UNL     1       6.050   0.955  -2.133  0.00  0.00    -0.132 NA
ATOM      3  N   UNL     1       6.016   0.316  -1.014  0.00  0.00    -0.121 NA
ATOM      4  C   UNL     1       4.889   0.566  -0.407  0.00  0.00    +0.209 A 
ATOM      5  N   UNL     1       4.173   1.423  -1.193  0.00  0.00    -0.225 N 
ATOM      6  N   UNL     1       2.952   1.953  -0.922  0.00  0.00    -0.272 N 
ATOM      7  C   UNL     1       2.174   1.175   0.043  0.00  0.00    +0.140 C 
ATOM      8  C   UNL     1       2.924   1.078   1.377  0.00  0.00    +0.166 C 
ATOM      9  S   UNL     1       4.326  -0.057   1.146  0.00  0.00    -0.069 S 
ATOM     10  H   UNL     1       2.429   2.103  -1.772  0.00  0.00    +0.167 HD
ENDROOT
BRANCH   7  11
ATOM     11  C   UNL     1       0.844   1.847   0.267  0.00  0.00    -0.024 A 
ATOM     12  C   UNL     1      -0.305   1.087   0.379  0.00  0.00    +0.006 A 
ATOM     13  C   UNL     1      -1.526   1.704   0.579  0.00  0.00    +0.004 A 
ATOM     14  C   UNL     1      -1.596   3.081   0.678  0.00  0.00    -0.048 A 
ATOM     15  C   UNL     1      -0.448   3.841   0.566  0.00  0.00    +0.004 A 
ATOM     16  C   UNL     1       0.772   3.225   0.361  0.00  0.00    +0.006 A 
BRANCH  14  17
ATOM     17  C   UNL     1      -2.926   3.753   0.903  0.00  0.00    +0.032 C 
ATOM     18  C   UNL     1      -3.573   4.068  -0.448  0.00  0.00    +0.009 C 
ENDBRANCH  14  17
ENDBRANCH   7  11
BRANCH   8  19
ATOM     19  C   UNL     1       3.431   2.439   1.778  0.00  0.00    +0.233 C 
ATOM     20  O   UNL     1       3.719   3.254   0.927  0.00  0.00    -0.274 OA
ATOM     21  N   UNL     1       3.563   2.752   3.082  0.00  0.00    -0.285 N 
ATOM     22  H   UNL     1       3.260   2.131   3.763  0.00  0.00    +0.155 HD
BRANCH  21  23
ATOM     23  C   UNL     1       4.136   3.973   3.455  0.00  0.00    +0.034 A 
ATOM     24  C   UNL     1       5.143   4.534   2.680  0.00  0.00    +0.023 A 
ATOM     25  C   UNL     1       5.702   5.742   3.047  0.00  0.00    +0.005 A 
ATOM     26  C   UNL     1       5.268   6.388   4.191  0.00  0.00    -0.047 A 
ATOM     27  C   UNL     1       4.269   5.830   4.967  0.00  0.00    -0.046 A 
ATOM     28  C   UNL     1       3.702   4.624   4.602  0.00  0.00    +0.027 A 
ATOM     29  C   UNL     1       3.800   6.537   6.212  0.00  0.00    +0.044 C 
ATOM     30  C   UNL     1       5.885   7.703   4.591  0.00  0.00    +0.044 C 
ENDBRANCH  21  23
ENDBRANCH   8  19
BRANCH   1  31
ATOM     31  C   UNL     1       4.608   2.513  -3.473  0.00  0.00    +0.078 C 
BRANCH  31  33
ATOM     32  C   UNL     1       3.531   2.565  -5.727  0.00  0.00    +0.004 C 
ATOM     33  C   UNL     1       3.880   1.679  -4.529  0.00  0.00    +0.004 C 
ENDBRANCH  31  33
ENDBRANCH   1  31
TORSDOF 6
