REMARK  Name = ZINC64871159
REMARK  5 active torsions:
REMARK  status: ('A' for Active; 'I' for Inactive)
REMARK    1  A    between atoms: C_3  and  C_11
REMARK    2  A    between atoms: C_5  and  C_7
REMARK    3  A    between atoms: C_14  and  C_18
REMARK    4  A    between atoms: N_28  and  C_31
REMARK    5  A    between atoms: C_31  and  C_32
REMARK                            x       y       z     vdW  Elec       q    Type
REMARK                         _______ _______ _______ _____ _____    ______ ____
ROOT
ATOM      1  C   UNL     1       5.441   4.937   1.040  0.00  0.00    -0.000 A 
ATOM      2  C   UNL     1       5.249   5.412  -0.248  0.00  0.00    +0.008 A 
ATOM      3  C   UNL     1       5.840   6.591  -0.653  0.00  0.00    +0.016 A 
ATOM      4  C   UNL     1       6.633   7.304   0.243  0.00  0.00    +0.063 A 
ATOM      5  C   UNL     1       6.827   6.821   1.549  0.00  0.00    +0.056 A 
ATOM      6  C   UNL     1       6.221   5.637   1.940  0.00  0.00    +0.034 A 
ATOM      7  N   UNL     1       7.622   7.553   2.419  0.00  0.00    -0.307 N 
ATOM      8  H   UNL     1       7.766   7.232   3.323  0.00  0.00    +0.170 HD
ATOM      9  C   UNL     1       8.196   8.701   2.022  0.00  0.00    +0.330 A 
ATOM     10  O   UNL     1       8.886   9.312   2.815  0.00  0.00    -0.246 OA
ATOM     11  N   UNL     1       8.041   9.203   0.786  0.00  0.00    -0.256 N 
ATOM     12  C   UNL     1       7.287   8.569  -0.138  0.00  0.00    +0.265 A 
ATOM     13  O   UNL     1       7.151   9.030  -1.255  0.00  0.00    -0.267 OA
ENDROOT
BRANCH   1  16
ATOM     14  C   UNL     1       3.672   2.182  -0.022  0.00  0.00    +0.180 C 
ATOM     15  N   UNL     1       3.526   3.455   0.723  0.00  0.00    -0.265 NA
ATOM     16  C   UNL     1       4.788   3.647   1.466  0.00  0.00    +0.242 C 
ATOM     17  O   UNL     1       5.643   2.534   1.148  0.00  0.00    -0.274 OA
ATOM     18  N   UNL     1       4.723   1.449   0.733  0.00  0.00    -0.177 NA
ATOM     19  H   UNL     1       3.356   4.225   0.094  0.00  0.00    +0.127 HD
ATOM     20  H   UNL     1       4.331   0.982   1.537  0.00  0.00    +0.156 HD
BRANCH  14  23
ATOM     21  C   UNL     1      -0.017   1.378   0.010  0.00  0.00    +0.001 A 
ATOM     22  C   UNL     1       1.171   2.085   0.002  0.00  0.00    +0.006 A 
ATOM     23  C   UNL     1       2.377   1.411  -0.013  0.00  0.00    -0.014 A 
ATOM     24  C   UNL     1       2.396   0.028  -0.020  0.00  0.00    +0.019 A 
ATOM     25  C   UNL     1       1.209  -0.679  -0.012  0.00  0.00    +0.055 A 
ATOM     26  C   UNL     1       0.002  -0.004   0.002  0.00  0.00    +0.012 A 
BRANCH  25  27
ATOM     27  C   UNL     1       1.229  -2.186  -0.020  0.00  0.00    +0.417 C 
ATOM     28  F   UNL     1       1.249  -2.660   1.296  0.00  0.00    -0.166 F 
ATOM     29  F   UNL     1       0.086  -2.664  -0.671  0.00  0.00    -0.166 F 
ATOM     30  F   UNL     1       2.371  -2.633  -0.694  0.00  0.00    -0.166 F 
ENDBRANCH  25  27
ENDBRANCH  14  23
ENDBRANCH   1  16
BRANCH  11  31
ATOM     31  C   UNL     1       8.701  10.462   0.433  0.00  0.00    +0.165 C 
BRANCH  31  32
ATOM     32  C   UNL     1      10.071  10.171  -0.124  0.00  0.00    -0.027 A 
ATOM     33  C   UNL     1      11.161  10.098   0.723  0.00  0.00    +0.008 A 
ATOM     34  C   UNL     1      12.417   9.832   0.213  0.00  0.00    +0.038 A 
ATOM     35  C   UNL     1      12.584   9.637  -1.148  0.00  0.00    +0.123 A 
ATOM     36  C   UNL     1      11.492   9.710  -1.996  0.00  0.00    +0.038 A 
ATOM     37  C   UNL     1      10.236   9.972  -1.482  0.00  0.00    +0.008 A 
ATOM     38  F   UNL     1      13.812   9.377  -1.648  0.00  0.00    -0.205 F 
ENDBRANCH  31  32
ENDBRANCH  11  31
TORSDOF 5
