REMARK  Name = ZINC15910855
REMARK  13 active torsions:
REMARK  status: ('A' for Active; 'I' for Inactive)
REMARK    1  A    between atoms: C_1  and  C_2
REMARK    2  A    between atoms: C_2  and  C_26
REMARK    3  A    between atoms: N_3  and  N_4
REMARK    4  A    between atoms: N_4  and  C_5
REMARK    5  A    between atoms: C_8  and  N_23
REMARK    6  A    between atoms: C_10  and  S_11
REMARK    7  A    between atoms: S_11  and  N_14
REMARK    8  A    between atoms: N_14  and  C_15
REMARK    9  A    between atoms: C_20  and  C_21
REMARK   10  A    between atoms: C_29  and  O_34
REMARK   11  A    between atoms: C_31  and  O_32
REMARK   12  A    between atoms: O_32  and  C_33
REMARK   13  A    between atoms: O_34  and  C_35
REMARK                            x       y       z     vdW  Elec       q    Type
REMARK                         _______ _______ _______ _____ _____    ______ ____
ROOT
ATOM      1  C   UNL     1       0.208   3.777   1.669  0.00  0.00    +0.075 A 
ATOM      2  C   UNL     1       0.146   4.581   2.815  0.00  0.00    +0.029 A 
ATOM      3  C   UNL     1       1.109   4.457   3.792  0.00  0.00    +0.035 A 
ATOM      4  C   UNL     1       2.134   3.535   3.646  0.00  0.00    +0.128 A 
ATOM      5  C   UNL     1       2.199   2.732   2.518  0.00  0.00    +0.063 A 
ATOM      6  C   UNL     1       1.244   2.845   1.532  0.00  0.00    +0.133 A 
ENDROOT
BRANCH   6   7
ATOM      7  S   UNL     1       1.328   1.823   0.099  0.00  0.00    +0.074 S 
ATOM      8  O   UNL     1       2.436   0.953   0.285  0.00  0.00    -0.150 OA
ATOM      9  O   UNL     1       1.220   2.688  -1.023  0.00  0.00    -0.150 OA
BRANCH   7  10
ATOM     10  N   UNL     1      -0.026   0.871   0.095  0.00  0.00    -0.215 N 
ATOM     11  H   UNL     1      -0.706   0.997  -0.586  0.00  0.00    +0.174 HD
BRANCH  10  12
ATOM     12  C   UNL     1      -0.193  -0.103   1.070  0.00  0.00    +0.062 A 
ATOM     13  C   UNL     1       0.254   0.122   2.366  0.00  0.00    +0.025 A 
ATOM     14  C   UNL     1       0.083  -0.846   3.335  0.00  0.00    +0.002 A 
ATOM     15  C   UNL     1      -0.524  -2.052   3.022  0.00  0.00    +0.001 A 
ATOM     16  C   UNL     1      -0.969  -2.296   1.742  0.00  0.00    +0.017 A 
ATOM     17  C   UNL     1      -0.808  -1.324   0.750  0.00  0.00    +0.085 A 
BRANCH  17  18
ATOM     18  C   UNL     1      -1.281  -1.579  -0.621  0.00  0.00    +0.388 C 
ATOM     19  O   UNL     1      -1.139  -0.731  -1.480  0.00  0.00    -0.241 OA
ATOM     20  O   UNL     1      -1.871  -2.752  -0.923  0.00  0.00    -0.241 OA
ENDBRANCH  17  18
ENDBRANCH  10  12
ENDBRANCH   7  10
ENDBRANCH   6   7
BRANCH   4  21
ATOM     21  N   UNL     1       3.166   3.408   4.701  0.00  0.00    +0.056 N 
ATOM     22  O   UNL     1       4.142   2.533   4.566  0.00  0.00    -0.126 OA
ATOM     23  O   UNL     1       3.108   4.169   5.774  0.00  0.00    -0.126 OA
ENDBRANCH   4  21
BRANCH   1  24
ATOM     24  N   UNL     1      -0.744   3.900   0.689  0.00  0.00    -0.236 N 
ATOM     25  H   UNL     1      -0.662   3.392  -0.133  0.00  0.00    +0.174 HD
BRANCH  24  28
ATOM     26  C   UNL     1      -2.718   3.787  -1.226  0.00  0.00    +0.068 C 
ATOM     27  C   UNL     1      -2.734   4.735  -0.055  0.00  0.00    +0.067 C 
ATOM     28  N   UNL     1      -1.748   4.691   0.861  0.00  0.00    -0.187 NA
BRANCH  27  29
ATOM     29  C   UNL     1      -3.767   5.654   0.080  0.00  0.00    +0.039 A 
ATOM     30  C   UNL     1      -4.848   5.722  -0.910  0.00  0.00    +0.017 A 
ATOM     31  C   UNL     1      -5.841   6.626  -0.746  0.00  0.00    +0.046 A 
ATOM     32  C   UNL     1      -5.848   7.507   0.352  0.00  0.00    +0.124 A 
ATOM     33  C   UNL     1      -4.845   7.487   1.315  0.00  0.00    +0.091 A 
ATOM     34  C   UNL     1      -3.801   6.591   1.221  0.00  0.00    +0.132 A 
BRANCH  34  35
ATOM     35  O   UNL     1      -2.827   6.571   2.157  0.00  0.00    -0.494 OA
ATOM     36  C   UNL     1      -2.936   7.511   3.228  0.00  0.00    +0.277 C 
ENDBRANCH  34  35
BRANCH  32  37
ATOM     37  O   UNL     1      -6.857   8.398   0.473  0.00  0.00    -0.495 OA
ATOM     38  C   UNL     1      -7.863   8.380  -0.541  0.00  0.00    +0.277 C 
ENDBRANCH  32  37
ENDBRANCH  27  29
ENDBRANCH  24  28
ENDBRANCH   1  24
TORSDOF 10
