REMARK  Name = ZINC04425457
REMARK  3 active torsions:
REMARK  status: ('A' for Active; 'I' for Inactive)
REMARK    1  A    between atoms: C_5  and  N_7
REMARK    2  A    between atoms: C_18  and  C_19
REMARK    3  A    between atoms: C_22  and  N_25
REMARK                            x       y       z     vdW  Elec       q    Type
REMARK                         _______ _______ _______ _____ _____    ______ ____
ROOT
ATOM      1  N   UNL     1       1.236  -2.082  -0.022  0.00  0.00    -0.203 N 
ATOM      2  C   UNL     1       1.254  -2.834   1.093  0.00  0.00    +0.258 C 
ATOM      3  O   UNL     1       1.391  -2.399   2.222  0.00  0.00    -0.269 OA
ATOM      4  C   UNL     1       1.091  -4.183   0.772  0.00  0.00    +0.081 C 
ATOM      5  H   UNL     1       0.573  -7.135  -0.215  0.00  0.00    +0.194 HD
ATOM      6  C   UNL     1       1.468  -4.240  -0.715  0.00  0.00    +0.272 C 
ATOM      7  C   UNL     1       1.237  -2.824  -1.153  0.00  0.00    +0.263 C 
ATOM      8  O   UNL     1       1.085  -2.425  -2.287  0.00  0.00    -0.271 OA
ATOM      9  O   UNL     1       0.505  -5.197  -1.182  0.00  0.00    -0.256 OA
ATOM     10  N   UNL     1       0.593  -6.170  -0.120  0.00  0.00    -0.264 N 
ATOM     11  C   UNL     1       0.713  -5.455   1.063  0.00  0.00    +0.080 C 
ENDROOT
BRANCH   1  16
ATOM     12  C   UNL     1      -0.017   1.377   0.010  0.00  0.00    +0.002 A 
ATOM     13  C   UNL     1       1.170   2.087   0.002  0.00  0.00    +0.002 A 
ATOM     14  C   UNL     1       2.380   1.417  -0.013  0.00  0.00    +0.022 A 
ATOM     15  C   UNL     1       2.405   0.035  -0.021  0.00  0.00    +0.063 A 
ATOM     16  C   UNL     1       1.214  -0.681  -0.014  0.00  0.00    +0.063 A 
ATOM     17  C   UNL     1       0.002  -0.004   0.002  0.00  0.00    +0.025 A 
ATOM     18 CL   UNL     1       3.924  -0.806  -0.041  0.00  0.00    -0.082 Cl
ENDBRANCH   1  16
BRANCH  11  19
ATOM     19  C   UNL     1       0.470  -5.991   2.418  0.00  0.00    +0.001 A 
ATOM     20  C   UNL     1       0.620  -5.167   3.535  0.00  0.00    +0.012 A 
ATOM     21  C   UNL     1       0.391  -5.673   4.797  0.00  0.00    +0.033 A 
ATOM     22  C   UNL     1       0.013  -6.995   4.958  0.00  0.00    +0.126 A 
ATOM     23  C   UNL     1      -0.137  -7.817   3.856  0.00  0.00    +0.033 A 
ATOM     24  C   UNL     1       0.083  -7.322   2.587  0.00  0.00    +0.012 A 
BRANCH  22  25
ATOM     25  N   UNL     1      -0.231  -7.531   6.316  0.00  0.00    +0.056 N 
ATOM     26  O   UNL     1      -0.100  -6.815   7.281  0.00  0.00    -0.126 OA
ATOM     27  O   UNL     1      -0.561  -8.685   6.460  0.00  0.00    -0.126 OA
ENDBRANCH  22  25
ENDBRANCH  11  19
TORSDOF 3
