REMARK  Name = ZINC14974914
REMARK  5 active torsions:
REMARK  status: ('A' for Active; 'I' for Inactive)
REMARK    1  A    between atoms: C_4  and  C_7
REMARK    2  A    between atoms: C_9  and  C_12
REMARK    3  A    between atoms: C_12  and  N_13
REMARK    4  A    between atoms: C_16  and  C_19
REMARK    5  A    between atoms: C_16  and  N_22
REMARK                            x       y       z     vdW  Elec       q    Type
REMARK                         _______ _______ _______ _____ _____    ______ ____
ROOT
ATOM      1  N   UNL     1      -3.458  -2.231   0.909  0.00  0.00    -0.294 NA
ATOM      2  C   UNL     1      -2.730  -2.622  -0.304  0.00  0.00    +0.084 C 
ATOM      3  C   UNL     1      -1.304  -2.071  -0.244  0.00  0.00    +0.013 C 
ATOM      4  C   UNL     1      -1.355  -0.545  -0.127  0.00  0.00    +0.015 C 
ATOM      5  C   UNL     1      -2.161  -0.164   1.119  0.00  0.00    +0.013 C 
ATOM      6  C   UNL     1      -3.562  -0.771   1.019  0.00  0.00    +0.084 C 
ENDROOT
BRANCH   4   7
ATOM      7  N   UNL     1       0.010  -0.015  -0.010  0.00  0.00    +0.389 N 
ATOM      8  C   UNL     1       0.004   1.453   0.015  0.00  0.00    -0.077 C 
ATOM      9  C   UNL     1       1.444   1.971  -0.010  0.00  0.00    -0.019 C 
ATOM     10  C   UNL     1       2.198   1.425   1.206  0.00  0.00    -0.004 C 
ATOM     11  C   UNL     1       2.148  -0.106   1.182  0.00  0.00    -0.019 C 
ATOM     12  C   UNL     1       0.688  -0.563   1.172  0.00  0.00    -0.077 C 
ATOM     13  H   UNL     1       0.575  -0.333  -0.898  0.00  0.00    -0.080 HD
ENDBRANCH   4   7
BRANCH   4  14
ATOM     14  C   UNL     1      -2.017   0.032  -1.351  0.00  0.00    +0.200 C 
ATOM     15  O   UNL     1      -3.187   0.347  -1.317  0.00  0.00    -0.278 OA
ATOM     16  N   UNL     1      -1.307   0.198  -2.485  0.00  0.00    -0.330 N 
ATOM     17  H   UNL     1      -1.790   0.620  -3.379  0.00  0.00    +0.145 HD
ATOM     18  H   UNL     1      -0.246  -0.088  -2.517  0.00  0.00    +0.145 HD
ENDBRANCH   4  14
BRANCH   1  19
ATOM     19  C   UNL     1      -4.787  -2.858   0.951  0.00  0.00    +0.183 C 
BRANCH  19  22
ATOM     20  C   UNL     1      -6.887  -1.030   3.224  0.00  0.00    +0.202 A 
ATOM     21  N   UNL     1      -6.377  -1.204   1.984  0.00  0.00    -0.190 NA
ATOM     22  C   UNL     1      -5.594  -2.251   2.069  0.00  0.00    +0.242 A 
ATOM     23  O   UNL     1      -5.649  -2.682   3.333  0.00  0.00    -0.336 OA
ATOM     24  N   UNL     1      -6.388  -1.972   3.982  0.00  0.00    -0.056 NA
BRANCH  20  28
ATOM     25  C   UNL     1      -9.606   2.009   4.432  0.00  0.00    +0.000 A 
ATOM     26  C   UNL     1      -9.162   1.076   5.352  0.00  0.00    +0.001 A 
ATOM     27  C   UNL     1      -8.279   0.087   4.965  0.00  0.00    +0.012 A 
ATOM     28  C   UNL     1      -7.836   0.030   3.646  0.00  0.00    +0.022 A 
ATOM     29  C   UNL     1      -8.281   0.976   2.725  0.00  0.00    +0.012 A 
ATOM     30  C   UNL     1      -9.168   1.957   3.121  0.00  0.00    +0.001 A 
ENDBRANCH  20  28
ENDBRANCH  19  22
ENDBRANCH   1  19
TORSDOF 5
