REMARK  Name = ZINC00706151
REMARK  13 active torsions:
REMARK  status: ('A' for Active; 'I' for Inactive)
REMARK    1  A    between atoms: C_1  and  C_2
REMARK    2  A    between atoms: C_3  and  C_24
REMARK    3  A    between atoms: C_14  and  C_18
REMARK    4  A    between atoms: C_15  and  N_17
REMARK    5  A    between atoms: C_18  and  O_20
REMARK    6  A    between atoms: O_20  and  C_21
REMARK    7  A    between atoms: C_21  and  C_22
REMARK    8  A    between atoms: C_21  and  C_23
REMARK    9  A    between atoms: C_24  and  O_26
REMARK   10  A    between atoms: O_26  and  C_27
REMARK   11  A    between atoms: C_27  and  C_28
REMARK   12  A    between atoms: C_27  and  C_29
REMARK   13  A    between atoms: C_27  and  C_30
REMARK                            x       y       z     vdW  Elec       q    Type
REMARK                         _______ _______ _______ _____ _____    ______ ____
ROOT
ATOM      1  C   UNL     1      -6.726  -3.735  -1.485  0.00  0.00    +0.087 C 
ATOM      2  C   UNL     1      -5.377  -3.229  -1.043  0.00  0.00    +0.116 C 
ATOM      3  C   UNL     1      -5.296  -2.019  -0.471  0.00  0.00    +0.098 C 
ATOM      4  C   UNL     1      -3.975  -1.470  -0.017  0.00  0.00    +0.145 C 
ATOM      5  C   UNL     1      -3.881  -1.489   1.487  0.00  0.00    -0.002 A 
ATOM      6  C   UNL     1      -3.919  -2.502   2.420  0.00  0.00    +0.007 A 
ATOM      7  C   UNL     1      -3.804  -2.206   3.767  0.00  0.00    +0.000 A 
ATOM      8  C   UNL     1      -3.652  -0.893   4.172  0.00  0.00    +0.002 A 
ATOM      9  C   UNL     1      -3.614   0.124   3.241  0.00  0.00    +0.023 A 
ATOM     10  C   UNL     1      -3.729  -0.165   1.883  0.00  0.00    +0.038 A 
ATOM     11  N   UNL     1      -3.721   0.674   0.768  0.00  0.00    -0.284 N 
ATOM     12  C   UNL     1      -3.860  -0.008  -0.383  0.00  0.00    +0.237 C 
ATOM     13  O   UNL     1      -3.888   0.461  -1.501  0.00  0.00    -0.274 OA
ATOM     14  C   UNL     1      -2.844  -2.249  -0.626  0.00  0.00    +0.117 C 
ATOM     15  C   UNL     1      -3.074  -3.459  -1.202  0.00  0.00    +0.195 C 
ATOM     16  O   UNL     1      -4.301  -4.004  -1.236  0.00  0.00    -0.446 OA
ATOM     17  H   UNL     1      -3.626   1.638   0.817  0.00  0.00    +0.155 HD
ENDROOT
BRANCH  15  18
ATOM     18  N   UNL     1      -2.025  -4.141  -1.758  0.00  0.00    -0.329 N 
ATOM     19  H   UNL     1      -1.149  -3.728  -1.809  0.00  0.00    +0.145 HD
ATOM     20  H   UNL     1      -2.159  -5.039  -2.102  0.00  0.00    +0.145 HD
ENDBRANCH  15  18
BRANCH  14  21
ATOM     21  C   UNL     1      -1.544  -1.722  -0.604  0.00  0.00    +0.342 C 
ATOM     22  O   UNL     1      -0.871  -1.802   0.409  0.00  0.00    -0.245 OA
BRANCH  21  23
ATOM     23  O   UNL     1      -1.037  -1.127  -1.705  0.00  0.00    -0.458 OA
BRANCH  23  24
ATOM     24  C   UNL     1       0.293  -0.614  -1.612  0.00  0.00    +0.171 C 
ATOM     25  C   UNL     1       0.961  -0.676  -2.987  0.00  0.00    +0.052 C 
ATOM     26  C   UNL     1       0.247   0.839  -1.133  0.00  0.00    +0.052 C 
ENDBRANCH  23  24
ENDBRANCH  21  23
ENDBRANCH  14  21
BRANCH   3  27
ATOM     27  C   UNL     1      -6.472  -1.250  -0.292  0.00  0.00    +0.341 C 
ATOM     28  O   UNL     1      -7.556  -1.719  -0.584  0.00  0.00    -0.245 OA
BRANCH  27  29
ATOM     29  O   UNL     1      -6.389   0.003   0.201  0.00  0.00    -0.456 OA
BRANCH  29  30
ATOM     30  C   UNL     1      -7.615   0.722   0.355  0.00  0.00    +0.106 C 
ATOM     31  C   UNL     1      -8.534  -0.038   1.313  0.00  0.00    +0.055 C 
ATOM     32  C   UNL     1      -7.323   2.112   0.923  0.00  0.00    +0.055 C 
ATOM     33  C   UNL     1      -8.300   0.860  -1.006  0.00  0.00    +0.055 C 
ENDBRANCH  29  30
ENDBRANCH  27  29
ENDBRANCH   3  27
TORSDOF 7
