REMARK  Name = ZINC61855502
REMARK  9 active torsions:
REMARK  status: ('A' for Active; 'I' for Inactive)
REMARK    1  A    between atoms: C_1  and  C_2
REMARK    2  A    between atoms: C_2  and  O_3
REMARK    3  A    between atoms: O_3  and  C_4
REMARK    4  A    between atoms: C_11  and  C_13
REMARK    5  A    between atoms: C_13  and  C_14
REMARK    6  A    between atoms: C_13  and  N_15
REMARK    7  A    between atoms: N_18  and  C_19
REMARK    8  A    between atoms: C_19  and  C_20
REMARK    9  A    between atoms: C_22  and  C_25
REMARK                            x       y       z     vdW  Elec       q    Type
REMARK                         _______ _______ _______ _____ _____    ______ ____
ROOT
ATOM      1  C   UNL     1       3.221  -2.429  -5.652  0.00  0.00    +0.137 C 
ATOM      2  C   UNL     1       2.205  -2.100  -6.748  0.00  0.00    +0.036 C 
ENDROOT
BRANCH   1  10
ATOM      3  C   UNL     1       0.777  -1.811  -1.336  0.00  0.00    +0.163 A 
ATOM      4  C   UNL     1       0.244  -2.667  -0.390  0.00  0.00    +0.049 A 
ATOM      5  C   UNL     1       0.346  -4.042  -0.543  0.00  0.00    +0.004 A 
ATOM      6  C   UNL     1       0.980  -4.573  -1.645  0.00  0.00    +0.012 A 
ATOM      7  C   UNL     1       1.522  -3.721  -2.608  0.00  0.00    +0.024 A 
ATOM      8  C   UNL     1       1.417  -2.330  -2.460  0.00  0.00    +0.177 A 
ATOM      9  O   UNL     1       2.015  -1.766  -3.529  0.00  0.00    -0.454 OA
ATOM     10  C   UNL     1       2.495  -2.707  -4.361  0.00  0.00    +0.126 A 
ATOM     11  C   UNL     1       2.244  -3.928  -3.870  0.00  0.00    +0.055 A 
BRANCH   3  12
ATOM     12  O   UNL     1       0.671  -0.465  -1.174  0.00  0.00    -0.489 OA
BRANCH  12  14
ATOM     13  C   UNL     1      -0.019   1.526   0.010  0.00  0.00    +0.048 C 
ATOM     14  C   UNL     1       0.002  -0.004   0.002  0.00  0.00    +0.226 C 
ENDBRANCH  12  14
ENDBRANCH   3  12
ENDBRANCH   1  10
BRANCH   1  15
ATOM     15  N   UNL     1       4.125  -1.291  -5.468  0.00  0.00    -0.290 N 
ATOM     16  C   UNL     1       5.211  -1.159  -6.255  0.00  0.00    +0.301 C 
ATOM     17  O   UNL     1       5.440  -1.984  -7.118  0.00  0.00    -0.253 OA
ATOM     18  N   UNL     1       6.043  -0.112  -6.086  0.00  0.00    -0.292 N 
ATOM     19  H   UNL     1       3.942  -0.632  -4.779  0.00  0.00    +0.151 HD
ATOM     20  H   UNL     1       5.860   0.546  -5.397  0.00  0.00    +0.151 HD
BRANCH  18  21
ATOM     21  C   UNL     1       7.223   0.031  -6.941  0.00  0.00    +0.183 C 
BRANCH  21  22
ATOM     22  C   UNL     1       7.980   1.274  -6.550  0.00  0.00    +0.154 A 
ATOM     23  C   UNL     1       8.967   1.345  -5.636  0.00  0.00    +0.072 A 
ATOM     24  C   UNL     1       9.406   2.680  -5.569  0.00  0.00    +0.081 A 
ATOM     25  N   UNL     1       8.703   3.379  -6.414  0.00  0.00    -0.083 NA
ATOM     26  O   UNL     1       7.792   2.503  -7.054  0.00  0.00    -0.358 OA
ATOM     27  C   UNL     1      10.498   3.208  -4.675  0.00  0.00    +0.069 C 
ENDBRANCH  21  22
ENDBRANCH  18  21
ENDBRANCH   1  15
TORSDOF 6
