REMARK  Name = ZINC62525421
REMARK  10 active torsions:
REMARK  status: ('A' for Active; 'I' for Inactive)
REMARK    1  A    between atoms: C_1  and  C_2
REMARK    2  A    between atoms: C_2  and  C_3
REMARK    3  A    between atoms: C_3  and  C_4
REMARK    4  A    between atoms: C_3  and  N_5
REMARK    5  A    between atoms: C_6  and  C_8
REMARK    6  A    between atoms: C_8  and  C_9
REMARK    7  A    between atoms: C_8  and  N_10
REMARK    8  A    between atoms: N_13  and  C_14
REMARK    9  A    between atoms: C_14  and  C_15
REMARK   10  A    between atoms: C_15  and  N_20
REMARK                            x       y       z     vdW  Elec       q    Type
REMARK                         _______ _______ _______ _____ _____    ______ ____
ROOT
ATOM      1  N   UNL     1       0.237   0.497  -6.155  0.00  0.00    -0.288 N 
ATOM      2  C   UNL     1       0.025   1.302  -7.215  0.00  0.00    +0.300 C 
ATOM      3  O   UNL     1      -0.993   1.964  -7.281  0.00  0.00    -0.253 OA
ATOM      4  N   UNL     1       0.940   1.373  -8.202  0.00  0.00    -0.301 N 
ATOM      5  H   UNL     1       1.049  -0.032  -6.103  0.00  0.00    +0.151 HD
ATOM      6  H   UNL     1       1.751   0.845  -8.150  0.00  0.00    +0.150 HD
ENDROOT
BRANCH   1   7
ATOM      7  C   UNL     1      -0.757   0.420  -5.083  0.00  0.00    +0.157 C 
ATOM      8  C   UNL     1      -1.833  -0.602  -5.457  0.00  0.00    +0.038 C 
BRANCH   7  10
ATOM      9  N   UNL     1      -0.808  -0.144  -2.675  0.00  0.00    -0.311 N 
ATOM     10  C   UNL     1      -0.084  -0.005  -3.803  0.00  0.00    +0.233 C 
ATOM     11  O   UNL     1       1.109  -0.222  -3.788  0.00  0.00    -0.274 OA
ATOM     12  H   UNL     1      -1.762   0.029  -2.686  0.00  0.00    +0.149 HD
BRANCH   9  13
ATOM     13  C   UNL     1      -0.154  -0.557  -1.431  0.00  0.00    +0.070 C 
ATOM     14  C   UNL     1      -0.062  -2.084  -1.385  0.00  0.00    +0.028 C 
BRANCH  13  16
ATOM     15  C   UNL     1      -0.956   1.470  -0.211  0.00  0.00    +0.005 C 
ATOM     16  C   UNL     1      -0.969  -0.059  -0.236  0.00  0.00    +0.018 C 
ENDBRANCH  13  16
ENDBRANCH   9  13
ENDBRANCH   7  10
ENDBRANCH   1   7
BRANCH   4  17
ATOM     17  C   UNL     1       0.708   2.248  -9.354  0.00  0.00    +0.094 C 
BRANCH  17  18
ATOM     18  C   UNL     1       1.890   2.143 -10.320  0.00  0.00    -0.050 C 
ATOM     19  C   UNL     1       1.629   3.008 -11.570  0.00  0.00    -0.010 C 
ATOM     20  C   UNL     1       2.348   4.345 -11.263  0.00  0.00    -0.001 C 
ATOM     21  C   UNL     1       3.631   3.883 -10.529  0.00  0.00    -0.001 C 
ATOM     22  C   UNL     1       3.163   2.699  -9.658  0.00  0.00    -0.010 C 
BRANCH  18  23
ATOM     23  N   UNL     1       2.097   0.742 -10.711  0.00  0.00    +0.386 N 
ATOM     24  C   UNL     1       3.250   0.660 -11.610  0.00  0.00    -0.067 C 
ATOM     25  C   UNL     1       3.713  -0.797 -11.732  0.00  0.00    +0.050 C 
ATOM     26  S   UNL     1       2.357  -1.767 -12.461  0.00  0.00    -0.164 S 
ATOM     27  C   UNL     1       0.930  -1.291 -11.436  0.00  0.00    +0.050 C 
ATOM     28  C   UNL     1       0.884   0.240 -11.358  0.00  0.00    -0.067 C 
ATOM     29  H   UNL     1       2.283   0.192  -9.885  0.00  0.00    -0.081 HD
ENDBRANCH  18  23
ENDBRANCH  17  18
ENDBRANCH   4  17
TORSDOF 7
