REMARK  Name = ZINC36483617
REMARK  16 active torsions:
REMARK  status: ('A' for Active; 'I' for Inactive)
REMARK    1  A    between atoms: C_1  and  C_2
REMARK    2  A    between atoms: C_2  and  C_3
REMARK    3  A    between atoms: C_2  and  C_4
REMARK    4  A    between atoms: C_2  and  C_5
REMARK    5  A    between atoms: C_5  and  C_6
REMARK    6  A    between atoms: C_6  and  C_7
REMARK    7  A    between atoms: C_6  and  C_8
REMARK    8  A    between atoms: C_6  and  N_9
REMARK    9  A    between atoms: C_10  and  C_12
REMARK   10  A    between atoms: C_12  and  C_14
REMARK   11  A    between atoms: C_12  and  N_23
REMARK   12  A    between atoms: C_15  and  O_22
REMARK   13  A    between atoms: C_17  and  O_21
REMARK   14  A    between atoms: C_19  and  O_20
REMARK   15  A    between atoms: N_23  and  C_24
REMARK   16  A    between atoms: C_31  and  C_33
REMARK                            x       y       z     vdW  Elec       q    Type
REMARK                         _______ _______ _______ _____ _____    ______ ____
ROOT
ATOM      1  C   UNL     1       5.234  -0.446  -4.281  0.00  0.00    +0.205 C 
ENDROOT
BRANCH   1   2
ATOM      2  C   UNL     1       5.175  -1.936  -4.497  0.00  0.00    +0.065 A 
ATOM      3  C   UNL     1       5.873  -2.787  -3.652  0.00  0.00    +0.129 A 
ATOM      4  C   UNL     1       5.819  -4.159  -3.851  0.00  0.00    +0.091 A 
ATOM      5  C   UNL     1       5.067  -4.679  -4.894  0.00  0.00    +0.124 A 
ATOM      6  C   UNL     1       4.369  -3.828  -5.737  0.00  0.00    +0.091 A 
ATOM      7  C   UNL     1       4.419  -2.457  -5.536  0.00  0.00    +0.129 A 
BRANCH   7   8
ATOM      8  O   UNL     1       3.731  -1.624  -6.360  0.00  0.00    -0.506 OA
ATOM      9  H   UNL     1       4.233  -1.333  -7.133  0.00  0.00    +0.292 HD
ENDBRANCH   7   8
BRANCH   5  10
ATOM     10  O   UNL     1       5.015  -6.023  -5.089  0.00  0.00    -0.507 OA
ATOM     11  H   UNL     1       4.297  -6.462  -4.613  0.00  0.00    +0.292 HD
ENDBRANCH   5  10
BRANCH   3  12
ATOM     12  O   UNL     1       6.609  -2.277  -2.631  0.00  0.00    -0.506 OA
ATOM     13  H   UNL     1       6.143  -2.250  -1.784  0.00  0.00    +0.292 HD
ENDBRANCH   3  12
ENDBRANCH   1   2
BRANCH   1  15
ATOM     14  N   UNL     1       3.331  -0.422  -2.700  0.00  0.00    -0.308 N 
ATOM     15  C   UNL     1       4.618  -0.107  -2.948  0.00  0.00    +0.239 C 
ATOM     16  O   UNL     1       5.281   0.449  -2.098  0.00  0.00    -0.273 OA
ATOM     17  H   UNL     1       2.801  -0.866  -3.380  0.00  0.00    +0.149 HD
BRANCH  14  18
ATOM     18  C   UNL     1       2.733  -0.092  -1.404  0.00  0.00    +0.030 C 
ATOM     19  C   UNL     1       2.964   1.389  -1.097  0.00  0.00    +0.031 C 
ATOM     20  C   UNL     1       3.381  -0.946  -0.311  0.00  0.00    +0.031 C 
BRANCH  18  21
ATOM     21  C   UNL     1       1.230  -0.376  -1.449  0.00  0.00    +0.031 C 
BRANCH  21  23
ATOM     22  C   UNL     1       0.909  -0.888  -3.873  0.00  0.00    +0.010 C 
ATOM     23  C   UNL     1       0.654   0.140  -2.769  0.00  0.00    -0.036 C 
ATOM     24  C   UNL     1       1.327   1.463  -3.138  0.00  0.00    +0.010 C 
ATOM     25  C   UNL     1      -0.853   0.360  -2.616  0.00  0.00    +0.010 C 
ENDBRANCH  21  23
ENDBRANCH  18  21
ENDBRANCH  14  18
ENDBRANCH   1  15
BRANCH   1  26
ATOM     26  N   UNL     1       6.630  -0.004  -4.301  0.00  0.00    -0.249 N 
ATOM     27  C   UNL     1       6.925   1.303  -4.160  0.00  0.00    +0.287 C 
ATOM     28  O   UNL     1       6.030   2.123  -4.072  0.00  0.00    -0.266 OA
BRANCH  26  29
ATOM     29  C   UNL     1       7.657  -0.939  -4.465  0.00  0.00    +0.039 A 
ATOM     30  C   UNL     1       8.535  -1.200  -3.421  0.00  0.00    +0.023 A 
ATOM     31  C   UNL     1       9.548  -2.124  -3.586  0.00  0.00    +0.003 A 
ATOM     32  C   UNL     1       9.690  -2.789  -4.790  0.00  0.00    +0.020 A 
ATOM     33  C   UNL     1       8.817  -2.532  -5.833  0.00  0.00    +0.043 A 
ATOM     34  C   UNL     1       7.798  -1.612  -5.671  0.00  0.00    +0.043 A 
ATOM     35 CL   UNL     1       8.999  -3.369  -7.343  0.00  0.00    -0.083 Cl
ENDBRANCH  26  29
BRANCH  27  36
ATOM     36  C   UNL     1       8.325   1.738  -4.112  0.00  0.00    +0.190 A 
ATOM     37  C   UNL     1       8.764   3.002  -3.840  0.00  0.00    +0.054 A 
ATOM     38  C   UNL     1      10.166   2.964  -3.900  0.00  0.00    +0.042 A 
ATOM     39  C   UNL     1      10.517   1.695  -4.203  0.00  0.00    +0.196 A 
ATOM     40  O   UNL     1       9.405   0.958  -4.324  0.00  0.00    -0.458 OA
ENDBRANCH  27  36
ENDBRANCH   1  26
TORSDOF 11
