REMARK  Name = ZINC62127811
REMARK  9 active torsions:
REMARK  status: ('A' for Active; 'I' for Inactive)
REMARK    1  A    between atoms: C_1  and  C_2
REMARK    2  A    between atoms: C_3  and  N_9
REMARK    3  A    between atoms: C_10  and  C_12
REMARK    4  A    between atoms: N_14  and  C_15
REMARK    5  A    between atoms: C_15  and  C_16
REMARK    6  A    between atoms: C_16  and  C_17
REMARK    7  A    between atoms: C_17  and  N_18
REMARK    8  A    between atoms: N_18  and  C_19
REMARK    9  A    between atoms: N_18  and  C_20
REMARK                            x       y       z     vdW  Elec       q    Type
REMARK                         _______ _______ _______ _____ _____    ______ ____
ROOT
ATOM      1  C   UNL     1       0.191   0.102  -4.864  0.00  0.00    +0.299 C 
ATOM      2  O   UNL     1       0.174   1.316  -4.855  0.00  0.00    -0.265 OA
ATOM      3  N   UNL     1       0.296  -0.562  -6.032  0.00  0.00    -0.308 N 
ATOM      4  H   UNL     1       0.310  -1.532  -6.038  0.00  0.00    +0.149 HD
ENDROOT
BRANCH   1   6
ATOM      5  N   UNL     1      -0.010   0.010  -2.412  0.00  0.00    -0.277 N 
ATOM      6  C   UNL     1       0.095  -0.655  -3.580  0.00  0.00    +0.303 C 
ATOM      7  O   UNL     1       0.112  -1.869  -3.588  0.00  0.00    -0.265 OA
ATOM      8  H   UNL     1      -0.104   0.975  -2.410  0.00  0.00    +0.155 HD
BRANCH   5  11
ATOM      9  C   UNL     1      -1.264   1.189  -0.146  0.00  0.00    +0.047 C 
ATOM     10  C   UNL     1      -0.584  -0.153  -0.073  0.00  0.00    -0.011 A 
ATOM     11  C   UNL     1       0.017  -0.692  -1.204  0.00  0.00    +0.038 A 
ATOM     12  C   UNL     1       0.643  -1.930  -1.132  0.00  0.00    +0.023 A 
ATOM     13  C   UNL     1       0.667  -2.622   0.064  0.00  0.00    +0.003 A 
ATOM     14  C   UNL     1       0.069  -2.084   1.188  0.00  0.00    +0.020 A 
ATOM     15  C   UNL     1      -0.551  -0.848   1.122  0.00  0.00    +0.046 A 
ATOM     16 CL   UNL     1      -1.294  -0.173   2.538  0.00  0.00    -0.083 Cl
ENDBRANCH   5  11
ENDBRANCH   1   6
BRANCH   3  17
ATOM     17  C   UNL     1       0.390   0.180  -7.291  0.00  0.00    +0.103 C 
BRANCH  17  18
ATOM     18  C   UNL     1       0.500  -0.805  -8.457  0.00  0.00    +0.000 C 
BRANCH  18  19
ATOM     19  C   UNL     1       0.598  -0.029  -9.772  0.00  0.00    -0.077 C 
BRANCH  19  20
ATOM     20  N   UNL     1       0.703  -0.975 -10.891  0.00  0.00    +0.380 N 
ATOM     21  C   UNL     1      -0.538  -1.755 -10.992  0.00  0.00    -0.096 C 
ATOM     22  H   UNL     1       1.480  -1.599 -10.733  0.00  0.00    -0.082 HD
BRANCH  20  23
ATOM     23  C   UNL     1       0.917  -0.233 -12.141  0.00  0.00    -0.069 C 
ATOM     24  C   UNL     1       2.209   0.579 -12.036  0.00  0.00    -0.015 C 
ATOM     25  C   UNL     1       2.433   1.352 -13.338  0.00  0.00    -0.002 C 
ATOM     26  C   UNL     1       2.542   0.367 -14.504  0.00  0.00    -0.000 C 
ATOM     27  C   UNL     1       1.250  -0.445 -14.608  0.00  0.00    -0.002 C 
ATOM     28  C   UNL     1       1.027  -1.218 -13.306  0.00  0.00    -0.015 C 
ENDBRANCH  20  23
ENDBRANCH  19  20
ENDBRANCH  18  19
ENDBRANCH  17  18
ENDBRANCH   3  17
TORSDOF 7
