REMARK  Name = ZINC02111688
REMARK  6 active torsions:
REMARK  status: ('A' for Active; 'I' for Inactive)
REMARK    1  A    between atoms: C_1  and  C_2
REMARK    2  A    between atoms: C_9  and  C_28
REMARK    3  A    between atoms: C_10  and  C_16
REMARK    4  A    between atoms: C_16  and  C_17
REMARK    5  A    between atoms: N_19  and  C_20
REMARK    6  A    between atoms: C_20  and  C_26
REMARK                            x       y       z     vdW  Elec       q    Type
REMARK                         _______ _______ _______ _____ _____    ______ ____
ROOT
ATOM      1  C   UNL     1      -0.395   7.425  10.153  0.00  0.00    +0.047 C 
ATOM      2  C   UNL     1      -1.770   7.460   9.538  0.00  0.00    -0.005 A 
ATOM      3  C   UNL     1      -2.910   7.823  10.138  0.00  0.00    +0.199 A 
ATOM      4  O   UNL     1      -3.941   7.729   9.278  0.00  0.00    -0.463 OA
ATOM      5  C   UNL     1      -3.523   7.297   8.070  0.00  0.00    +0.139 A 
ATOM      6  C   UNL     1      -2.130   7.101   8.159  0.00  0.00    +0.024 A 
ATOM      7  C   UNL     1      -1.411   6.654   7.059  0.00  0.00    +0.023 A 
ATOM      8  C   UNL     1      -2.081   6.400   5.862  0.00  0.00    +0.022 A 
ATOM      9  C   UNL     1      -1.353   5.928   4.680  0.00  0.00    -0.029 A 
ATOM     10  C   UNL     1      -2.058   5.697   3.543  0.00  0.00    +0.049 A 
ATOM     11  C   UNL     1      -3.451   5.920   3.523  0.00  0.00    +0.341 A 
ATOM     12  O   UNL     1      -4.069   5.714   2.494  0.00  0.00    -0.245 OA
ATOM     13  O   UNL     1      -4.113   6.347   4.608  0.00  0.00    -0.422 OA
ATOM     14  C   UNL     1      -3.475   6.597   5.774  0.00  0.00    +0.143 A 
ATOM     15  C   UNL     1      -4.182   7.043   6.877  0.00  0.00    +0.093 A 
ATOM     16  C   UNL     1       0.136   5.704   4.727  0.00  0.00    +0.045 C 
ENDROOT
BRANCH  10  17
ATOM     17  C   UNL     1      -1.352   5.211   2.303  0.00  0.00    +0.138 C 
BRANCH  17  18
ATOM     18  C   UNL     1      -1.332   3.704   2.295  0.00  0.00    +0.218 C 
ATOM     19  O   UNL     1      -1.840   3.086   3.206  0.00  0.00    -0.275 OA
ATOM     20  N   UNL     1      -0.749   3.044   1.275  0.00  0.00    -0.300 N 
ATOM     21  H   UNL     1      -0.342   3.539   0.546  0.00  0.00    +0.150 HD
BRANCH  20  22
ATOM     22  C   UNL     1      -0.729   1.579   1.267  0.00  0.00    +0.136 C 
ATOM     23  C   UNL     1      -0.013   1.086   0.008  0.00  0.00    +0.037 C 
ATOM     24  C   UNL     1      -0.753   1.593  -1.232  0.00  0.00    +0.003 C 
ATOM     25  C   UNL     1      -2.188   1.063  -1.221  0.00  0.00    +0.000 C 
ATOM     26  C   UNL     1      -2.904   1.556   0.038  0.00  0.00    +0.003 C 
ATOM     27  C   UNL     1      -2.164   1.050   1.278  0.00  0.00    +0.037 C 
BRANCH  22  28
ATOM     28  C   UNL     1       0.000   1.080   2.488  0.00  0.00    +0.379 C 
ATOM     29  O   UNL     1       0.675   0.080   2.422  0.00  0.00    -0.244 OA
ATOM     30  O   UNL     1      -0.100   1.746   3.649  0.00  0.00    -0.244 OA
ENDBRANCH  22  28
ENDBRANCH  20  22
ENDBRANCH  17  18
ENDBRANCH  10  17
TORSDOF 4
