REMARK  Name = ZINC49164262
REMARK  8 active torsions:
REMARK  status: ('A' for Active; 'I' for Inactive)
REMARK    1  A    between atoms: C_1  and  C_2
REMARK    2  A    between atoms: C_5  and  S_8
REMARK    3  A    between atoms: S_8  and  C_9
REMARK    4  A    between atoms: C_9  and  C_10
REMARK    5  A    between atoms: C_10  and  N_11
REMARK    6  A    between atoms: C_12  and  C_14
REMARK    7  A    between atoms: N_16  and  C_17
REMARK    8  A    between atoms: C_21  and  C_23
REMARK                            x       y       z     vdW  Elec       q    Type
REMARK                         _______ _______ _______ _____ _____    ______ ____
ROOT
ATOM      1  C   UNL     1       0.142  -8.534   5.103  0.00  0.00    +0.303 C 
ATOM      2  O   UNL     1       0.143  -7.665   5.951  0.00  0.00    -0.265 OA
ATOM      3  N   UNL     1       0.158  -9.831   5.468  0.00  0.00    -0.278 N 
ATOM      4  H   UNL     1       0.089 -10.525   4.793  0.00  0.00    +0.155 HD
ENDROOT
BRANCH   3   5
ATOM      5  C   UNL     1       0.275 -10.176   6.817  0.00  0.00    +0.035 A 
ATOM      6  C   UNL     1      -0.328  -9.388   7.791  0.00  0.00    +0.025 A 
ATOM      7  C   UNL     1      -0.215  -9.724   9.126  0.00  0.00    +0.022 A 
ATOM      8  C   UNL     1       0.497 -10.846   9.503  0.00  0.00    +0.053 A 
ATOM      9  C   UNL     1       1.106 -11.645   8.532  0.00  0.00    +0.057 A 
ATOM     10  C   UNL     1       0.987 -11.308   7.184  0.00  0.00    +0.037 A 
ATOM     11 CL   UNL     1       0.636 -11.263  11.183  0.00  0.00    -0.083 Cl
BRANCH   9  12
ATOM     12  C   UNL     1       1.869 -12.846   8.931  0.00  0.00    +0.243 C 
ATOM     13  O   UNL     1       1.968 -13.141  10.107  0.00  0.00    -0.270 OA
ATOM     14  N   UNL     1       2.456 -13.615   7.993  0.00  0.00    -0.325 N 
ATOM     15  H   UNL     1       2.377 -13.380   7.055  0.00  0.00    +0.145 HD
ATOM     16  H   UNL     1       2.956 -14.403   8.255  0.00  0.00    +0.145 HD
ENDBRANCH   9  12
ENDBRANCH   3   5
BRANCH   1  18
ATOM     17  N   UNL     1       0.104  -6.867   3.291  0.00  0.00    -0.307 N 
ATOM     18  C   UNL     1       0.121  -8.165   3.656  0.00  0.00    +0.299 C 
ATOM     19  O   UNL     1       0.119  -9.033   2.808  0.00  0.00    -0.265 OA
ATOM     20  H   UNL     1       0.105  -6.173   3.969  0.00  0.00    +0.149 HD
BRANCH  17  21
ATOM     21  C   UNL     1       0.084  -6.505   1.872  0.00  0.00    +0.115 C 
BRANCH  21  22
ATOM     22  C   UNL     1       0.068  -4.982   1.734  0.00  0.00    +0.093 C 
BRANCH  22  23
ATOM     23  S   UNL     1       0.043  -4.534  -0.023  0.00  0.00    -0.124 S 
BRANCH  23  28
ATOM     24  C   UNL     1      -0.018   1.502   0.009  0.00  0.00    +0.044 C 
ATOM     25  C   UNL     1      -0.002  -0.005   0.001  0.00  0.00    -0.050 A 
ATOM     26  C   UNL     1      -0.009  -0.688  -1.201  0.00  0.00    +0.004 A 
ATOM     27  C   UNL     1       0.005  -2.069  -1.213  0.00  0.00    +0.015 A 
ATOM     28  C   UNL     1       0.026  -2.772  -0.014  0.00  0.00    +0.008 A 
ATOM     29  C   UNL     1       0.033  -2.082   1.192  0.00  0.00    +0.015 A 
ATOM     30  C   UNL     1       0.024  -0.701   1.196  0.00  0.00    +0.004 A 
ENDBRANCH  23  28
ENDBRANCH  22  23
ENDBRANCH  21  22
ENDBRANCH  17  21
ENDBRANCH   1  18
TORSDOF 7
