REMARK  Name = ZINC48570121
REMARK  4 active torsions:
REMARK  status: ('A' for Active; 'I' for Inactive)
REMARK    1  A    between atoms: C_3  and  N_9
REMARK    2  A    between atoms: C_6  and  C_7
REMARK    3  A    between atoms: C_10  and  C_12
REMARK    4  A    between atoms: N_14  and  C_15
REMARK                            x       y       z     vdW  Elec       q    Type
REMARK                         _______ _______ _______ _____ _____    ______ ____
ROOT
ATOM      1  C   UNL     1       6.029   2.248   0.171  0.00  0.00    +0.300 C 
ATOM      2  O   UNL     1       6.007   3.462   0.177  0.00  0.00    -0.265 OA
ATOM      3  N   UNL     1       7.205   1.595   0.258  0.00  0.00    -0.302 N 
ATOM      4  H   UNL     1       7.223   0.625   0.253  0.00  0.00    +0.150 HD
ENDROOT
BRANCH   3   5
ATOM      5  C   UNL     1       8.456   2.350   0.360  0.00  0.00    +0.036 C 
ATOM      6  C   UNL     1       8.618   3.239  -0.874  0.00  0.00    +0.029 C 
ATOM      7  C   UNL     1       9.925   4.028  -0.767  0.00  0.00    -0.008 C 
ATOM      8  C   UNL     1      11.102   3.054  -0.682  0.00  0.00    +0.007 C 
ATOM      9  C   UNL     1      10.941   2.165   0.552  0.00  0.00    -0.008 C 
ATOM     10  C   UNL     1       9.634   1.377   0.445  0.00  0.00    +0.029 C 
ATOM     11  C   UNL     1      10.908   3.037   1.809  0.00  0.00    +0.007 C 
ATOM     12  C   UNL     1       9.731   4.011   1.724  0.00  0.00    -0.008 C 
ATOM     13  C   UNL     1       9.893   4.900   0.489  0.00  0.00    +0.007 C 
ATOM     14  C   UNL     1       8.424   3.222   1.617  0.00  0.00    +0.029 C 
ENDBRANCH   3   5
BRANCH   1  16
ATOM     15  N   UNL     1       3.578   2.132  -0.021  0.00  0.00    -0.278 N 
ATOM     16  C   UNL     1       4.753   1.479   0.066  0.00  0.00    +0.303 C 
ATOM     17  O   UNL     1       4.775   0.265   0.060  0.00  0.00    -0.265 OA
ATOM     18  H   UNL     1       3.564   3.099  -0.093  0.00  0.00    +0.155 HD
BRANCH  15  21
ATOM     19  C   UNL     1       1.097  -0.457   0.760  0.00  0.00    +0.020 A 
ATOM     20  C   UNL     1       2.277   0.251   0.745  0.00  0.00    +0.024 A 
ATOM     21  C   UNL     1       2.381   1.418  -0.007  0.00  0.00    +0.034 A 
ATOM     22  C   UNL     1       1.293   1.873  -0.745  0.00  0.00    +0.024 A 
ATOM     23  C   UNL     1       0.109   1.170  -0.734  0.00  0.00    +0.020 A 
ATOM     24  C   UNL     1       0.002  -0.003   0.020  0.00  0.00    +0.052 A 
BRANCH  24  25
ATOM     25  C   UNL     1      -1.228  -0.737   0.033  0.00  0.00    +0.099 C 
ATOM     26  N   UNL     1      -2.203  -1.319   0.044  0.00  0.00    -0.191 NA
ENDBRANCH  24  25
ENDBRANCH  15  21
ENDBRANCH   1  16
TORSDOF 4
