REMARK  Name = ZINC23552438
REMARK  11 active torsions:
REMARK  status: ('A' for Active; 'I' for Inactive)
REMARK    1  A    between atoms: C_1  and  C_2
REMARK    2  A    between atoms: C_2  and  C_3
REMARK    3  A    between atoms: C_3  and  N_4
REMARK    4  A    between atoms: N_4  and  C_5
REMARK    5  A    between atoms: C_6  and  N_21
REMARK    6  A    between atoms: N_7  and  C_14
REMARK    7  A    between atoms: C_14  and  C_15
REMARK    8  A    between atoms: C_22  and  C_24
REMARK    9  A    between atoms: C_24  and  O_25
REMARK   10  A    between atoms: O_25  and  C_26
REMARK   11  A    between atoms: C_29  and  N_33
REMARK                            x       y       z     vdW  Elec       q    Type
REMARK                         _______ _______ _______ _____ _____    ______ ____
ROOT
ATOM      1  C   UNL     1      -0.046   1.361  -0.014  0.00  0.00    +0.140 A 
ATOM      2  C   UNL     1       0.370   0.689  -1.145  0.00  0.00    +0.128 A 
ATOM      3  N   UNL     1       1.563   0.006  -1.119  0.00  0.00    -0.276 N 
ATOM      4  C   UNL     1       2.316  -0.008  -0.004  0.00  0.00    +0.331 A 
ATOM      5  O   UNL     1       3.367  -0.619  -0.001  0.00  0.00    -0.246 OA
ATOM      6  N   UNL     1       1.926   0.640   1.108  0.00  0.00    -0.273 N 
ATOM      7  H   UNL     1       2.557   0.616   2.009  0.00  0.00    +0.173 HD
ATOM      8  C   UNL     1       0.766   1.325   1.135  0.00  0.00    +0.277 A 
ATOM      9  O   UNL     1       0.422   1.909   2.149  0.00  0.00    -0.266 OA
ENDROOT
BRANCH   1  10
ATOM     10  N   UNL     1      -1.268   2.066  -0.007  0.00  0.00    -0.261 N 
ATOM     11  C   UNL     1      -1.271   3.410   0.110  0.00  0.00    +0.258 C 
ATOM     12  O   UNL     1      -0.231   4.005   0.300  0.00  0.00    -0.272 OA
BRANCH  10  13
ATOM     13  C   UNL     1      -2.535   1.339  -0.126  0.00  0.00    +0.114 C 
BRANCH  13  15
ATOM     14  C   UNL     1      -4.428   0.317   1.144  0.00  0.00    +0.005 C 
ATOM     15  C   UNL     1      -3.106   1.077   1.269  0.00  0.00    +0.016 C 
ENDBRANCH  13  15
ENDBRANCH  10  13
BRANCH  11  16
ATOM     16  C   UNL     1      -2.566   4.173   0.004  0.00  0.00    +0.325 C 
BRANCH  16  17
ATOM     17  O   UNL     1      -2.310   5.571   0.160  0.00  0.00    -0.481 OA
BRANCH  17  18
ATOM     18  C   UNL     1      -3.380   6.406   0.090  0.00  0.00    +0.140 A 
ATOM     19  C   UNL     1      -4.650   5.891  -0.124  0.00  0.00    +0.049 A 
ATOM     20  C   UNL     1      -5.736   6.742  -0.194  0.00  0.00    +0.036 A 
ATOM     21  C   UNL     1      -5.559   8.106  -0.052  0.00  0.00    +0.128 A 
ATOM     22  C   UNL     1      -4.294   8.622   0.162  0.00  0.00    +0.056 A 
ATOM     23  C   UNL     1      -3.204   7.775   0.238  0.00  0.00    +0.085 A 
ATOM     24 CL   UNL     1      -1.617   8.422   0.513  0.00  0.00    -0.080 Cl
BRANCH  21  25
ATOM     25  N   UNL     1      -6.724   9.014  -0.127  0.00  0.00    +0.056 N 
ATOM     26  O   UNL     1      -7.839   8.561  -0.314  0.00  0.00    -0.126 OA
ATOM     27  O   UNL     1      -6.569  10.216  -0.001  0.00  0.00    -0.126 OA
ENDBRANCH  21  25
ENDBRANCH  17  18
ENDBRANCH  16  17
ENDBRANCH  11  16
ENDBRANCH   1  10
BRANCH   2  28
ATOM     28  N   UNL     1      -0.399   0.703  -2.284  0.00  0.00    -0.343 N 
ATOM     29  H   UNL     1      -0.060   0.166  -3.183  0.00  0.00    +0.144 HD
ATOM     30  H   UNL     1      -1.352   1.252  -2.298  0.00  0.00    +0.144 HD
ENDBRANCH   2  28
BRANCH   3  31
ATOM     31  C   UNL     1       2.017  -0.712  -2.313  0.00  0.00    +0.163 C 
BRANCH  31  32
ATOM     32  C   UNL     1       1.494  -2.125  -2.279  0.00  0.00    -0.028 A 
ATOM     33  C   UNL     1       2.241  -3.124  -1.683  0.00  0.00    +0.005 A 
ATOM     34  C   UNL     1       1.759  -4.419  -1.648  0.00  0.00    +0.000 A 
ATOM     35  C   UNL     1       0.535  -4.717  -2.217  0.00  0.00    +0.000 A 
ATOM     36  C   UNL     1      -0.209  -3.719  -2.817  0.00  0.00    +0.000 A 
ATOM     37  C   UNL     1       0.270  -2.423  -2.848  0.00  0.00    +0.005 A 
ENDBRANCH  31  32
ENDBRANCH   3  31
TORSDOF 10
