REMARK  Name = ZINC39678344
REMARK  5 active torsions:
REMARK  status: ('A' for Active; 'I' for Inactive)
REMARK    1  A    between atoms: C_4  and  N_35
REMARK    2  A    between atoms: C_5  and  C_7
REMARK    3  A    between atoms: C_7  and  N_8
REMARK    4  A    between atoms: C_9  and  C_11
REMARK    5  A    between atoms: C_22  and  C_24
REMARK                            x       y       z     vdW  Elec       q    Type
REMARK                         _______ _______ _______ _____ _____    ______ ____
ROOT
ATOM      1  C   UNL     1       1.814  -4.512   2.962  0.00  0.00    +0.100 C 
ATOM      2  C   UNL     1       3.256  -4.163   3.394  0.00  0.00    +0.121 C 
ATOM      3  N   UNL     1       3.708  -5.338   4.176  0.00  0.00    -0.297 N 
ATOM      4  C   UNL     1       3.157  -6.503   3.441  0.00  0.00    +0.115 C 
ATOM      5  C   UNL     1       1.754  -6.049   2.993  0.00  0.00    -0.004 C 
ATOM      6  C   UNL     1       0.703  -6.516   3.996  0.00  0.00    -0.010 C 
ATOM      7  C   UNL     1       0.621  -8.044   3.968  0.00  0.00    -0.082 C 
ATOM      8  N   UNL     1       0.270  -8.493   2.615  0.00  0.00    +0.379 N 
ATOM      9  C   UNL     1       1.331  -8.120   1.672  0.00  0.00    -0.082 C 
ATOM     10  C   UNL     1       1.442  -6.595   1.603  0.00  0.00    -0.010 C 
ATOM     11  C   UNL     1       4.451  -5.347   5.300  0.00  0.00    +0.260 C 
ATOM     12  O   UNL     1       4.741  -6.400   5.827  0.00  0.00    -0.271 OA
ATOM     13  H   UNL     1       0.157  -9.496   2.614  0.00  0.00    -0.086 HD
ATOM     14  H   UNL     1      -0.597  -8.059   2.333  0.00  0.00    -0.086 HD
ENDROOT
BRANCH  11  15
ATOM     15  C   UNL     1       4.920  -4.048   5.903  0.00  0.00    +0.296 C 
ATOM     16  C   UNL     1       5.905  -3.361   4.947  0.00  0.00    +0.283 C 
ATOM     17  O   UNL     1       6.341  -2.140   5.555  0.00  0.00    -0.484 OA
ATOM     18  C   UNL     1       6.711  -2.206   6.863  0.00  0.00    +0.162 A 
ATOM     19  C   UNL     1       7.471  -1.182   7.409  0.00  0.00    +0.049 A 
ATOM     20  C   UNL     1       7.851  -1.234   8.736  0.00  0.00    +0.004 A 
ATOM     21  C   UNL     1       7.476  -2.306   9.524  0.00  0.00    +0.004 A 
ATOM     22  C   UNL     1       6.720  -3.330   8.986  0.00  0.00    +0.049 A 
ATOM     23  C   UNL     1       6.336  -3.285   7.654  0.00  0.00    +0.163 A 
ATOM     24  O   UNL     1       5.598  -4.306   7.137  0.00  0.00    -0.473 OA
ENDBRANCH  11  15
BRANCH   1  26
ATOM     25  N   UNL     1       0.295  -3.671   1.201  0.00  0.00    -0.311 N 
ATOM     26  C   UNL     1       1.548  -4.005   1.568  0.00  0.00    +0.218 C 
ATOM     27  O   UNL     1       2.460  -3.898   0.776  0.00  0.00    -0.275 OA
ATOM     28  H   UNL     1      -0.435  -3.756   1.834  0.00  0.00    +0.149 HD
BRANCH  25  29
ATOM     29  C   UNL     1       0.035  -3.178  -0.154  0.00  0.00    +0.141 C 
BRANCH  29  34
ATOM     30  C   UNL     1      -3.610  -3.509  -1.080  0.00  0.00    +0.000 A 
ATOM     31  C   UNL     1      -4.133  -2.326  -0.589  0.00  0.00    +0.002 A 
ATOM     32  C   UNL     1      -3.310  -1.416   0.044  0.00  0.00    +0.023 A 
ATOM     33  C   UNL     1      -1.955  -1.689   0.187  0.00  0.00    +0.034 A 
ATOM     34  C   UNL     1      -1.433  -2.877  -0.307  0.00  0.00    -0.009 A 
ATOM     35  C   UNL     1      -2.262  -3.784  -0.939  0.00  0.00    +0.007 A 
BRANCH  33  36
ATOM     36  N   UNL     1      -1.120  -0.770   0.827  0.00  0.00    -0.330 N 
ATOM     37  C   UNL     1      -0.446   0.288   0.062  0.00  0.00    +0.105 C 
ATOM     38  C   UNL     1      -0.767   1.641   0.703  0.00  0.00    +0.019 C 
ATOM     39  C   UNL     1      -0.391   1.601   2.186  0.00  0.00    +0.003 C 
ATOM     40  C   UNL     1      -1.214   0.522   2.894  0.00  0.00    +0.019 C 
ATOM     41  C   UNL     1      -0.903  -0.840   2.278  0.00  0.00    +0.105 C 
ENDBRANCH  33  36
ENDBRANCH  29  34
ENDBRANCH  25  29
ENDBRANCH   1  26
TORSDOF 5
