REMARK  Name = ZINC37715873
REMARK  3 active torsions:
REMARK  status: ('A' for Active; 'I' for Inactive)
REMARK    1  A    between atoms: C_7  and  S_11
REMARK    2  A    between atoms: S_11  and  C_12
REMARK    3  A    between atoms: C_15  and  N_18
REMARK                            x       y       z     vdW  Elec       q    Type
REMARK                         _______ _______ _______ _____ _____    ______ ____
ROOT
ATOM      1  C   UNL     1      -0.016   1.360   0.009  0.00  0.00    +0.001 A 
ATOM      2  C   UNL     1       1.168   2.091   0.002  0.00  0.00    +0.002 A 
ATOM      3  C   UNL     1       2.380   1.466  -0.013  0.00  0.00    +0.028 A 
ATOM      4  C   UNL     1       2.435   0.065  -0.021  0.00  0.00    +0.075 A 
ATOM      5  C   UNL     1       1.229  -0.676  -0.013  0.00  0.00    +0.033 A 
ATOM      6  C   UNL     1       0.002  -0.004   0.002  0.00  0.00    +0.012 A 
ATOM      7  C   UNL     1       1.313  -2.090  -0.021  0.00  0.00    +0.114 A 
ATOM      8  N   UNL     1       2.518  -2.646  -0.035  0.00  0.00    -0.228 NA
ATOM      9  C   UNL     1       3.618  -1.911  -0.043  0.00  0.00    +0.223 A 
ATOM     10  N   UNL     1       3.600  -0.599  -0.036  0.00  0.00    -0.235 NA
ENDROOT
BRANCH   7  11
ATOM     11  S   UNL     1      -0.142  -3.084  -0.011  0.00  0.00    -0.050 S 
BRANCH  11  12
ATOM     12  C   UNL     1       0.469  -4.736  -0.026  0.00  0.00    +0.103 A 
ATOM     13  C   UNL     1      -0.426  -5.801  -0.028  0.00  0.00    +0.037 A 
ATOM     14  C   UNL     1       0.064  -7.093  -0.039  0.00  0.00    +0.027 A 
ATOM     15  C   UNL     1       1.446  -7.280  -0.048  0.00  0.00    +0.043 A 
ATOM     16  C   UNL     1       2.278  -6.170  -0.045  0.00  0.00    +0.134 A 
ATOM     17  N   UNL     1       1.775  -4.950  -0.040  0.00  0.00    -0.247 NA
BRANCH  15  18
ATOM     18  N   UNL     1       1.987  -8.571  -0.059  0.00  0.00    -0.357 N 
ATOM     19  H   UNL     1       1.399  -9.342  -0.060  0.00  0.00    +0.142 HD
ATOM     20  H   UNL     1       2.949  -8.693  -0.065  0.00  0.00    +0.142 HD
ENDBRANCH  15  18
ENDBRANCH  11  12
ENDBRANCH   7  11
TORSDOF 3
