REMARK  Name = ZINC32513808
REMARK  7 active torsions:
REMARK  status: ('A' for Active; 'I' for Inactive)
REMARK    1  A    between atoms: C_2  and  C_3
REMARK    2  A    between atoms: C_3  and  N_4
REMARK    3  A    between atoms: C_7  and  C_9
REMARK    4  A    between atoms: C_18  and  N_22
REMARK    5  A    between atoms: N_22  and  C_23
REMARK    6  A    between atoms: C_23  and  C_24
REMARK    7  A    between atoms: C_24  and  N_29
REMARK                            x       y       z     vdW  Elec       q    Type
REMARK                         _______ _______ _______ _____ _____    ______ ____
ROOT
ATOM      1  N   UNL     1      -0.752  -1.672  -0.978  0.00  0.00    -0.264 N 
ATOM      2  C   UNL     1      -1.293  -1.330  -2.158  0.00  0.00    +0.043 A 
ATOM      3  C   UNL     1      -1.297  -2.441  -2.935  0.00  0.00    +0.004 A 
ATOM      4  C   UNL     1      -0.732  -3.461  -2.152  0.00  0.00    +0.151 A 
ATOM      5  N   UNL     1      -0.423  -2.918  -0.987  0.00  0.00    -0.166 NA
ATOM      6  C   UNL     1      -1.816  -2.496  -4.345  0.00  0.00    +0.023 C 
ATOM      7  C   UNL     1      -1.942  -1.059  -4.869  0.00  0.00    -0.067 C 
ATOM      8  C   UNL     1      -2.697  -0.206  -3.845  0.00  0.00    -0.009 C 
ATOM      9  C   UNL     1      -1.820   0.009  -2.606  0.00  0.00    +0.054 C 
ENDROOT
BRANCH   4  10
ATOM     10  C   UNL     1      -0.518  -4.867  -2.554  0.00  0.00    +0.267 C 
ATOM     11  O   UNL     1      -0.943  -5.265  -3.621  0.00  0.00    -0.268 OA
ATOM     12  N   UNL     1       0.147  -5.707  -1.737  0.00  0.00    -0.295 N 
ATOM     13  C   UNL     1       0.542  -5.257  -0.402  0.00  0.00    +0.119 C 
ATOM     14  C   UNL     1      -0.221  -6.062   0.656  0.00  0.00    +0.088 C 
ATOM     15  S   UNL     1       0.119  -7.830   0.398  0.00  0.00    -0.158 S 
ATOM     16  C   UNL     1      -0.307  -8.081  -1.352  0.00  0.00    +0.088 C 
ATOM     17  C   UNL     1       0.460  -7.062  -2.194  0.00  0.00    +0.119 C 
ENDBRANCH   4  10
BRANCH   7  18
ATOM     18  N   UNL     1      -2.678  -1.063  -6.140  0.00  0.00    +0.380 N 
ATOM     19  H   UNL     1      -2.225  -1.690  -6.788  0.00  0.00    -0.086 HD
ATOM     20  H   UNL     1      -3.625  -1.373  -5.979  0.00  0.00    -0.086 HD
BRANCH  18  21
ATOM     21  C   UNL     1      -2.696   0.294  -6.700  0.00  0.00    -0.095 C 
BRANCH  21  22
ATOM     22  C   UNL     1      -3.553   0.312  -7.968  0.00  0.00    -0.081 C 
ATOM     23  C   UNL     1      -2.869  -0.510  -9.080  0.00  0.00    -0.014 C 
ATOM     24  C   UNL     1      -3.175   0.278 -10.377  0.00  0.00    -0.001 C 
ATOM     25  C   UNL     1      -3.068   1.753  -9.915  0.00  0.00    -0.001 C 
ATOM     26  C   UNL     1      -3.679   1.750  -8.499  0.00  0.00    -0.014 C 
BRANCH  22  27
ATOM     27  N   UNL     1      -4.885  -0.238  -7.681  0.00  0.00    +0.382 N 
ATOM     28  C   UNL     1      -5.658  -0.315  -8.926  0.00  0.00    -0.078 C 
ATOM     29  C   UNL     1      -7.017  -0.962  -8.648  0.00  0.00    -0.019 C 
ATOM     30  C   UNL     1      -7.778  -0.116  -7.623  0.00  0.00    -0.004 C 
ATOM     31  C   UNL     1      -6.929   0.020  -6.356  0.00  0.00    -0.019 C 
ATOM     32  C   UNL     1      -5.574   0.630  -6.720  0.00  0.00    -0.078 C 
ATOM     33  H   UNL     1      -4.789  -1.163  -7.290  0.00  0.00    -0.081 HD
ENDBRANCH  22  27
ENDBRANCH  21  22
ENDBRANCH  18  21
ENDBRANCH   7  18
BRANCH   1  34
ATOM     34  C   UNL     1      -0.558  -0.760   0.153  0.00  0.00    +0.170 C 
BRANCH  34  36
ATOM     35  C   UNL     1       0.893   1.201   0.051  0.00  0.00    +0.006 C 
ATOM     36  C   UNL     1       0.795  -0.105   0.043  0.00  0.00    -0.012 C 
ENDBRANCH  34  36
ENDBRANCH   1  34
TORSDOF 7
