REMARK  Name = ZINC22619891
REMARK  10 active torsions:
REMARK  status: ('A' for Active; 'I' for Inactive)
REMARK    1  A    between atoms: C_1  and  C_2
REMARK    2  A    between atoms: C_7  and  C_8
REMARK    3  A    between atoms: N_10  and  C_11
REMARK    4  A    between atoms: C_11  and  C_12
REMARK    5  A    between atoms: C_12  and  C_14
REMARK    6  A    between atoms: C_12  and  N_21
REMARK    7  A    between atoms: N_21  and  C_22
REMARK    8  A    between atoms: N_21  and  C_23
REMARK    9  A    between atoms: C_25  and  C_29
REMARK   10  A    between atoms: C_25  and  C_30
REMARK                            x       y       z     vdW  Elec       q    Type
REMARK                         _______ _______ _______ _____ _____    ______ ____
ROOT
ATOM      1  C   UNL     1      -3.925   1.688   2.942  0.00  0.00    +0.261 C 
ATOM      2  O   UNL     1      -3.981   2.663   3.668  0.00  0.00    -0.269 OA
ATOM      3  N   UNL     1      -2.728   1.186   2.579  0.00  0.00    -0.311 N 
ATOM      4  H   UNL     1      -2.677   0.305   1.922  0.00  0.00    +0.149 HD
ENDROOT
BRANCH   1  11
ATOM      5  C   UNL     1      -6.825   2.629   3.631  0.00  0.00    +0.047 C 
ATOM      6  C   UNL     1      -6.432   1.465   2.758  0.00  0.00    -0.010 A 
ATOM      7  C   UNL     1      -7.299   0.590   2.091  0.00  0.00    +0.042 A 
ATOM      8  C   UNL     1      -6.517  -0.341   1.407  0.00  0.00    +0.028 A 
ATOM      9  N   UNL     1      -5.236  -0.048   1.636  0.00  0.00    -0.354 N 
ATOM     10  H   UNL     1      -4.442  -0.661   1.185  0.00  0.00    +0.166 HD
ATOM     11  C   UNL     1      -5.161   1.058   2.461  0.00  0.00    +0.106 A 
ATOM     12  C   UNL     1      -7.106  -1.454   0.579  0.00  0.00    +0.060 C 
ATOM     13  C   UNL     1      -8.554  -1.696   1.016  0.00  0.00    -0.023 C 
ATOM     14  C   UNL     1      -9.352  -0.388   0.993  0.00  0.00    +0.086 C 
ATOM     15  C   UNL     1      -8.768   0.549   2.039  0.00  0.00    +0.166 C 
ATOM     16  O   UNL     1      -9.464   1.214   2.778  0.00  0.00    -0.292 OA
ATOM     17  C   UNL     1      -8.563  -2.267   2.436  0.00  0.00    +0.011 C 
ATOM     18  C   UNL     1      -9.206  -2.701   0.065  0.00  0.00    +0.011 C 
ENDBRANCH   1  11
BRANCH   3  19
ATOM     19  C   UNL     1      -1.494   1.813   3.059  0.00  0.00    +0.094 C 
BRANCH  19  20
ATOM     20  C   UNL     1      -0.287   1.055   2.505  0.00  0.00    -0.020 C 
BRANCH  20  21
ATOM     21  C   UNL     1       0.980   1.771   2.897  0.00  0.00    -0.041 A 
ATOM     22  C   UNL     1       0.960   3.133   3.131  0.00  0.00    +0.003 A 
ATOM     23  C   UNL     1       2.121   3.791   3.489  0.00  0.00    +0.000 A 
ATOM     24  C   UNL     1       3.304   3.086   3.616  0.00  0.00    +0.001 A 
ATOM     25  C   UNL     1       3.326   1.724   3.383  0.00  0.00    +0.020 A 
ATOM     26  C   UNL     1       2.162   1.065   3.028  0.00  0.00    +0.043 A 
ATOM     27 CL   UNL     1       2.187  -0.648   2.742  0.00  0.00    -0.083 Cl
ENDBRANCH  20  21
BRANCH  20  28
ATOM     28  N   UNL     1      -0.379   0.989   1.040  0.00  0.00    +0.382 N 
ATOM     29  C   UNL     1       0.639   0.086   0.488  0.00  0.00    -0.096 C 
ATOM     30  C   UNL     1      -0.273   2.329   0.446  0.00  0.00    -0.096 C 
ATOM     31  H   UNL     1      -1.368   0.583   0.782  0.00  0.00    -0.082 HD
ENDBRANCH  20  28
ENDBRANCH  19  20
ENDBRANCH   3  19
TORSDOF 5
