REMARK  Name = ZINC39603902
REMARK  9 active torsions:
REMARK  status: ('A' for Active; 'I' for Inactive)
REMARK    1  A    between atoms: C_1  and  C_2
REMARK    2  A    between atoms: C_2  and  O_3
REMARK    3  A    between atoms: O_3  and  C_4
REMARK    4  A    between atoms: C_4  and  C_6
REMARK    5  A    between atoms: C_6  and  C_7
REMARK    6  A    between atoms: C_7  and  N_8
REMARK    7  A    between atoms: C_9  and  C_11
REMARK    8  A    between atoms: C_22  and  C_24
REMARK    9  A    between atoms: C_27  and  C_30
REMARK                            x       y       z     vdW  Elec       q    Type
REMARK                         _______ _______ _______ _____ _____    ______ ____
ROOT
ATOM      1  C   UNL     1       3.246  -6.317  -5.660  0.00  0.00    +0.100 C 
ATOM      2  C   UNL     1       4.647  -5.724  -5.389  0.00  0.00    +0.121 C 
ATOM      3  N   UNL     1       5.385  -6.807  -4.698  0.00  0.00    -0.296 N 
ATOM      4  C   UNL     1       4.960  -8.045  -5.394  0.00  0.00    +0.115 C 
ATOM      5  C   UNL     1       3.457  -7.840  -5.666  0.00  0.00    -0.004 C 
ATOM      6  C   UNL     1       3.082  -8.420  -7.027  0.00  0.00    -0.010 C 
ATOM      7  C   UNL     1       3.244  -9.942  -6.990  0.00  0.00    -0.082 C 
ATOM      8  N   UNL     1       2.382 -10.503  -5.942  0.00  0.00    +0.379 N 
ATOM      9  C   UNL     1       2.809 -10.012  -4.627  0.00  0.00    -0.082 C 
ATOM     10  C   UNL     1       2.628  -8.493  -4.563  0.00  0.00    -0.010 C 
ATOM     11  C   UNL     1       6.248  -6.693  -3.669  0.00  0.00    +0.247 C 
ATOM     12  O   UNL     1       6.401  -5.619  -3.120  0.00  0.00    -0.270 OA
ATOM     13  H   UNL     1       1.426 -10.224  -6.110  0.00  0.00    -0.086 HD
ATOM     14  H   UNL     1       2.444 -11.510  -5.961  0.00  0.00    -0.086 HD
ENDROOT
BRANCH  11  15
ATOM     15  C   UNL     1       7.009  -7.873  -3.208  0.00  0.00    +0.037 A 
ATOM     16  C   UNL     1       7.186  -8.968  -4.055  0.00  0.00    +0.013 A 
ATOM     17  C   UNL     1       7.898 -10.066  -3.619  0.00  0.00    +0.013 A 
ATOM     18  C   UNL     1       8.435 -10.085  -2.344  0.00  0.00    +0.055 A 
ATOM     19  C   UNL     1       8.262  -9.003  -1.498  0.00  0.00    +0.013 A 
ATOM     20  C   UNL     1       7.558  -7.896  -1.925  0.00  0.00    +0.013 A 
BRANCH  18  21
ATOM     21  C   UNL     1       9.211 -11.288  -1.873  0.00  0.00    +0.417 C 
ATOM     22  F   UNL     1      10.564 -11.123  -2.189  0.00  0.00    -0.166 F 
ATOM     23  F   UNL     1       9.068 -11.423  -0.488  0.00  0.00    -0.166 F 
ATOM     24  F   UNL     1       8.721 -12.435  -2.507  0.00  0.00    -0.166 F 
ENDBRANCH  18  21
ENDBRANCH  11  15
BRANCH   1  26
ATOM     25  N   UNL     1       0.963  -5.905  -4.801  0.00  0.00    -0.314 N 
ATOM     26  C   UNL     1       2.289  -5.924  -4.564  0.00  0.00    +0.218 C 
ATOM     27  O   UNL     1       2.713  -5.625  -3.467  0.00  0.00    -0.275 OA
ATOM     28  H   UNL     1       0.624  -6.144  -5.678  0.00  0.00    +0.149 HD
BRANCH  25  29
ATOM     29  C   UNL     1       0.033  -5.523  -3.736  0.00  0.00    +0.115 C 
BRANCH  29  30
ATOM     30  C   UNL     1      -1.401  -5.584  -4.265  0.00  0.00    +0.139 C 
BRANCH  30  31
ATOM     31  C   UNL     1      -2.358  -5.191  -3.169  0.00  0.00    +0.309 C 
ATOM     32  O   UNL     1      -1.936  -4.893  -2.077  0.00  0.00    -0.251 OA
BRANCH  31  33
ATOM     33  O   UNL     1      -3.679  -5.172  -3.406  0.00  0.00    -0.465 OA
BRANCH  33  35
ATOM     34  C   UNL     1      -5.987  -4.827  -2.778  0.00  0.00    +0.048 C 
ATOM     35  C   UNL     1      -4.527  -4.790  -2.321  0.00  0.00    +0.229 C 
ENDBRANCH  33  35
ENDBRANCH  31  33
ENDBRANCH  30  31
ENDBRANCH  29  30
ENDBRANCH  25  29
ENDBRANCH   1  26
TORSDOF 8
