REMARK  Name = ZINC38089661
REMARK  7 active torsions:
REMARK  status: ('A' for Active; 'I' for Inactive)
REMARK    1  A    between atoms: C_1  and  C_2
REMARK    2  A    between atoms: C_2  and  C_4
REMARK    3  A    between atoms: C_2  and  N_11
REMARK    4  A    between atoms: C_9  and  O_10
REMARK    5  A    between atoms: N_11  and  C_12
REMARK    6  A    between atoms: C_13  and  C_15
REMARK    7  A    between atoms: N_19  and  C_20
REMARK                            x       y       z     vdW  Elec       q    Type
REMARK                         _______ _______ _______ _____ _____    ______ ____
ROOT
ATOM      1  N   UNL     1       0.583  -0.586   1.263  0.00  0.00    -0.292 N 
ATOM      2  C   UNL     1       0.078  -0.445   2.631  0.00  0.00    +0.133 C 
ATOM      3  C   UNL     1       1.683  -1.328   1.025  0.00  0.00    +0.263 C 
ATOM      4  O   UNL     1       2.041  -1.534  -0.120  0.00  0.00    -0.268 OA
ENDROOT
BRANCH   3   5
ATOM      5  C   UNL     1       2.448  -1.886   2.144  0.00  0.00    +0.106 A 
ATOM      6  C   UNL     1       2.111  -1.811   3.479  0.00  0.00    +0.052 A 
ATOM      7  C   UNL     1       3.114  -2.474   4.194  0.00  0.00    +0.059 A 
ATOM      8  C   UNL     1       4.027  -2.932   3.303  0.00  0.00    +0.106 A 
ATOM      9  N   UNL     1       3.630  -2.585   2.053  0.00  0.00    -0.345 N 
ATOM     10  C   UNL     1       4.343  -2.900   0.813  0.00  0.00    +0.149 C 
ATOM     11 CL   UNL     1       3.179  -2.674   5.918  0.00  0.00    -0.082 Cl
ENDBRANCH   3   5
BRANCH   1  13
ATOM     12  C   UNL     1      -0.006   1.595   0.328  0.00  0.00    +0.033 C 
ATOM     13  C   UNL     1      -0.107   0.079   0.155  0.00  0.00    +0.107 C 
BRANCH  13  14
ATOM     14  C   UNL     1      -1.557  -0.331   0.148  0.00  0.00    +0.014 A 
ATOM     15  C   UNL     1      -2.516   0.513   0.674  0.00  0.00    +0.009 A 
ATOM     16  C   UNL     1      -3.847   0.137   0.668  0.00  0.00    +0.001 A 
ATOM     17  C   UNL     1      -4.221  -1.083   0.137  0.00  0.00    +0.004 A 
ATOM     18  C   UNL     1      -3.266  -1.930  -0.390  0.00  0.00    +0.046 A 
ATOM     19  C   UNL     1      -1.930  -1.554  -0.391  0.00  0.00    +0.122 A 
BRANCH  19  20
ATOM     20  O   UNL     1      -0.989  -2.383  -0.914  0.00  0.00    -0.506 OA
ATOM     21  H   UNL     1      -0.613  -3.003  -0.275  0.00  0.00    +0.292 HD
ENDBRANCH  19  20
ENDBRANCH  13  14
ENDBRANCH   1  13
TORSDOF 4
