REMARK  Name = ZINC51608528
REMARK  13 active torsions:
REMARK  status: ('A' for Active; 'I' for Inactive)
REMARK    1  A    between atoms: C_1  and  C_2
REMARK    2  A    between atoms: C_4  and  C_21
REMARK    3  A    between atoms: C_6  and  S_8
REMARK    4  A    between atoms: S_8  and  C_9
REMARK    5  A    between atoms: C_9  and  C_10
REMARK    6  A    between atoms: C_10  and  C_11
REMARK    7  A    between atoms: C_11  and  C_12
REMARK    8  A    between atoms: C_12  and  C_13
REMARK    9  A    between atoms: C_12  and  C_14
REMARK   10  A    between atoms: C_12  and  N_17
REMARK   11  A    between atoms: N_17  and  C_18
REMARK   12  A    between atoms: C_18  and  C_19
REMARK   13  A    between atoms: C_18  and  C_20
REMARK                            x       y       z     vdW  Elec       q    Type
REMARK                         _______ _______ _______ _____ _____    ______ ____
ROOT
ATOM      1  C   UNL     1      -0.084  -1.359   7.646  0.00  0.00    +0.007 C 
ATOM      2  C   UNL     1       1.037  -2.400   7.652  0.00  0.00    -0.001 C 
ENDROOT
BRANCH   1   3
ATOM      3  C   UNL     1      -1.384  -2.018   8.027  0.00  0.00    +0.199 C 
ATOM      4  O   UNL     1      -1.500  -3.223   7.944  0.00  0.00    -0.278 OA
ATOM      5  N   UNL     1      -2.418  -1.270   8.460  0.00  0.00    -0.330 N 
ATOM      6  H   UNL     1      -2.325  -0.306   8.526  0.00  0.00    +0.145 HD
ATOM      7  H   UNL     1      -3.255  -1.694   8.705  0.00  0.00    +0.145 HD
ENDBRANCH   1   3
BRANCH   1   8
ATOM      8  N   UNL     1       0.229  -0.297   8.612  0.00  0.00    +0.390 N 
ATOM      9  H   UNL     1       1.032   0.223   8.292  0.00  0.00    -0.084 HD
ATOM     10  H   UNL     1      -0.562   0.324   8.698  0.00  0.00    -0.084 HD
BRANCH   8  11
ATOM     11  C   UNL     1       0.524  -0.897   9.920  0.00  0.00    -0.077 C 
ATOM     12  C   UNL     1       1.052   0.181  10.869  0.00  0.00    -0.014 C 
ATOM     13  C   UNL     1      -0.754  -1.507  10.501  0.00  0.00    -0.014 C 
ENDBRANCH   8  11
ENDBRANCH   1   8
BRANCH   1  14
ATOM     14  C   UNL     1      -0.210  -0.753   6.247  0.00  0.00    -0.003 C 
BRANCH  14  15
ATOM     15  C   UNL     1      -0.535  -1.858   5.240  0.00  0.00    +0.010 C 
BRANCH  15  16
ATOM     16  C   UNL     1      -0.662  -1.253   3.841  0.00  0.00    +0.077 C 
BRANCH  16  17
ATOM     17  S   UNL     1      -1.048  -2.563   2.647  0.00  0.00    -0.086 S 
BRANCH  17  23
ATOM     18  C   UNL     1      -0.820   1.749  -0.099  0.00  0.00    +0.066 C 
ATOM     19  C   UNL     1      -1.042   0.259  -0.069  0.00  0.00    +0.043 A 
ATOM     20  C   UNL     1      -1.329  -0.431  -1.236  0.00  0.00    +0.046 A 
ATOM     21  C   UNL     1      -1.527  -1.801  -1.165  0.00  0.00    +0.043 A 
ATOM     22  N   UNL     1      -1.436  -2.406   0.008  0.00  0.00    -0.227 NA
ATOM     23  C   UNL     1      -1.159  -1.717   1.106  0.00  0.00    +0.189 A 
ATOM     24  N   UNL     1      -0.960  -0.407   1.071  0.00  0.00    -0.227 NA
ATOM     25  C   UNL     1      -1.842  -2.592  -2.408  0.00  0.00    +0.066 C 
ENDBRANCH  17  23
ENDBRANCH  16  17
ENDBRANCH  15  16
ENDBRANCH  14  15
ENDBRANCH   1  14
TORSDOF 8
