REMARK  Name = ZINC19414874
REMARK  9 active torsions:
REMARK  status: ('A' for Active; 'I' for Inactive)
REMARK    1  A    between atoms: C_1  and  C_2
REMARK    2  A    between atoms: C_2  and  C_4
REMARK    3  A    between atoms: C_2  and  N_15
REMARK    4  A    between atoms: C_9  and  C_12
REMARK    5  A    between atoms: C_16  and  O_18
REMARK    6  A    between atoms: O_18  and  C_19
REMARK    7  A    between atoms: C_19  and  C_20
REMARK    8  A    between atoms: C_19  and  C_21
REMARK    9  A    between atoms: C_19  and  C_22
REMARK                            x       y       z     vdW  Elec       q    Type
REMARK                         _______ _______ _______ _____ _____    ______ ____
ROOT
ATOM      1  C   UNL     1       2.426   5.523   0.510  0.00  0.00    +0.236 C 
ATOM      2  O   UNL     1       1.342   5.989   0.790  0.00  0.00    -0.274 OA
ATOM      3  N   UNL     1       3.538   6.271   0.650  0.00  0.00    -0.300 N 
ATOM      4  C   UNL     1       4.845   5.758   0.215  0.00  0.00    +0.108 C 
ATOM      5  C   UNL     1       5.831   5.859   1.377  0.00  0.00    +0.032 C 
ATOM      6  C   UNL     1       5.861   7.299   1.894  0.00  0.00    +0.078 C 
ATOM      7  C   UNL     1       4.471   7.689   2.403  0.00  0.00    +0.032 C 
ATOM      8  C   UNL     1       3.468   7.611   1.247  0.00  0.00    +0.108 C 
ENDROOT
BRANCH   6   9
ATOM      9  C   UNL     1       6.856   7.408   3.021  0.00  0.00    +0.214 C 
ATOM     10  O   UNL     1       6.490   7.762   4.121  0.00  0.00    -0.276 OA
ATOM     11  N   UNL     1       8.153   7.111   2.805  0.00  0.00    -0.329 N 
ATOM     12  H   UNL     1       8.880   7.190   3.627  0.00  0.00    +0.145 HD
ATOM     13  H   UNL     1       8.485   6.790   1.806  0.00  0.00    +0.145 HD
ENDBRANCH   6   9
BRANCH   1  15
ATOM     14  C   UNL     1       2.599   4.115  -1.524  0.00  0.00    +0.038 C 
ATOM     15  C   UNL     1       2.529   4.107   0.004  0.00  0.00    +0.159 C 
BRANCH  15  16
ATOM     16  N   UNL     1       1.352   3.348   0.436  0.00  0.00    -0.270 N 
ATOM     17  C   UNL     1       1.423   2.008   0.561  0.00  0.00    +0.401 C 
ATOM     18  O   UNL     1       2.463   1.429   0.316  0.00  0.00    -0.226 OA
ATOM     19  H   UNL     1       0.410   3.872   0.657  0.00  0.00    +0.153 HD
BRANCH  17  20
ATOM     20  O   UNL     1       0.342   1.310   0.957  0.00  0.00    -0.445 OA
BRANCH  20  21
ATOM     21  C   UNL     1       0.491  -0.130   1.070  0.00  0.00    +0.107 C 
ATOM     22  C   UNL     1       1.585  -0.450   2.091  0.00  0.00    +0.055 C 
ATOM     23  C   UNL     1      -0.832  -0.745   1.529  0.00  0.00    +0.055 C 
ATOM     24  C   UNL     1       0.879  -0.711  -0.291  0.00  0.00    +0.055 C 
ENDBRANCH  20  21
ENDBRANCH  17  20
ENDBRANCH  15  16
ENDBRANCH   1  15
TORSDOF 5
