REMARK  Name = ZINC09429142
REMARK  9 active torsions:
REMARK  status: ('A' for Active; 'I' for Inactive)
REMARK    1  A    between atoms: C_1  and  C_2
REMARK    2  A    between atoms: C_12  and  C_13
REMARK    3  A    between atoms: C_13  and  C_14
REMARK    4  A    between atoms: N_16  and  C_17
REMARK    5  A    between atoms: C_22  and  C_23
REMARK    6  A    between atoms: C_28  and  C_29
REMARK    7  A    between atoms: C_29  and  C_30
REMARK    8  A    between atoms: C_29  and  C_31
REMARK    9  A    between atoms: C_29  and  C_32
REMARK                            x       y       z     vdW  Elec       q    Type
REMARK                         _______ _______ _______ _____ _____    ______ ____
ROOT
ATOM      1  C   UNL     1      -2.637   5.329   0.107  0.00  0.00    +0.045 C 
ATOM      2  C   UNL     1      -2.566   3.824   0.082  0.00  0.00    -0.029 A 
ATOM      3  C   UNL     1      -1.274   3.131   0.071  0.00  0.00    +0.022 A 
ATOM      4  C   UNL     1      -0.079   3.850   0.082  0.00  0.00    +0.023 A 
ATOM      5  C   UNL     1       1.128   3.164   0.070  0.00  0.00    +0.025 A 
ATOM      6  C   UNL     1       1.148   1.755   0.046  0.00  0.00    +0.139 A 
ATOM      7  C   UNL     1      -0.044   1.047   0.034  0.00  0.00    +0.093 A 
ATOM      8  C   UNL     1      -1.253   1.721   0.040  0.00  0.00    +0.143 A 
ATOM      9  O   UNL     1      -2.418   1.035   0.036  0.00  0.00    -0.422 OA
ATOM     10  C   UNL     1      -3.603   1.665   0.046  0.00  0.00    +0.341 A 
ATOM     11  O   UNL     1      -4.625   1.003   0.035  0.00  0.00    -0.245 OA
ATOM     12  C   UNL     1      -3.696   3.072   0.070  0.00  0.00    +0.049 A 
ATOM     13  O   UNL     1       2.443   1.377   0.040  0.00  0.00    -0.463 OA
ATOM     14  C   UNL     1       3.257   2.447   0.058  0.00  0.00    +0.200 A 
ATOM     15  C   UNL     1       2.538   3.577   0.077  0.00  0.00    +0.003 A 
ENDROOT
BRANCH  15  16
ATOM     16  C   UNL     1       3.069   4.987   0.100  0.00  0.00    -0.009 C 
ATOM     17  C   UNL     1       4.599   4.956   0.101  0.00  0.00    +0.015 C 
ATOM     18  C   UNL     1       2.574   5.739  -1.137  0.00  0.00    +0.015 C 
ATOM     19  C   UNL     1       2.573   5.698   1.361  0.00  0.00    +0.015 C 
ENDBRANCH  15  16
BRANCH  12  20
ATOM     20  C   UNL     1      -5.047   3.740   0.081  0.00  0.00    +0.138 C 
BRANCH  20  21
ATOM     21  C   UNL     1      -5.497   3.986  -1.336  0.00  0.00    +0.222 C 
ATOM     22  O   UNL     1      -4.791   3.652  -2.264  0.00  0.00    -0.275 OA
ATOM     23  N   UNL     1      -6.685   4.577  -1.573  0.00  0.00    -0.285 N 
ATOM     24  H   UNL     1      -7.279   4.786  -0.835  0.00  0.00    +0.155 HD
BRANCH  23  25
ATOM     25  C   UNL     1      -7.061   4.888  -2.878  0.00  0.00    +0.046 A 
ATOM     26  C   UNL     1      -6.700   4.052  -3.926  0.00  0.00    +0.024 A 
ATOM     27  C   UNL     1      -7.077   4.360  -5.218  0.00  0.00    +0.002 A 
ATOM     28  C   UNL     1      -7.807   5.508  -5.480  0.00  0.00    +0.001 A 
ATOM     29  C   UNL     1      -8.169   6.352  -4.453  0.00  0.00    +0.015 A 
ATOM     30  C   UNL     1      -7.799   6.051  -3.140  0.00  0.00    +0.058 A 
BRANCH  30  31
ATOM     31  C   UNL     1      -8.183   6.952  -2.037  0.00  0.00    +0.243 C 
ATOM     32  O   UNL     1      -7.776   6.740  -0.910  0.00  0.00    -0.270 OA
ATOM     33  N   UNL     1      -8.985   8.008  -2.276  0.00  0.00    -0.325 N 
ATOM     34  H   UNL     1      -9.309   8.177  -3.175  0.00  0.00    +0.145 HD
ATOM     35  H   UNL     1      -9.237   8.600  -1.550  0.00  0.00    +0.145 HD
ENDBRANCH  30  31
ENDBRANCH  23  25
ENDBRANCH  20  21
ENDBRANCH  12  20
TORSDOF 5
