REMARK  Name = ZINC39608792
REMARK  6 active torsions:
REMARK  status: ('A' for Active; 'I' for Inactive)
REMARK    1  A    between atoms: C_1  and  C_2
REMARK    2  A    between atoms: C_6  and  C_7
REMARK    3  A    between atoms: C_11  and  C_20
REMARK    4  A    between atoms: N_22  and  C_23
REMARK    5  A    between atoms: N_27  and  C_29
REMARK    6  A    between atoms: C_29  and  C_30
REMARK                            x       y       z     vdW  Elec       q    Type
REMARK                         _______ _______ _______ _____ _____    ______ ____
ROOT
ATOM      1  C   UNL     1       0.031  -0.284   2.560  0.00  0.00    +0.254 C 
ATOM      2  O   UNL     1       0.119   0.905   2.803  0.00  0.00    -0.269 OA
ATOM      3  N   UNL     1      -0.050  -1.174   3.569  0.00  0.00    -0.296 N 
ATOM      4  C   UNL     1      -0.041  -2.653   3.478  0.00  0.00    +0.121 C 
ATOM      5  C   UNL     1       0.813  -3.113   4.682  0.00  0.00    +0.100 C 
ATOM      6  C   UNL     1       0.723  -1.955   5.691  0.00  0.00    -0.004 C 
ATOM      7  C   UNL     1      -0.162  -0.894   5.021  0.00  0.00    +0.115 C 
ATOM      8  C   UNL     1       2.111  -1.381   5.961  0.00  0.00    -0.010 C 
ATOM      9  C   UNL     1       2.004  -0.270   7.009  0.00  0.00    -0.082 C 
ATOM     10  N   UNL     1       1.428  -0.815   8.245  0.00  0.00    +0.379 N 
ATOM     11  C   UNL     1       0.058  -1.281   7.997  0.00  0.00    -0.082 C 
ATOM     12  C   UNL     1       0.084  -2.434   6.990  0.00  0.00    -0.010 C 
ATOM     13  H   UNL     1       1.992  -1.589   8.564  0.00  0.00    -0.086 HD
ATOM     14  H   UNL     1       1.415  -0.097   8.953  0.00  0.00    -0.086 HD
ENDROOT
BRANCH   1  20
ATOM     15  C   UNL     1      -0.013   1.502   0.008  0.00  0.00    +0.045 C 
ATOM     16  C   UNL     1      -0.008  -0.005  -0.000  0.00  0.00    -0.031 A 
ATOM     17  C   UNL     1      -0.017  -0.729  -1.168  0.00  0.00    +0.011 A 
ATOM     18  C   UNL     1      -0.011  -2.084  -1.104  0.00  0.00    +0.046 A 
ATOM     19  S   UNL     1       0.006  -2.418   0.543  0.00  0.00    -0.092 S 
ATOM     20  C   UNL     1       0.012  -0.749   1.170  0.00  0.00    +0.077 A 
ENDBRANCH   1  20
BRANCH   5  21
ATOM     21  C   UNL     1       0.244  -4.375   5.277  0.00  0.00    +0.218 C 
ATOM     22  O   UNL     1      -0.933  -4.634   5.138  0.00  0.00    -0.275 OA
ATOM     23  N   UNL     1       1.043  -5.216   5.963  0.00  0.00    -0.314 N 
ATOM     24  H   UNL     1       1.984  -5.009   6.074  0.00  0.00    +0.149 HD
BRANCH  23  25
ATOM     25  C   UNL     1       0.490  -6.443   6.542  0.00  0.00    +0.055 C 
ATOM     26  C   UNL     1      -0.064  -6.167   7.958  0.00  0.00    +0.002 C 
ATOM     27  C   UNL     1       0.347  -7.436   8.745  0.00  0.00    -0.077 C 
ATOM     28  N   UNL     1       1.689  -7.758   8.194  0.00  0.00    +0.384 N 
ATOM     29  C   UNL     1       1.603  -7.489   6.740  0.00  0.00    -0.056 C 
ATOM     30  H   UNL     1       2.389  -7.168   8.617  0.00  0.00    -0.081 HD
BRANCH  28  31
ATOM     31  C   UNL     1       2.007  -9.173   8.429  0.00  0.00    -0.043 C 
BRANCH  31  32
ATOM     32  C   UNL     1       2.158  -9.415   9.908  0.00  0.00    -0.064 A 
ATOM     33  C   UNL     1       3.394  -9.271  10.510  0.00  0.00    +0.002 A 
ATOM     34  C   UNL     1       3.532  -9.493  11.867  0.00  0.00    +0.000 A 
ATOM     35  C   UNL     1       2.434  -9.859  12.623  0.00  0.00    +0.000 A 
ATOM     36  C   UNL     1       1.198 -10.002  12.022  0.00  0.00    +0.000 A 
ATOM     37  C   UNL     1       1.059  -9.776  10.665  0.00  0.00    +0.002 A 
ENDBRANCH  31  32
ENDBRANCH  28  31
ENDBRANCH  23  25
ENDBRANCH   5  21
TORSDOF 5
