REMARK  Name = ZINC37555970
REMARK  5 active torsions:
REMARK  status: ('A' for Active; 'I' for Inactive)
REMARK    1  A    between atoms: C_1  and  C_2
REMARK    2  A    between atoms: N_8  and  S_9
REMARK    3  A    between atoms: S_9  and  C_12
REMARK    4  A    between atoms: C_13  and  N_20
REMARK    5  A    between atoms: N_20  and  N_21
REMARK                            x       y       z     vdW  Elec       q    Type
REMARK                         _______ _______ _______ _____ _____    ______ ____
ROOT
ATOM      1  C   UNL     1       0.047   0.243   5.101  0.00  0.00    +0.229 A 
ATOM      2  C   UNL     1       1.133   0.795   5.680  0.00  0.00    +0.180 A 
ATOM      3  N   UNL     1       0.717   1.642   6.637  0.00  0.00    -0.203 NA
ATOM      4  C   UNL     1      -0.585   1.636   6.672  0.00  0.00    +0.181 A 
ATOM      5  N   UNL     1      -1.082   0.779   5.727  0.00  0.00    -0.276 N 
ATOM      6  C   UNL     1      -2.453   0.671   5.641  0.00  0.00    +0.102 A 
ATOM      7  C   UNL     1      -3.245   1.378   6.446  0.00  0.00    +0.067 A 
ATOM      8  S   UNL     1      -2.058   2.277   7.433  0.00  0.00    -0.058 S 
ENDROOT
BRANCH   1   9
ATOM      9  S   UNL     1       0.051  -0.934   3.791  0.00  0.00    +0.120 S 
ATOM     10  O   UNL     1      -1.185  -1.632   3.868  0.00  0.00    -0.145 OA
ATOM     11  O   UNL     1       1.306  -1.599   3.845  0.00  0.00    -0.145 OA
BRANCH   9  19
ATOM     12  C   UNL     1      -0.018   1.503   0.010  0.00  0.00    +0.047 C 
ATOM     13  C   UNL     1       0.002  -0.004   0.002  0.00  0.00    -0.007 A 
ATOM     14  C   UNL     1       0.006  -0.684  -1.174  0.00  0.00    +0.008 A 
ATOM     15  C   UNL     1       0.025  -2.090  -1.165  0.00  0.00    +0.018 A 
ATOM     16  C   UNL     1       0.041  -2.765   0.004  0.00  0.00    +0.084 A 
ATOM     17  N   UNL     1       0.037  -2.099   1.193  0.00  0.00    -0.345 N 
ATOM     18  C   UNL     1       0.023  -0.726   1.219  0.00  0.00    +0.156 A 
ATOM     19  N   UNL     1       0.026  -0.085   2.369  0.00  0.00    -0.109 NA
ATOM     20  H   UNL     1       0.047  -2.598   2.025  0.00  0.00    +0.167 HD
ENDBRANCH   9  19
ENDBRANCH   1   9
BRANCH   2  21
ATOM     21  N   UNL     1       2.469   0.529   5.341  0.00  0.00    -0.265 N 
ATOM     22  H   UNL     1       2.674  -0.101   4.633  0.00  0.00    +0.168 HD
BRANCH  21  23
ATOM     23  N   UNL     1       3.481   1.159   6.009  0.00  0.00    -0.255 NA
ATOM     24  H   UNL     1       3.413   0.999   7.003  0.00  0.00    +0.140 HD
ATOM     25  H   UNL     1       4.382   0.869   5.657  0.00  0.00    +0.140 HD
ENDBRANCH  21  23
ENDBRANCH   2  21
TORSDOF 4
