REMARK  Name = ZINC36360011
REMARK  7 active torsions:
REMARK  status: ('A' for Active; 'I' for Inactive)
REMARK    1  A    between atoms: C_1  and  C_2
REMARK    2  A    between atoms: C_3  and  C_23
REMARK    3  A    between atoms: C_5  and  N_18
REMARK    4  A    between atoms: C_6  and  C_7
REMARK    5  A    between atoms: N_9  and  C_10
REMARK    6  A    between atoms: C_10  and  C_11
REMARK    7  A    between atoms: C_11  and  C_12
REMARK                            x       y       z     vdW  Elec       q    Type
REMARK                         _______ _______ _______ _____ _____    ______ ____
ROOT
ATOM      1  C   UNL     1      -0.018   1.503   0.010  0.00  0.00    +0.045 C 
ATOM      2  C   UNL     1       0.002  -0.004   0.002  0.00  0.00    -0.026 A 
ATOM      3  C   UNL     1       0.007  -0.714  -1.143  0.00  0.00    -0.008 A 
ATOM      4  S   UNL     1       0.032  -2.401  -0.578  0.00  0.00    -0.073 S 
ATOM      5  C   UNL     1       0.036  -2.156   1.082  0.00  0.00    +0.119 A 
ATOM      6  C   UNL     1       0.024  -0.777   1.221  0.00  0.00    +0.073 A 
ATOM      7  C   UNL     1      -0.007  -0.202  -2.561  0.00  0.00    +0.052 C 
ENDROOT
BRANCH   5   8
ATOM      8  N   UNL     1       0.054  -3.118   2.089  0.00  0.00    -0.193 N 
ATOM      9  C   UNL     1       0.077  -4.461   1.941  0.00  0.00    +0.251 A 
ATOM     10  N   UNL     1       0.087  -4.983   3.139  0.00  0.00    -0.116 NA
ATOM     11  N   UNL     1       0.071  -4.062   4.034  0.00  0.00    -0.023 NA
ATOM     12  N   UNL     1       0.057  -2.900   3.478  0.00  0.00    -0.039 NA
ENDBRANCH   5   8
BRANCH   6  13
ATOM     13  C   UNL     1       0.028  -0.135   2.541  0.00  0.00    +0.247 C 
ATOM     14  O   UNL     1      -1.024   0.116   3.099  0.00  0.00    -0.270 OA
ATOM     15  N   UNL     1       1.197   0.175   3.136  0.00  0.00    -0.311 N 
ATOM     16  H   UNL     1       2.035  -0.026   2.692  0.00  0.00    +0.149 HD
BRANCH  15  17
ATOM     17  C   UNL     1       1.201   0.816   4.454  0.00  0.00    +0.109 C 
BRANCH  17  18
ATOM     18  C   UNL     1       2.644   1.058   4.899  0.00  0.00    +0.049 C 
BRANCH  18  19
ATOM     19  C   UNL     1       2.648   1.717   6.254  0.00  0.00    -0.072 C 
ATOM     20  C   UNL     1       2.773   0.960   7.297  0.00  0.00    -0.028 C 
ATOM     21  C   UNL     1       2.784   1.468   8.709  0.00  0.00    +0.027 C 
ATOM     22  C   UNL     1       3.055   2.974   8.725  0.00  0.00    +0.004 C 
ATOM     23  C   UNL     1       2.109   3.648   7.723  0.00  0.00    +0.005 C 
ATOM     24  C   UNL     1       2.513   3.210   6.311  0.00  0.00    +0.030 C 
ENDBRANCH  18  19
ENDBRANCH  17  18
ENDBRANCH  15  17
ENDBRANCH   6  13
TORSDOF 5
