REMARK  Name = ZINC48891556
REMARK  6 active torsions:
REMARK  status: ('A' for Active; 'I' for Inactive)
REMARK    1  A    between atoms: C_1  and  C_2
REMARK    2  A    between atoms: C_4  and  C_18
REMARK    3  A    between atoms: C_7  and  N_8
REMARK    4  A    between atoms: N_8  and  C_9
REMARK    5  A    between atoms: N_8  and  C_10
REMARK    6  A    between atoms: C_10  and  C_11
REMARK                            x       y       z     vdW  Elec       q    Type
REMARK                         _______ _______ _______ _____ _____    ______ ____
ROOT
ATOM      1  C   UNL     1      -0.018   1.503   0.010  0.00  0.00    +0.045 C 
ATOM      2  C   UNL     1       0.002  -0.004   0.002  0.00  0.00    -0.029 A 
ATOM      3  C   UNL     1       0.006  -0.685  -1.194  0.00  0.00    +0.016 A 
ATOM      4  C   UNL     1       0.025  -2.082  -1.201  0.00  0.00    +0.012 A 
ATOM      5  C   UNL     1       0.040  -2.784   0.007  0.00  0.00    +0.013 A 
ATOM      6  C   UNL     1       0.036  -2.098   1.200  0.00  0.00    +0.024 A 
ATOM      7  C   UNL     1       0.023  -0.706   1.204  0.00  0.00    +0.033 A 
ENDROOT
BRANCH   4   8
ATOM      8  C   UNL     1       0.028  -2.816  -2.483  0.00  0.00    +0.094 C 
ATOM      9  N   UNL     1       0.046  -4.148  -2.488  0.00  0.00    -0.387 N 
ATOM     10  N   UNL     1       0.013  -2.145  -3.635  0.00  0.00    -0.345 N 
ATOM     11  H   UNL     1       0.048  -4.630  -3.330  0.00  0.00    +0.157 HD
ATOM     12  H   UNL     1      -0.000  -1.175  -3.631  0.00  0.00    +0.144 HD
ATOM     13  H   UNL     1       0.015  -2.627  -4.476  0.00  0.00    +0.144 HD
ATOM     14  H   UNL     1       0.057  -4.636  -1.650  0.00  0.00    +0.157 HD
ENDBRANCH   4   8
BRANCH   7  15
ATOM     15  N   UNL     1       0.025  -0.015   2.411  0.00  0.00    -0.328 N 
ATOM     16  C   UNL     1       1.295   0.366   3.035  0.00  0.00    +0.129 C 
BRANCH  15  17
ATOM     17  C   UNL     1      -1.242   0.332   3.059  0.00  0.00    +0.140 C 
BRANCH  17  18
ATOM     18  C   UNL     1      -1.654  -0.782   3.987  0.00  0.00    -0.029 A 
ATOM     19  C   UNL     1      -2.438  -1.819   3.516  0.00  0.00    +0.005 A 
ATOM     20  C   UNL     1      -2.815  -2.842   4.367  0.00  0.00    +0.001 A 
ATOM     21  C   UNL     1      -2.409  -2.827   5.688  0.00  0.00    +0.015 A 
ATOM     22  C   UNL     1      -1.624  -1.790   6.159  0.00  0.00    +0.018 A 
ATOM     23  C   UNL     1      -1.242  -0.770   5.306  0.00  0.00    +0.020 A 
ATOM     24 BR   UNL     1      -1.069  -1.770   7.966  0.00  0.00    -0.050 Br
ENDBRANCH  17  18
ENDBRANCH  15  17
ENDBRANCH   7  15
TORSDOF 4
