REMARK  Name = ZINC67000526
REMARK  6 active torsions:
REMARK  status: ('A' for Active; 'I' for Inactive)
REMARK    1  A    between atoms: C_10  and  C_11
REMARK    2  A    between atoms: C_10  and  O_29
REMARK    3  A    between atoms: C_11  and  N_12
REMARK    4  A    between atoms: C_13  and  C_15
REMARK    5  A    between atoms: N_17  and  C_18
REMARK    6  A    between atoms: C_21  and  N_24
REMARK                            x       y       z     vdW  Elec       q    Type
REMARK                         _______ _______ _______ _____ _____    ______ ____
ROOT
ATOM      1  N   UNL     1       5.070   1.378   0.254  0.00  0.00    -0.305 N 
ATOM      2  C   UNL     1       5.820   2.217   0.995  0.00  0.00    +0.299 C 
ATOM      3  O   UNL     1       6.362   1.817   2.004  0.00  0.00    -0.265 OA
ATOM      4  H   UNL     1       4.637   1.698  -0.552  0.00  0.00    +0.149 HD
ENDROOT
BRANCH   2   5
ATOM      5  C   UNL     1       5.984   3.641   0.574  0.00  0.00    +0.303 C 
ATOM      6  O   UNL     1       5.442   4.042  -0.435  0.00  0.00    -0.265 OA
ATOM      7  N   UNL     1       6.734   4.481   1.315  0.00  0.00    -0.278 N 
ATOM      8  H   UNL     1       7.227   4.144   2.079  0.00  0.00    +0.155 HD
BRANCH   7   9
ATOM      9  C   UNL     1       6.801   5.836   0.982  0.00  0.00    +0.034 A 
ATOM     10  C   UNL     1       7.973   6.549   1.201  0.00  0.00    +0.025 A 
ATOM     11  C   UNL     1       8.039   7.888   0.873  0.00  0.00    +0.029 A 
ATOM     12  C   UNL     1       6.933   8.523   0.323  0.00  0.00    +0.067 A 
ATOM     13  C   UNL     1       5.760   7.811   0.103  0.00  0.00    +0.029 A 
ATOM     14  C   UNL     1       5.696   6.471   0.426  0.00  0.00    +0.025 A 
BRANCH  12  15
ATOM     15  N   UNL     1       6.999   9.883  -0.011  0.00  0.00    -0.220 N 
ATOM     16  C   UNL     1       6.015  10.634  -0.542  0.00  0.00    +0.225 A 
ATOM     17  N   UNL     1       6.474  11.849  -0.704  0.00  0.00    -0.222 NA
ATOM     18  C   UNL     1       7.739  11.913  -0.289  0.00  0.00    +0.245 A 
ATOM     19  N   UNL     1       8.103  10.736   0.149  0.00  0.00    -0.154 NA
ENDBRANCH  12  15
ENDBRANCH   7   9
ENDBRANCH   2   5
BRANCH   1  20
ATOM     20  C   UNL     1       4.910  -0.019   0.667  0.00  0.00    +0.144 C 
BRANCH  20  30
ATOM     21  C   UNL     1       3.771  -4.852   0.856  0.00  0.00    +0.000 A 
ATOM     22  C   UNL     1       3.610  -3.814   1.755  0.00  0.00    +0.000 A 
ATOM     23  C   UNL     1       3.734  -2.510   1.325  0.00  0.00    +0.007 A 
ATOM     24  C   UNL     1       4.021  -2.230  -0.005  0.00  0.00    -0.011 A 
ATOM     25  C   UNL     1       4.186  -3.263  -0.900  0.00  0.00    -0.041 A 
ATOM     26  C   UNL     1       4.057  -4.576  -0.465  0.00  0.00    +0.004 A 
ATOM     27  C   UNL     1       4.513  -3.034  -2.352  0.00  0.00    +0.035 C 
ATOM     28  C   UNL     1       4.198  -1.594  -2.753  0.00  0.00    +0.008 C 
ATOM     29  C   UNL     1       4.865  -0.653  -1.743  0.00  0.00    +0.041 C 
ATOM     30  C   UNL     1       4.135  -0.783  -0.408  0.00  0.00    +0.107 C 
BRANCH  30  31
ATOM     31  O   UNL     1       2.825  -0.223  -0.531  0.00  0.00    -0.382 OA
ATOM     32  H   UNL     1       2.306  -0.255   0.284  0.00  0.00    +0.211 HD
ENDBRANCH  30  31
ENDBRANCH  20  30
ENDBRANCH   1  20
TORSDOF 6
