REMARK  Name = ZINC09695404
REMARK  12 active torsions:
REMARK  status: ('A' for Active; 'I' for Inactive)
REMARK    1  A    between atoms: C_1  and  C_2
REMARK    2  A    between atoms: C_2  and  O_3
REMARK    3  A    between atoms: O_3  and  C_4
REMARK    4  A    between atoms: C_4  and  C_6
REMARK    5  A    between atoms: C_7  and  N_36
REMARK    6  A    between atoms: C_11  and  C_35
REMARK    7  A    between atoms: C_15  and  C_31
REMARK    8  A    between atoms: C_16  and  C_18
REMARK    9  A    between atoms: C_19  and  C_30
REMARK   10  A    between atoms: N_21  and  C_24
REMARK   11  A    between atoms: C_31  and  O_33
REMARK   12  A    between atoms: O_33  and  C_34
REMARK                            x       y       z     vdW  Elec       q    Type
REMARK                         _______ _______ _______ _____ _____    ______ ____
ROOT
ATOM      1  C   UNL     1       1.199  -0.623  -0.117  0.00  0.00    +0.084 C 
ATOM      2  C   UNL     1       0.000  -0.004  -0.019  0.00  0.00    +0.106 C 
ATOM      3  N   UNL     1      -1.221  -0.680   0.101  0.00  0.00    -0.220 N 
ATOM      4  C   UNL     1      -2.397  -0.024   0.191  0.00  0.00    +0.239 C 
ATOM      5  O   UNL     1      -2.444   1.188   0.182  0.00  0.00    -0.274 OA
ATOM      6  C   UNL     1      -3.653  -0.857   0.311  0.00  0.00    +0.136 C 
ATOM      7  S   UNL     1      -2.931  -2.542   0.267  0.00  0.00    -0.096 S 
ATOM      8  C   UNL     1      -1.220  -2.062   0.112  0.00  0.00    +0.088 C 
ATOM      9  C   UNL     1      -0.102  -2.830   0.022  0.00  0.00    +0.077 C 
ATOM     10  C   UNL     1       1.240  -2.138  -0.103  0.00  0.00    +0.103 C 
ATOM     11  C   UNL     1      -4.589  -0.623  -0.876  0.00  0.00    +0.029 C 
ENDROOT
BRANCH  10  12
ATOM     12  C   UNL     1       2.107  -2.576   1.050  0.00  0.00    +0.024 A 
ATOM     13  C   UNL     1       3.272  -3.345   0.958  0.00  0.00    +0.066 A 
ATOM     14  N   UNL     1       3.747  -3.519   2.165  0.00  0.00    -0.170 NA
ATOM     15  N   UNL     1       2.895  -2.873   3.070  0.00  0.00    -0.221 N 
ATOM     16  C   UNL     1       1.891  -2.299   2.358  0.00  0.00    +0.137 A 
ATOM     17 CL   UNL     1       0.571  -1.378   3.008  0.00  0.00    -0.062 Cl
ATOM     18  C   UNL     1       3.878  -3.878  -0.314  0.00  0.00    +0.068 C 
BRANCH  15  19
ATOM     19  C   UNL     1       3.051  -2.828   4.462  0.00  0.00    +0.067 A 
ATOM     20  C   UNL     1       2.686  -1.688   5.166  0.00  0.00    +0.028 A 
ATOM     21  C   UNL     1       2.836  -1.649   6.539  0.00  0.00    +0.002 A 
ATOM     22  C   UNL     1       3.360  -2.738   7.210  0.00  0.00    +0.000 A 
ATOM     23  C   UNL     1       3.729  -3.872   6.511  0.00  0.00    +0.002 A 
ATOM     24  C   UNL     1       3.577  -3.920   5.139  0.00  0.00    +0.028 A 
ENDBRANCH  15  19
ENDBRANCH  10  12
BRANCH   2  25
ATOM     25  N   UNL     1      -0.020   1.366  -0.032  0.00  0.00    -0.345 N 
ATOM     26  H   UNL     1       0.554   1.853  -0.643  0.00  0.00    +0.143 HD
ATOM     27  H   UNL     1      -0.613   1.848   0.566  0.00  0.00    +0.143 HD
ENDBRANCH   2  25
BRANCH   1  28
ATOM     28  C   UNL     1       2.382   0.123  -0.230  0.00  0.00    +0.339 C 
ATOM     29  O   UNL     1       2.348   1.337  -0.130  0.00  0.00    -0.245 OA
BRANCH  28  30
ATOM     30  O   UNL     1       3.558  -0.504  -0.449  0.00  0.00    -0.462 OA
BRANCH  30  32
ATOM     31  C   UNL     1       5.948  -0.563  -0.799  0.00  0.00    +0.048 C 
ATOM     32  C   UNL     1       4.722   0.319  -0.553  0.00  0.00    +0.229 C 
ENDBRANCH  30  32
ENDBRANCH  28  30
ENDBRANCH   1  28
BRANCH   9  33
ATOM     33  C   UNL     1      -0.188  -4.229   0.046  0.00  0.00    +0.338 C 
ATOM     34  O   UNL     1      -1.275  -4.771   0.147  0.00  0.00    -0.245 OA
BRANCH  33  35
ATOM     35  O   UNL     1       0.933  -4.976  -0.044  0.00  0.00    -0.465 OA
ATOM     36  C   UNL     1       0.771  -6.396  -0.014  0.00  0.00    +0.280 C 
ENDBRANCH  33  35
ENDBRANCH   9  33
TORSDOF 8
