REMARK  Name = ZINC00135402
REMARK  8 active torsions:
REMARK  status: ('A' for Active; 'I' for Inactive)
REMARK    1  A    between atoms: C_1  and  C_2
REMARK    2  A    between atoms: C_2  and  O_3
REMARK    3  A    between atoms: O_3  and  C_4
REMARK    4  A    between atoms: C_9  and  C_10
REMARK    5  A    between atoms: C_20  and  C_26
REMARK    6  A    between atoms: C_21  and  C_22
REMARK    7  A    between atoms: C_22  and  O_24
REMARK    8  A    between atoms: O_24  and  C_25
REMARK                            x       y       z     vdW  Elec       q    Type
REMARK                         _______ _______ _______ _____ _____    ______ ____
ROOT
ATOM      1  C   UNL     1       1.221  -2.178   0.104  0.00  0.00    +0.096 C 
ATOM      2  C   UNL     1       0.648  -2.646  -1.210  0.00  0.00    +0.024 C 
ATOM      3  C   UNL     1      -0.604  -3.147  -1.277  0.00  0.00    +0.015 C 
ATOM      4  C   UNL     1      -1.181  -3.623  -2.587  0.00  0.00    +0.051 C 
ATOM      5  C   UNL     1      -0.583  -2.809  -3.738  0.00  0.00    +0.014 C 
ATOM      6  C   UNL     1       0.940  -2.973  -3.707  0.00  0.00    +0.080 C 
ATOM      7  C   UNL     1       1.452  -2.544  -2.359  0.00  0.00    +0.162 C 
ATOM      8  O   UNL     1       2.579  -2.102  -2.262  0.00  0.00    -0.292 OA
ATOM      9  N   UNL     1      -1.377  -3.237  -0.151  0.00  0.00    -0.321 N 
ATOM     10  C   UNL     1      -0.805  -3.215   1.090  0.00  0.00    +0.016 C 
ATOM     11  C   UNL     1       0.434  -2.723   1.260  0.00  0.00    +0.065 C 
ATOM     12  C   UNL     1      -1.568  -3.746   2.276  0.00  0.00    +0.061 C 
ATOM     13  H   UNL     1      -2.470  -3.329  -0.240  0.00  0.00    +0.152 HD
ENDROOT
BRANCH   1  19
ATOM     14  C   UNL     1       2.370   0.046   0.260  0.00  0.00    +0.125 A 
ATOM     15  C   UNL     1       2.336   1.432   0.302  0.00  0.00    +0.046 A 
ATOM     16  C   UNL     1       1.126   2.095   0.233  0.00  0.00    +0.004 A 
ATOM     17  C   UNL     1      -0.051   1.377   0.123  0.00  0.00    +0.001 A 
ATOM     18  C   UNL     1      -0.020  -0.004   0.082  0.00  0.00    +0.008 A 
ATOM     19  C   UNL     1       1.188  -0.672   0.150  0.00  0.00    +0.006 A 
BRANCH  14  20
ATOM     20  O   UNL     1       3.559  -0.609   0.328  0.00  0.00    -0.492 OA
BRANCH  20  22
ATOM     21  C   UNL     1       5.967  -0.711   0.504  0.00  0.00    +0.048 C 
ATOM     22  C   UNL     1       4.736   0.195   0.441  0.00  0.00    +0.225 C 
ENDBRANCH  20  22
ENDBRANCH  14  20
ENDBRANCH   1  19
BRANCH  11  23
ATOM     23  C   UNL     1       1.008  -2.719   2.553  0.00  0.00    +0.337 C 
ATOM     24  O   UNL     1       0.344  -3.059   3.514  0.00  0.00    -0.245 OA
BRANCH  23  25
ATOM     25  O   UNL     1       2.292  -2.339   2.720  0.00  0.00    -0.465 OA
ATOM     26  C   UNL     1       2.806  -2.359   4.053  0.00  0.00    +0.280 C 
ENDBRANCH  23  25
ENDBRANCH  11  23
TORSDOF 5
