REMARK  Name = ZINC65623101
REMARK  9 active torsions:
REMARK  status: ('A' for Active; 'I' for Inactive)
REMARK    1  A    between atoms: C_1  and  C_2
REMARK    2  A    between atoms: C_2  and  C_3
REMARK    3  A    between atoms: C_2  and  C_4
REMARK    4  A    between atoms: C_4  and  N_5
REMARK    5  A    between atoms: N_8  and  N_9
REMARK    6  A    between atoms: C_10  and  C_12
REMARK    7  A    between atoms: C_12  and  N_13
REMARK    8  A    between atoms: C_14  and  C_16
REMARK    9  A    between atoms: C_16  and  C_17
REMARK                            x       y       z     vdW  Elec       q    Type
REMARK                         _______ _______ _______ _____ _____    ______ ____
ROOT
ATOM      1  C   UNL     1      -3.193   1.742  -5.740  0.00  0.00    +0.201 C 
ENDROOT
BRANCH   1   3
ATOM      2  N   UNL     1      -3.316   0.589  -3.555  0.00  0.00    -0.232 N 
ATOM      3  C   UNL     1      -3.934   0.943  -4.699  0.00  0.00    +0.246 C 
ATOM      4  O   UNL     1      -5.087   0.620  -4.891  0.00  0.00    -0.273 OA
ATOM      5  H   UNL     1      -2.394   0.848  -3.402  0.00  0.00    +0.173 HD
BRANCH   2   9
ATOM      6  N   UNL     1      -2.105  -0.148  -1.230  0.00  0.00    -0.298 N 
ATOM      7  C   UNL     1      -3.387  -0.508  -1.443  0.00  0.00    +0.316 C 
ATOM      8  O   UNL     1      -3.985  -1.153  -0.604  0.00  0.00    -0.251 OA
ATOM      9  N   UNL     1      -4.005  -0.154  -2.587  0.00  0.00    -0.218 N 
ATOM     10  H   UNL     1      -1.628   0.366  -1.901  0.00  0.00    +0.150 HD
ATOM     11  H   UNL     1      -4.927  -0.413  -2.741  0.00  0.00    +0.174 HD
BRANCH   6  12
ATOM     12  C   UNL     1      -1.433  -0.534   0.013  0.00  0.00    +0.108 C 
BRANCH  12  14
ATOM     13  C   UNL     1      -0.019   1.526   0.010  0.00  0.00    +0.009 C 
ATOM     14  C   UNL     1       0.002  -0.004   0.002  0.00  0.00    -0.000 C 
ATOM     15  C   UNL     1       0.742  -0.511   1.242  0.00  0.00    +0.009 C 
ENDBRANCH  12  14
ENDBRANCH   6  12
ENDBRANCH   2   9
ENDBRANCH   1   3
BRANCH   1  16
ATOM     16  N   UNL     1      -4.077   1.998  -6.880  0.00  0.00    -0.307 N 
ATOM     17  C   UNL     1      -3.625   2.700  -7.939  0.00  0.00    +0.214 C 
ATOM     18  O   UNL     1      -2.487   3.119  -7.947  0.00  0.00    -0.276 OA
ATOM     19  H   UNL     1      -4.987   1.662  -6.873  0.00  0.00    +0.149 HD
BRANCH  17  20
ATOM     20  C   UNL     1      -4.534   2.962  -9.111  0.00  0.00    +0.102 C 
BRANCH  20  21
ATOM     21  C   UNL     1      -3.782   3.773 -10.168  0.00  0.00    -0.020 C 
ATOM     22  C   UNL     1      -3.331   5.105  -9.564  0.00  0.00    +0.011 C 
ATOM     23  C   UNL     1      -2.578   5.915 -10.621  0.00  0.00    -0.010 C 
ATOM     24  C   UNL     1      -3.501   6.183 -11.811  0.00  0.00    +0.007 C 
ATOM     25  C   UNL     1      -3.952   4.851 -12.416  0.00  0.00    -0.010 C 
ATOM     26  C   UNL     1      -4.705   4.040 -11.359  0.00  0.00    +0.011 C 
ATOM     27  C   UNL     1      -2.728   4.064 -12.886  0.00  0.00    +0.007 C 
ATOM     28  C   UNL     1      -1.804   3.797 -11.695  0.00  0.00    -0.010 C 
ATOM     29  C   UNL     1      -1.353   5.128 -11.091  0.00  0.00    +0.007 C 
ATOM     30  C   UNL     1      -2.557   2.986 -10.639  0.00  0.00    +0.011 C 
ENDBRANCH  20  21
ENDBRANCH  17  20
ENDBRANCH   1  16
TORSDOF 7
