REMARK  Name = ZINC31652739
REMARK  10 active torsions:
REMARK  status: ('A' for Active; 'I' for Inactive)
REMARK    1  A    between atoms: C_1  and  N_2
REMARK    2  A    between atoms: N_2  and  C_3
REMARK    3  A    between atoms: C_3  and  C_4
REMARK    4  A    between atoms: N_7  and  C_9
REMARK    5  A    between atoms: C_15  and  C_17
REMARK    6  A    between atoms: C_20  and  N_23
REMARK    7  A    between atoms: C_27  and  C_30
REMARK    8  A    between atoms: C_30  and  C_31
REMARK    9  A    between atoms: C_31  and  O_33
REMARK   10  A    between atoms: O_33  and  C_34
REMARK                            x       y       z     vdW  Elec       q    Type
REMARK                         _______ _______ _______ _____ _____    ______ ____
ROOT
ATOM      1  C   UNL     1      -0.109   0.024  -2.466  0.00  0.00    +0.037 A 
ATOM      2  C   UNL     1       0.089   1.407  -2.475  0.00  0.00    +0.015 A 
ATOM      3  C   UNL     1       0.070   2.096  -3.667  0.00  0.00    +0.028 A 
ATOM      4  C   UNL     1      -0.145   1.415  -4.862  0.00  0.00    +0.067 A 
ATOM      5  C   UNL     1      -0.343   0.038  -4.856  0.00  0.00    +0.028 A 
ATOM      6  C   UNL     1      -0.320  -0.657  -3.667  0.00  0.00    +0.015 A 
ENDROOT
BRANCH   4   7
ATOM      7  N   UNL     1      -0.164   2.115  -6.067  0.00  0.00    -0.219 N 
ATOM      8  C   UNL     1       0.018   3.442  -6.219  0.00  0.00    +0.272 A 
ATOM      9  O   UNL     1       0.228   4.246  -5.328  0.00  0.00    -0.266 OA
ATOM     10  C   UNL     1      -0.079   3.732  -7.599  0.00  0.00    +0.095 A 
ATOM     11  C   UNL     1      -0.317   2.577  -8.254  0.00  0.00    +0.049 A 
ATOM     12  N   UNL     1      -0.368   1.565  -7.339  0.00  0.00    -0.294 N 
ATOM     13  H   UNL     1      -0.522   0.627  -7.536  0.00  0.00    +0.187 HD
BRANCH  11  14
ATOM     14  C   UNL     1      -0.490   2.429  -9.744  0.00  0.00    +0.175 C 
BRANCH  14  15
ATOM     15  C   UNL     1       0.828   2.050 -10.368  0.00  0.00    +0.313 C 
ATOM     16  O   UNL     1       1.808   1.915  -9.674  0.00  0.00    -0.250 OA
BRANCH  15  17
ATOM     17  O   UNL     1       0.913   1.863 -11.694  0.00  0.00    -0.468 OA
ATOM     18  C   UNL     1       2.194   1.505 -12.218  0.00  0.00    +0.280 C 
ENDBRANCH  15  17
ENDBRANCH  14  15
ENDBRANCH  11  14
ENDBRANCH   4   7
BRANCH   1  21
ATOM     19  C   UNL     1      -1.246   1.155  -0.145  0.00  0.00    +0.132 C 
ATOM     20  N   UNL     1      -0.579  -0.146  -0.071  0.00  0.00    -0.296 N 
ATOM     21  C   UNL     1      -0.089  -0.717  -1.189  0.00  0.00    +0.247 C 
ATOM     22  O   UNL     1       0.370  -1.842  -1.147  0.00  0.00    -0.270 OA
BRANCH  20  23
ATOM     23  C   UNL     1      -0.444  -0.828   1.219  0.00  0.00    +0.146 C 
BRANCH  23  24
ATOM     24  C   UNL     1      -1.642  -1.712   1.448  0.00  0.00    +0.008 A 
ATOM     25  C   UNL     1      -2.835  -1.337   2.076  0.00  0.00    +0.140 A 
ATOM     26  N   UNL     1      -3.636  -2.371   2.087  0.00  0.00    -0.174 NA
ATOM     27  N   UNL     1      -2.978  -3.441   1.465  0.00  0.00    -0.240 N 
ATOM     28  C   UNL     1      -1.758  -3.008   1.076  0.00  0.00    +0.119 A 
BRANCH  27  29
ATOM     29  C   UNL     1      -3.497  -4.729   1.276  0.00  0.00    +0.065 A 
ATOM     30  C   UNL     1      -2.731  -5.701   0.646  0.00  0.00    +0.028 A 
ATOM     31  C   UNL     1      -3.244  -6.970   0.460  0.00  0.00    +0.002 A 
ATOM     32  C   UNL     1      -4.519  -7.273   0.902  0.00  0.00    +0.000 A 
ATOM     33  C   UNL     1      -5.284  -6.308   1.530  0.00  0.00    +0.002 A 
ATOM     34  C   UNL     1      -4.774  -5.038   1.722  0.00  0.00    +0.028 A 
ENDBRANCH  27  29
ENDBRANCH  23  24
ENDBRANCH  20  23
ENDBRANCH   1  21
TORSDOF 8
