REMARK  Name = ZINC20088921
REMARK  8 active torsions:
REMARK  status: ('A' for Active; 'I' for Inactive)
REMARK    1  A    between atoms: C_1  and  C_2
REMARK    2  A    between atoms: C_5  and  O_21
REMARK    3  A    between atoms: C_6  and  N_8
REMARK    4  A    between atoms: N_8  and  C_9
REMARK    5  A    between atoms: C_9  and  C_11
REMARK    6  A    between atoms: C_9  and  C_12
REMARK    7  A    between atoms: C_16  and  N_18
REMARK    8  A    between atoms: O_21  and  C_22
REMARK                            x       y       z     vdW  Elec       q    Type
REMARK                         _______ _______ _______ _____ _____    ______ ____
ROOT
ATOM      1  N   UNL     1      -1.127   5.817   0.930  0.00  0.00    -0.334 N 
ATOM      2  H   UNL     1      -1.992   5.173   1.145  0.00  0.00    +0.147 HD
ENDROOT
BRANCH   1   8
ATOM      3  C   UNL     1       1.333  10.030   1.534  0.00  0.00    +0.044 C 
ATOM      4  C   UNL     1       0.147   9.148   1.827  0.00  0.00    -0.048 A 
ATOM      5  C   UNL     1      -0.850   9.593   2.676  0.00  0.00    +0.007 A 
ATOM      6  C   UNL     1      -1.940   8.788   2.950  0.00  0.00    +0.048 A 
ATOM      7  C   UNL     1      -2.037   7.533   2.373  0.00  0.00    +0.141 A 
ATOM      8  C   UNL     1      -1.034   7.084   1.516  0.00  0.00    +0.070 A 
ATOM      9  C   UNL     1       0.060   7.895   1.251  0.00  0.00    +0.030 A 
BRANCH   7  10
ATOM     10  O   UNL     1      -3.109   6.740   2.641  0.00  0.00    -0.493 OA
ATOM     11  C   UNL     1      -4.098   7.265   3.528  0.00  0.00    +0.277 C 
ENDBRANCH   7  10
ENDBRANCH   1   8
BRANCH   1  12
ATOM     12  C   UNL     1      -0.070   5.347   0.030  0.00  0.00    +0.098 C 
ATOM     13  C   UNL     1      -0.342   5.860  -1.386  0.00  0.00    +0.033 C 
BRANCH  12  14
ATOM     14  C   UNL     1      -0.050   3.840   0.022  0.00  0.00    -0.025 A 
ATOM     15  C   UNL     1      -1.238   3.133   0.030  0.00  0.00    +0.005 A 
ATOM     16  C   UNL     1      -1.219   1.751   0.017  0.00  0.00    +0.003 A 
ATOM     17  C   UNL     1      -0.013   1.076   0.008  0.00  0.00    +0.033 A 
ATOM     18  C   UNL     1       1.175   1.783   0.000  0.00  0.00    +0.127 A 
ATOM     19  C   UNL     1       1.156   3.166   0.008  0.00  0.00    +0.038 A 
BRANCH  18  20
ATOM     20  N   UNL     1       2.467   1.060  -0.016  0.00  0.00    +0.056 N 
ATOM     21  O   UNL     1       2.483  -0.157  -0.023  0.00  0.00    -0.126 OA
ATOM     22  O   UNL     1       3.513   1.684  -0.022  0.00  0.00    -0.126 OA
ENDBRANCH  18  20
ENDBRANCH  12  14
ENDBRANCH   1  12
TORSDOF 5
