REMARK  Name = ZINC16578225
REMARK  11 active torsions:
REMARK  status: ('A' for Active; 'I' for Inactive)
REMARK    1  A    between atoms: C_1  and  C_2
REMARK    2  A    between atoms: C_2  and  O_29
REMARK    3  A    between atoms: C_6  and  O_10
REMARK    4  A    between atoms: C_11  and  C_19
REMARK    5  A    between atoms: C_13  and  C_15
REMARK    6  A    between atoms: C_15  and  O_17
REMARK    7  A    between atoms: O_17  and  C_18
REMARK    8  A    between atoms: C_22  and  C_25
REMARK    9  A    between atoms: C_25  and  C_26
REMARK   10  A    between atoms: C_25  and  C_27
REMARK   11  A    between atoms: C_25  and  C_28
REMARK                            x       y       z     vdW  Elec       q    Type
REMARK                         _______ _______ _______ _____ _____    ______ ____
ROOT
ATOM      1  C   UNL     1       0.758   1.995   0.213  0.00  0.00    +0.042 C 
ATOM      2  C   UNL     1       1.469   0.702  -0.192  0.00  0.00    +0.082 C 
ATOM      3  C   UNL     1       2.979   0.955  -0.280  0.00  0.00    +0.090 C 
ATOM      4  C   UNL     1       3.508   1.165   1.117  0.00  0.00    +0.046 A 
ATOM      5  C   UNL     1       2.837   0.820   2.244  0.00  0.00    +0.044 A 
ATOM      6  C   UNL     1       3.631   1.166   3.341  0.00  0.00    +0.235 A 
ATOM      7  N   UNL     1       4.741   1.700   2.885  0.00  0.00    -0.136 NA
ATOM      8  H   UNL     1       5.367   2.043   0.885  0.00  0.00    +0.189 HD
ATOM      9  N   UNL     1       4.682   1.707   1.483  0.00  0.00    -0.278 N 
ATOM     10  C   UNL     1       1.474   0.175   2.254  0.00  0.00    +0.072 C 
ATOM     11  C   UNL     1       1.192  -0.382   0.853  0.00  0.00    +0.141 C 
ENDROOT
BRANCH  10  12
ATOM     12  C   UNL     1       1.451  -0.947   3.261  0.00  0.00    -0.039 A 
ATOM     13  C   UNL     1       2.557  -1.761   3.414  0.00  0.00    +0.004 A 
ATOM     14  C   UNL     1       2.536  -2.789   4.338  0.00  0.00    +0.004 A 
ATOM     15  C   UNL     1       1.408  -3.004   5.107  0.00  0.00    -0.042 A 
ATOM     16  C   UNL     1       0.301  -2.189   4.954  0.00  0.00    +0.004 A 
ATOM     17  C   UNL     1       0.325  -1.158   4.034  0.00  0.00    +0.004 A 
BRANCH  15  18
ATOM     18  C   UNL     1       1.384  -4.126   6.113  0.00  0.00    -0.013 C 
ATOM     19  C   UNL     1       2.498  -3.914   7.140  0.00  0.00    +0.015 C 
ATOM     20  C   UNL     1       0.030  -4.144   6.825  0.00  0.00    +0.015 C 
ATOM     21  C   UNL     1       1.600  -5.460   5.395  0.00  0.00    +0.015 C 
ENDBRANCH  15  18
ENDBRANCH  10  12
BRANCH   6  22
ATOM     22  O   UNL     1       3.310   0.983   4.650  0.00  0.00    -0.491 OA
ATOM     23  H   UNL     1       3.593   0.131   5.009  0.00  0.00    +0.294 HD
ENDBRANCH   6  22
BRANCH  11  24
ATOM     24  C   UNL     1       2.084  -1.568   0.595  0.00  0.00    +0.314 C 
ATOM     25  O   UNL     1       3.283  -1.458   0.704  0.00  0.00    -0.250 OA
BRANCH  24  26
ATOM     26  O   UNL     1       1.548  -2.748   0.244  0.00  0.00    -0.468 OA
ATOM     27  C   UNL     1       2.453  -3.829   0.015  0.00  0.00    +0.280 C 
ENDBRANCH  24  26
ENDBRANCH  11  24
BRANCH   2  28
ATOM     28  O   UNL     1       0.984   0.271  -1.465  0.00  0.00    -0.388 OA
ATOM     29  H   UNL     1       1.125   0.909  -2.177  0.00  0.00    +0.210 HD
ENDBRANCH   2  28
TORSDOF 6
