REMARK  Name = ZINC41151409
REMARK  8 active torsions:
REMARK  status: ('A' for Active; 'I' for Inactive)
REMARK    1  A    between atoms: C_1  and  C_2
REMARK    2  A    between atoms: C_3  and  C_9
REMARK    3  A    between atoms: C_4  and  C_8
REMARK    4  A    between atoms: N_5  and  C_7
REMARK    5  A    between atoms: C_11  and  C_14
REMARK    6  A    between atoms: C_14  and  C_15
REMARK    7  A    between atoms: C_14  and  C_16
REMARK    8  A    between atoms: C_14  and  N_17
REMARK                            x       y       z     vdW  Elec       q    Type
REMARK                         _______ _______ _______ _____ _____    ______ ____
ROOT
ATOM      1  C   UNL     1      -0.006  -0.372  -2.550  0.00  0.00    +0.262 A 
ATOM      2  N   UNL     1      -0.020   0.879  -2.957  0.00  0.00    -0.193 NA
ATOM      3  C   UNL     1      -0.029   0.923  -4.291  0.00  0.00    +0.160 A 
ATOM      4  N   UNL     1      -0.020  -0.293  -4.759  0.00  0.00    -0.062 NA
ATOM      5  O   UNL     1       0.000  -1.163  -3.637  0.00  0.00    -0.333 OA
ENDROOT
BRANCH   1   8
ATOM      6  C   UNL     1      -0.018   1.503   0.010  0.00  0.00    +0.068 C 
ATOM      7  C   UNL     1       0.002  -0.004   0.002  0.00  0.00    +0.073 A 
ATOM      8  C   UNL     1       0.008  -0.827  -1.145  0.00  0.00    +0.083 A 
ATOM      9  C   UNL     1       0.029  -2.135  -0.710  0.00  0.00    +0.048 A 
ATOM     10  N   UNL     1       0.035  -2.111   0.635  0.00  0.00    -0.271 N 
ATOM     11  N   UNL     1       0.023  -0.776   1.054  0.00  0.00    -0.176 NA
ATOM     12  C   UNL     1       0.055  -3.284   1.513  0.00  0.00    +0.172 C 
ATOM     13  C   UNL     1       0.042  -3.365  -1.580  0.00  0.00    +0.066 C 
ENDBRANCH   1   8
BRANCH   3  14
ATOM     14  C   UNL     1      -0.046   2.179  -5.123  0.00  0.00    -0.012 C 
ATOM     15  C   UNL     1      -0.051   1.808  -6.607  0.00  0.00    -0.003 C 
ATOM     16  C   UNL     1      -1.301   2.991  -4.796  0.00  0.00    -0.003 C 
BRANCH  14  17
ATOM     17  N   UNL     1       1.147   2.982  -4.824  0.00  0.00    +0.386 N 
ATOM     18  H   UNL     1       1.975   2.447  -5.040  0.00  0.00    -0.089 HD
ATOM     19  H   UNL     1       1.136   3.823  -5.381  0.00  0.00    -0.089 HD
ATOM     20  H   UNL     1       1.151   3.227  -3.845  0.00  0.00    -0.089 HD
ENDBRANCH  14  17
ENDBRANCH   3  14
TORSDOF 3
