REMARK  Name = ZINC57043382
REMARK  10 active torsions:
REMARK  status: ('A' for Active; 'I' for Inactive)
REMARK    1  A    between atoms: C_1  and  C_2
REMARK    2  A    between atoms: C_2  and  C_4
REMARK    3  A    between atoms: C_2  and  C_23
REMARK    4  A    between atoms: C_4  and  N_5
REMARK    5  A    between atoms: N_8  and  N_9
REMARK    6  A    between atoms: C_10  and  C_12
REMARK    7  A    between atoms: C_12  and  C_14
REMARK    8  A    between atoms: C_12  and  O_15
REMARK    9  A    between atoms: O_15  and  C_16
REMARK   10  A    between atoms: C_23  and  N_24
REMARK                            x       y       z     vdW  Elec       q    Type
REMARK                         _______ _______ _______ _____ _____    ______ ____
ROOT
ATOM      1  N   UNL     1       2.183  -0.888   0.875  0.00  0.00    -0.298 N 
ATOM      2  C   UNL     1       3.274  -1.123   1.631  0.00  0.00    +0.316 C 
ATOM      3  O   UNL     1       3.171  -1.750   2.668  0.00  0.00    -0.251 OA
ATOM      4  N   UNL     1       4.478  -0.663   1.238  0.00  0.00    -0.218 N 
ATOM      5  H   UNL     1       2.265  -0.388   0.048  0.00  0.00    +0.150 HD
ATOM      6  H   UNL     1       5.263  -0.832   1.782  0.00  0.00    +0.174 HD
ENDROOT
BRANCH   4   7
ATOM      7  N   UNL     1       4.596   0.060   0.043  0.00  0.00    -0.230 N 
ATOM      8  C   UNL     1       5.800   0.520  -0.350  0.00  0.00    +0.270 C 
ATOM      9  O   UNL     1       6.782   0.308   0.330  0.00  0.00    -0.270 OA
ATOM     10  H   UNL     1       3.811   0.229  -0.501  0.00  0.00    +0.173 HD
BRANCH   8  11
ATOM     11  C   UNL     1       5.927   1.296  -1.635  0.00  0.00    +0.257 C 
ATOM     12  C   UNL     1       5.583   0.388  -2.817  0.00  0.00    +0.062 C 
BRANCH  11  13
ATOM     13  O   UNL     1       7.268   1.772  -1.774  0.00  0.00    -0.477 OA
BRANCH  13  14
ATOM     14  C   UNL     1       7.455   2.876  -2.545  0.00  0.00    +0.157 A 
ATOM     15  C   UNL     1       6.390   3.422  -3.245  0.00  0.00    +0.048 A 
ATOM     16  C   UNL     1       6.582   4.545  -4.028  0.00  0.00    +0.004 A 
ATOM     17  C   UNL     1       7.834   5.123  -4.115  0.00  0.00    +0.003 A 
ATOM     18  C   UNL     1       8.899   4.581  -3.419  0.00  0.00    +0.042 A 
ATOM     19  C   UNL     1       8.711   3.462  -2.628  0.00  0.00    +0.165 A 
ATOM     20  F   UNL     1       9.750   2.936  -1.943  0.00  0.00    -0.202 F 
ENDBRANCH  13  14
ENDBRANCH  11  13
ENDBRANCH   8  11
ENDBRANCH   4   7
BRANCH   1  21
ATOM     21  C   UNL     1       0.874  -1.388   1.302  0.00  0.00    +0.107 C 
BRANCH  21  23
ATOM     22  C   UNL     1      -0.323   0.536   0.249  0.00  0.00    +0.007 C 
ATOM     23  C   UNL     1      -0.185  -0.988   0.274  0.00  0.00    -0.014 C 
BRANCH  23  24
ATOM     24  C   UNL     1      -1.528  -1.615   0.654  0.00  0.00    -0.074 C 
BRANCH  24  25
ATOM     25  N   UNL     1      -2.519  -1.322  -0.391  0.00  0.00    +0.380 N 
ATOM     26  C   UNL     1      -3.840  -1.789   0.046  0.00  0.00    -0.079 C 
ATOM     27  C   UNL     1      -4.890  -1.415  -1.003  0.00  0.00    -0.019 C 
ATOM     28  C   UNL     1      -4.528  -2.075  -2.337  0.00  0.00    -0.004 C 
ATOM     29  C   UNL     1      -3.118  -1.639  -2.745  0.00  0.00    -0.019 C 
ATOM     30  C   UNL     1      -2.134  -2.005  -1.632  0.00  0.00    -0.079 C 
ATOM     31  H   UNL     1      -2.552  -0.327  -0.552  0.00  0.00    -0.082 HD
ENDBRANCH  24  25
ENDBRANCH  23  24
ENDBRANCH  21  23
ENDBRANCH   1  21
TORSDOF 8
