REMARK  Name = ZINC04757938
REMARK  6 active torsions:
REMARK  status: ('A' for Active; 'I' for Inactive)
REMARK    1  A    between atoms: C_1  and  C_2
REMARK    2  A    between atoms: C_9  and  C_11
REMARK    3  A    between atoms: C_13  and  C_18
REMARK    4  A    between atoms: C_15  and  N_17
REMARK    5  A    between atoms: C_18  and  C_20
REMARK    6  A    between atoms: C_26  and  N_54
REMARK                            x       y       z     vdW  Elec       q    Type
REMARK                         _______ _______ _______ _____ _____    ______ ____
ROOT
ATOM      1  C   UNL     1      -1.327  -0.821  -2.019  0.00  0.00    +0.039 A 
ATOM      2  C   UNL     1      -1.823  -1.644  -3.027  0.00  0.00    +0.024 A 
ATOM      3  C   UNL     1      -1.663  -3.028  -2.934  0.00  0.00    +0.018 A 
ATOM      4  C   UNL     1      -1.007  -3.581  -1.829  0.00  0.00    +0.034 A 
ATOM      5  C   UNL     1      -0.516  -2.756  -0.829  0.00  0.00    +0.026 A 
ATOM      6  C   UNL     1      -0.669  -1.379  -0.923  0.00  0.00    +0.035 A 
ENDROOT
BRANCH   1  14
ATOM      7  C   UNL     1      -1.680   3.296  -2.518  0.00  0.00    +0.028 C 
ATOM      8  C   UNL     1      -1.743   2.841  -1.058  0.00  0.00    +0.073 C 
ATOM      9  C   UNL     1      -3.049   3.326  -0.421  0.00  0.00    +0.022 C 
ATOM     10  C   UNL     1      -3.167   2.751   0.992  0.00  0.00    +0.003 C 
ATOM     11  C   UNL     1      -3.200   1.222   0.925  0.00  0.00    +0.019 C 
ATOM     12  C   UNL     1      -1.897   0.714   0.300  0.00  0.00    +0.108 C 
ATOM     13  N   UNL     1      -1.704   1.373  -0.998  0.00  0.00    -0.295 N 
ATOM     14  C   UNL     1      -1.494   0.646  -2.113  0.00  0.00    +0.247 C 
ATOM     15  O   UNL     1      -1.441   1.195  -3.196  0.00  0.00    -0.270 OA
ENDBRANCH   1  14
BRANCH   5  16
ATOM     16  N   UNL     1       0.139  -3.311   0.273  0.00  0.00    -0.358 N 
ATOM     17  H   UNL     1       0.250  -4.273   0.338  0.00  0.00    +0.142 HD
ATOM     18  H   UNL     1       0.483  -2.735   0.974  0.00  0.00    +0.142 HD
ENDBRANCH   5  16
BRANCH   3  19
ATOM     19  C   UNL     1      -2.185  -3.903  -3.996  0.00  0.00    +0.150 C 
ATOM     20  O   UNL     1      -2.754  -3.423  -4.953  0.00  0.00    -0.294 OA
BRANCH  19  21
ATOM     21  C   UNL     1      -2.012  -5.397  -3.894  0.00  0.00    +0.004 C 
ATOM     22  C   UNL     1      -3.074  -5.970  -2.952  0.00  0.00    -0.008 C 
ATOM     23  C   UNL     1      -2.907  -7.490  -2.868  0.00  0.00    -0.003 C 
ATOM     24  C   UNL     1      -3.018  -8.087  -4.273  0.00  0.00    -0.019 C 
ATOM     25  C   UNL     1      -1.959  -7.452  -5.177  0.00  0.00    -0.078 C 
ATOM     26  C   UNL     1      -1.250  -5.372  -6.192  0.00  0.00    -0.095 C 
ATOM     27  N   UNL     1      -2.189  -5.993  -5.236  0.00  0.00    +0.385 N 
ATOM     28  H   UNL     1      -3.150  -5.820  -5.553  0.00  0.00    -0.081 HD
ENDBRANCH  19  21
ENDBRANCH   3  19
TORSDOF 4
