REMARK  Name = ZINC33888404
REMARK  6 active torsions:
REMARK  status: ('A' for Active; 'I' for Inactive)
REMARK    1  A    between atoms: C_3  and  O_36
REMARK    2  A    between atoms: C_6  and  C_7
REMARK    3  A    between atoms: C_7  and  C_8
REMARK    4  A    between atoms: C_8  and  C_33
REMARK    5  A    between atoms: C_13  and  C_16
REMARK    6  A    between atoms: N_24  and  C_27
REMARK                            x       y       z     vdW  Elec       q    Type
REMARK                         _______ _______ _______ _____ _____    ______ ____
ROOT
ATOM      1  C   UNL     1      -1.746  -1.027  -1.429  0.00  0.00    +0.052 C 
ATOM      2  C   UNL     1      -3.029  -1.884  -1.446  0.00  0.00    +0.086 C 
ATOM      3  C   UNL     1      -2.863  -2.823  -2.671  0.00  0.00    +0.077 C 
ATOM      4  C   UNL     1      -1.504  -2.434  -3.288  0.00  0.00    -0.020 C 
ATOM      5  N   UNL     1      -0.738  -1.842  -2.153  0.00  0.00    +0.396 N 
ATOM      6  C   UNL     1      -2.767  -4.198  -2.047  0.00  0.00    +0.225 C 
ATOM      7  O   UNL     1      -2.629  -5.236  -2.658  0.00  0.00    -0.275 OA
ATOM      8  N   UNL     1      -2.858  -4.089  -0.717  0.00  0.00    -0.239 N 
ATOM      9  C   UNL     1      -3.015  -2.824  -0.262  0.00  0.00    +0.225 C 
ATOM     10  O   UNL     1      -3.124  -2.491   0.899  0.00  0.00    -0.275 OA
ATOM     11  H   UNL     1       0.005  -1.255  -2.502  0.00  0.00    -0.083 HD
ATOM     12  H   UNL     1      -0.367  -2.562  -1.551  0.00  0.00    -0.083 HD
ENDROOT
BRANCH   4  13
ATOM     13  C   UNL     1      -0.791  -3.657  -3.804  0.00  0.00    -0.022 A 
ATOM     14  C   UNL     1      -0.698  -4.118  -5.075  0.00  0.00    +0.011 A 
ATOM     15  C   UNL     1       0.017  -5.276  -5.318  0.00  0.00    +0.028 A 
ATOM     16  C   UNL     1       0.603  -5.917  -4.276  0.00  0.00    +0.078 A 
ATOM     17  S   UNL     1       0.156  -4.871  -2.900  0.00  0.00    -0.083 S 
ATOM     18 CL   UNL     1       1.549  -7.373  -4.281  0.00  0.00    -0.076 Cl
ENDBRANCH   4  13
BRANCH   8  19
ATOM     19  C   UNL     1      -2.800  -5.247   0.178  0.00  0.00    +0.084 C 
ATOM     20  C   UNL     1      -1.462  -5.966  -0.004  0.00  0.00    +0.023 C 
ATOM     21  C   UNL     1      -1.401  -7.175   0.932  0.00  0.00    +0.002 C 
ATOM     22  C   UNL     1      -2.546  -8.135   0.599  0.00  0.00    +0.000 C 
ATOM     23  C   UNL     1      -3.884  -7.416   0.781  0.00  0.00    +0.002 C 
ATOM     24  C   UNL     1      -3.944  -6.207  -0.154  0.00  0.00    +0.023 C 
ENDBRANCH   8  19
BRANCH   1  25
ATOM     25  C   UNL     1      -1.976   0.280  -2.143  0.00  0.00    +0.347 C 
ATOM     26  O   UNL     1      -1.324   0.555  -3.136  0.00  0.00    -0.248 OA
ATOM     27  O   UNL     1      -2.813   1.063  -1.728  0.00  0.00    -0.248 OA
ENDBRANCH   1  25
BRANCH   1  28
ATOM     28  C   UNL     1      -1.293  -0.774   0.011  0.00  0.00    +0.035 C 
BRANCH  28  34
ATOM     29  C   UNL     1      -0.017   1.378   0.010  0.00  0.00    +0.007 A 
ATOM     30  C   UNL     1       1.169   2.087   0.002  0.00  0.00    +0.045 A 
ATOM     31  C   UNL     1       2.380   1.409  -0.013  0.00  0.00    +0.117 A 
ATOM     32  C   UNL     1       2.396   0.022  -0.021  0.00  0.00    +0.045 A 
ATOM     33  C   UNL     1       1.207  -0.681  -0.013  0.00  0.00    +0.007 A 
ATOM     34  C   UNL     1       0.002  -0.004   0.002  0.00  0.00    -0.048 A 
BRANCH  31  35
ATOM     35  O   UNL     1       3.548   2.104  -0.021  0.00  0.00    -0.507 OA
ATOM     36  H   UNL     1       3.895   2.300   0.860  0.00  0.00    +0.292 HD
ENDBRANCH  31  35
ENDBRANCH  28  34
ENDBRANCH   1  28
TORSDOF 6
