REMARK  Name = ZINC03265666
REMARK  3 active torsions:
REMARK  status: ('A' for Active; 'I' for Inactive)
REMARK    1  A    between atoms: C_2  and  C_10
REMARK    2  A    between atoms: C_5  and  O_8
REMARK    3  A    between atoms: N_11  and  N_12
REMARK                            x       y       z     vdW  Elec       q    Type
REMARK                         _______ _______ _______ _____ _____    ______ ____
ROOT
ATOM      1  C   UNL     1       1.204   1.109  -0.004  0.00  0.00    +0.140 C 
ATOM      2  N   UNL     1       0.823  -0.132  -0.006  0.00  0.00    -0.179 NA
ENDROOT
BRANCH   2   3
ATOM      3  N   UNL     1      -0.542  -0.446   0.005  0.00  0.00    -0.249 N 
ATOM      4  C   UNL     1      -0.946  -1.761   0.002  0.00  0.00    +0.187 C 
ATOM      5  N   UNL     1      -2.287  -2.069   0.013  0.00  0.00    -0.370 N 
ATOM      6  H   UNL     1      -1.203   0.264   0.015  0.00  0.00    +0.192 HD
ATOM      7  H   UNL     1      -0.243  -3.673  -0.015  0.00  0.00    +0.159 HD
ATOM      8  H   UNL     1      -2.947  -1.359   0.023  0.00  0.00    +0.159 HD
ATOM      9  H   UNL     1      -2.571  -2.997   0.011  0.00  0.00    +0.159 HD
ATOM     10  N   UNL     1       0.005  -2.684  -0.012  0.00  0.00    -0.370 N 
ATOM     11  H   UNL     1       0.993  -2.403  -0.020  0.00  0.00    +0.159 HD
ENDBRANCH   2   3
BRANCH   1  13
ATOM     12  C   UNL     1       3.052   2.774  -0.012  0.00  0.00    +0.028 A 
ATOM     13  C   UNL     1       2.640   1.439  -0.015  0.00  0.00    -0.003 A 
ATOM     14  C   UNL     1       3.594   0.418  -0.024  0.00  0.00    +0.028 A 
ATOM     15  C   UNL     1       4.937   0.732  -0.039  0.00  0.00    +0.061 A 
ATOM     16  C   UNL     1       5.342   2.060  -0.036  0.00  0.00    +0.145 A 
ATOM     17  C   UNL     1       4.397   3.079  -0.023  0.00  0.00    +0.061 A 
ATOM     18 BR   UNL     1       4.957   4.885  -0.019  0.00  0.00    -0.046 Br
ATOM     19 BR   UNL     1       6.229  -0.649  -0.058  0.00  0.00    -0.046 Br
BRANCH  16  20
ATOM     20  O   UNL     1       6.667   2.365  -0.047  0.00  0.00    -0.505 OA
ATOM     21  H   UNL     1       7.058   2.449   0.834  0.00  0.00    +0.292 HD
ENDBRANCH  16  20
ENDBRANCH   1  13
TORSDOF 3
