REMARK  Name = ZINC58148326
REMARK  6 active torsions:
REMARK  status: ('A' for Active; 'I' for Inactive)
REMARK    1  A    between atoms: C_1  and  C_2
REMARK    2  A    between atoms: C_4  and  C_23
REMARK    3  A    between atoms: C_7  and  N_8
REMARK    4  A    between atoms: N_8  and  S_9
REMARK    5  A    between atoms: S_9  and  C_12
REMARK    6  A    between atoms: C_25  and  C_28
REMARK                            x       y       z     vdW  Elec       q    Type
REMARK                         _______ _______ _______ _____ _____    ______ ____
ROOT
ATOM      1  N   UNL     1       0.025  -0.013   2.412  0.00  0.00    -0.216 N 
ATOM      2  H   UNL     1      -0.525   0.780   2.505  0.00  0.00    +0.174 HD
ENDROOT
BRANCH   1   9
ATOM      3  C   UNL     1       0.152   1.695   0.146  0.00  0.00    +0.046 C 
ATOM      4  C   UNL     1       0.260   0.197   0.023  0.00  0.00    -0.027 A 
ATOM      5  C   UNL     1       0.432  -0.381  -1.216  0.00  0.00    +0.018 A 
ATOM      6  C   UNL     1       0.533  -1.770  -1.329  0.00  0.00    +0.040 A 
ATOM      7  C   UNL     1       0.459  -2.569  -0.184  0.00  0.00    +0.015 A 
ATOM      8  C   UNL     1       0.288  -1.985   1.050  0.00  0.00    +0.025 A 
ATOM      9  C   UNL     1       0.193  -0.601   1.161  0.00  0.00    +0.051 A 
BRANCH   6  10
ATOM     10  C   UNL     1       0.716  -2.392  -2.655  0.00  0.00    +0.258 A 
ATOM     11  N   UNL     1       0.819  -3.681  -2.896  0.00  0.00    -0.192 NA
ATOM     12  C   UNL     1       0.976  -3.888  -4.205  0.00  0.00    +0.169 A 
ATOM     13  N   UNL     1       0.976  -2.741  -4.822  0.00  0.00    -0.061 NA
ATOM     14  O   UNL     1       0.801  -1.742  -3.829  0.00  0.00    -0.333 OA
ATOM     15  C   UNL     1       1.129  -5.235  -4.865  0.00  0.00    +0.091 C 
ENDBRANCH   6  10
ENDBRANCH   1   9
BRANCH   1  16
ATOM     16  S   UNL     1       0.763  -0.670   3.741  0.00  0.00    +0.072 S 
ATOM     17  O   UNL     1       0.518   0.219   4.822  0.00  0.00    -0.150 OA
ATOM     18  O   UNL     1       0.387  -2.039   3.780  0.00  0.00    -0.150 OA
BRANCH  16  19
ATOM     19  C   UNL     1       2.499  -0.633   3.443  0.00  0.00    +0.110 A 
ATOM     20  C   UNL     1       3.115  -1.703   2.820  0.00  0.00    +0.032 A 
ATOM     21  C   UNL     1       4.477  -1.682   2.582  0.00  0.00    +0.049 A 
ATOM     22  C   UNL     1       5.228  -0.585   2.969  0.00  0.00    +0.142 A 
ATOM     23  C   UNL     1       4.607   0.493   3.598  0.00  0.00    +0.078 A 
ATOM     24  C   UNL     1       3.242   0.468   3.828  0.00  0.00    +0.055 A 
ATOM     25  N   UNL     1       5.380   1.597   3.987  0.00  0.00    -0.280 N 
ATOM     26  C   UNL     1       6.622   1.739   3.477  0.00  0.00    +0.255 C 
ATOM     27  O   UNL     1       7.320   2.668   3.824  0.00  0.00    -0.272 OA
ATOM     28  C   UNL     1       7.138   0.737   2.476  0.00  0.00    +0.325 C 
ATOM     29  O   UNL     1       6.568  -0.547   2.743  0.00  0.00    -0.481 OA
ATOM     30  H   UNL     1       5.027   2.248   4.613  0.00  0.00    +0.155 HD
ENDBRANCH  16  19
ENDBRANCH   1  16
TORSDOF 4
