REMARK  Name = ZINC38581245
REMARK  16 active torsions:
REMARK  status: ('A' for Active; 'I' for Inactive)
REMARK    1  A    between atoms: C_1  and  C_2
REMARK    2  A    between atoms: C_3  and  C_11
REMARK    3  A    between atoms: C_7  and  O_10
REMARK    4  A    between atoms: C_11  and  S_12
REMARK    5  A    between atoms: S_12  and  C_13
REMARK    6  A    between atoms: C_16  and  C_18
REMARK    7  A    between atoms: C_18  and  C_20
REMARK    8  A    between atoms: C_18  and  N_24
REMARK    9  A    between atoms: C_20  and  C_21
REMARK   10  A    between atoms: C_21  and  C_22
REMARK   11  A    between atoms: C_21  and  C_23
REMARK   12  A    between atoms: C_25  and  O_27
REMARK   13  A    between atoms: O_27  and  C_28
REMARK   14  A    between atoms: C_28  and  C_29
REMARK   15  A    between atoms: C_28  and  C_30
REMARK   16  A    between atoms: C_28  and  C_31
REMARK                            x       y       z     vdW  Elec       q    Type
REMARK                         _______ _______ _______ _____ _____    ______ ____
ROOT
ATOM      1  C   UNL     1      -5.129   0.669  -1.088  0.00  0.00    +0.278 A 
ATOM      2  N   UNL     1      -5.728   1.234  -0.066  0.00  0.00    -0.101 NA
ATOM      3  N   UNL     1      -6.794   1.828  -0.473  0.00  0.00    -0.110 NA
ATOM      4  C   UNL     1      -6.918   1.668  -1.758  0.00  0.00    +0.238 A 
ATOM      5  O   UNL     1      -5.868   0.937  -2.181  0.00  0.00    -0.414 OA
ENDROOT
BRANCH   1   6
ATOM      6  S   UNL     1      -3.634  -0.261  -1.039  0.00  0.00    -0.061 S 
BRANCH   6   7
ATOM      7  C   UNL     1      -3.163  -0.243   0.713  0.00  0.00    +0.120 C 
BRANCH   7  10
ATOM      8  C   UNL     1      -0.681   1.148   1.125  0.00  0.00    +0.061 C 
ATOM      9  C   UNL     1      -0.719  -0.359   1.107  0.00  0.00    +0.013 C 
ATOM     10  C   UNL     1      -1.881  -1.015   0.896  0.00  0.00    +0.041 C 
ATOM     11  C   UNL     1      -1.891  -2.428   0.849  0.00  0.00    +0.245 C 
ATOM     12  O   UNL     1      -2.951  -3.026   0.851  0.00  0.00    -0.270 OA
ATOM     13  N   UNL     1      -0.734  -3.117   0.801  0.00  0.00    -0.271 N 
ATOM     14  C   UNL     1       0.540  -2.405   0.662  0.00  0.00    +0.297 C 
ATOM     15  N   UNL     1       0.426  -1.089   1.297  0.00  0.00    -0.307 N 
ATOM     16  H   UNL     1      -0.745  -4.085   0.860  0.00  0.00    +0.153 HD
ATOM     17  H   UNL     1       1.148  -0.743   1.845  0.00  0.00    +0.150 HD
BRANCH  14  18
ATOM     18  O   UNL     1       0.847  -2.240  -0.724  0.00  0.00    -0.359 OA
ATOM     19  H   UNL     1       0.930  -3.071  -1.210  0.00  0.00    +0.213 HD
ENDBRANCH  14  18
ENDBRANCH   7  10
ENDBRANCH   6   7
ENDBRANCH   1   6
BRANCH   4  20
ATOM     20  C   UNL     1      -8.032   2.207  -2.619  0.00  0.00    +0.164 C 
BRANCH  20  21
ATOM     21  N   UNL     1      -9.318   1.969  -1.958  0.00  0.00    -0.270 N 
ATOM     22  C   UNL     1     -10.439   1.834  -2.695  0.00  0.00    +0.401 C 
ATOM     23  O   UNL     1     -10.370   1.816  -3.908  0.00  0.00    -0.226 OA
ATOM     24  H   UNL     1      -9.363   1.908  -0.991  0.00  0.00    +0.153 HD
BRANCH  22  25
ATOM     25  O   UNL     1     -11.634   1.720  -2.086  0.00  0.00    -0.445 OA
BRANCH  25  26
ATOM     26  C   UNL     1     -12.780   1.581  -2.929  0.00  0.00    +0.107 C 
ATOM     27  C   UNL     1     -12.633   0.322  -3.786  0.00  0.00    +0.055 C 
ATOM     28  C   UNL     1     -14.037   1.465  -2.064  0.00  0.00    +0.055 C 
ATOM     29  C   UNL     1     -12.897   2.806  -3.838  0.00  0.00    +0.055 C 
ENDBRANCH  25  26
ENDBRANCH  22  25
ENDBRANCH  20  21
BRANCH  20  30
ATOM     30  C   UNL     1      -7.835   3.710  -2.825  0.00  0.00    +0.035 C 
BRANCH  30  31
ATOM     31  C   UNL     1      -6.561   3.951  -3.638  0.00  0.00    -0.015 C 
ATOM     32  C   UNL     1      -6.741   3.384  -5.047  0.00  0.00    +0.007 C 
ATOM     33  C   UNL     1      -6.287   5.453  -3.723  0.00  0.00    +0.007 C 
ENDBRANCH  30  31
ENDBRANCH  20  30
ENDBRANCH   4  20
TORSDOF 10
