REMARK  Name = ZINC18974682
REMARK  11 active torsions:
REMARK  status: ('A' for Active; 'I' for Inactive)
REMARK    1  A    between atoms: C_1  and  C_2
REMARK    2  A    between atoms: C_2  and  C_3
REMARK    3  A    between atoms: C_3  and  C_4
REMARK    4  A    between atoms: C_4  and  N_5
REMARK    5  A    between atoms: C_6  and  N_30
REMARK    6  A    between atoms: C_7  and  N_14
REMARK    7  A    between atoms: N_14  and  C_15
REMARK    8  A    between atoms: C_20  and  C_22
REMARK    9  A    between atoms: C_22  and  S_23
REMARK   10  A    between atoms: S_23  and  C_24
REMARK   11  A    between atoms: C_27  and  C_29
REMARK                            x       y       z     vdW  Elec       q    Type
REMARK                         _______ _______ _______ _____ _____    ______ ____
ROOT
ATOM      1  N   UNL     1      -3.490  -1.804  -0.258  0.00  0.00    -0.280 N 
ATOM      2  C   UNL     1      -4.295  -2.036   0.833  0.00  0.00    +0.127 A 
ATOM      3  C   UNL     1      -4.535  -3.336   1.229  0.00  0.00    +0.140 A 
ATOM      4  C   UNL     1      -3.945  -4.387   0.503  0.00  0.00    +0.277 A 
ATOM      5  O   UNL     1      -4.140  -5.545   0.831  0.00  0.00    -0.266 OA
ATOM      6  N   UNL     1      -3.163  -4.105  -0.558  0.00  0.00    -0.273 N 
ATOM      7  H   UNL     1      -2.757  -4.829  -1.060  0.00  0.00    +0.173 HD
ATOM      8  C   UNL     1      -2.946  -2.832  -0.933  0.00  0.00    +0.331 A 
ATOM      9  O   UNL     1      -2.240  -2.607  -1.897  0.00  0.00    -0.246 OA
ENDROOT
BRANCH   3  10
ATOM     10  N   UNL     1      -5.356  -3.606   2.344  0.00  0.00    -0.260 N 
ATOM     11  C   UNL     1      -4.952  -3.253   3.582  0.00  0.00    +0.230 C 
ATOM     12  O   UNL     1      -3.847  -2.781   3.747  0.00  0.00    -0.274 OA
BRANCH  10  13
ATOM     13  C   UNL     1      -6.649  -4.271   2.157  0.00  0.00    +0.082 C 
ATOM     14  C   UNL     1      -6.834  -4.659   0.676  0.00  0.00    +0.023 C 
ATOM     15  C   UNL     1      -8.341  -4.420   0.406  0.00  0.00    +0.002 C 
ATOM     16  C   UNL     1      -8.635  -3.138   1.223  0.00  0.00    +0.002 C 
ATOM     17  C   UNL     1      -7.794  -3.304   2.505  0.00  0.00    +0.023 C 
ENDBRANCH  10  13
BRANCH  11  18
ATOM     18  C   UNL     1      -5.873  -3.445   4.759  0.00  0.00    +0.172 C 
BRANCH  18  19
ATOM     19  S   UNL     1      -5.093  -2.775   6.253  0.00  0.00    -0.088 S 
BRANCH  19  20
ATOM     20  C   UNL     1      -6.278  -3.072   7.523  0.00  0.00    +0.159 A 
ATOM     21  N   UNL     1      -7.471  -3.651   7.459  0.00  0.00    -0.135 NA
ATOM     22  N   UNL     1      -8.200  -3.784   8.480  0.00  0.00    -0.146 NA
ATOM     23  C   UNL     1      -7.827  -3.358   9.670  0.00  0.00    +0.100 A 
ATOM     24  S   UNL     1      -6.215  -2.687   9.270  0.00  0.00    -0.044 S 
ATOM     25  C   UNL     1      -8.547  -3.425  10.991  0.00  0.00    +0.075 C 
ENDBRANCH  19  20
ENDBRANCH  18  19
ENDBRANCH  11  18
ENDBRANCH   3  10
BRANCH   2  26
ATOM     26  N   UNL     1      -4.855  -0.985   1.520  0.00  0.00    -0.343 N 
ATOM     27  H   UNL     1      -4.621  -0.073   1.286  0.00  0.00    +0.144 HD
ATOM     28  H   UNL     1      -5.484  -1.156   2.238  0.00  0.00    +0.144 HD
ENDBRANCH   2  26
BRANCH   1  29
ATOM     29  C   UNL     1      -3.227  -0.429  -0.690  0.00  0.00    +0.128 C 
BRANCH  29  30
ATOM     30  C   UNL     1      -4.293   0.001  -1.698  0.00  0.00    +0.021 C 
BRANCH  30  32
ATOM     31  C   UNL     1      -5.086   1.868  -3.159  0.00  0.00    +0.004 C 
ATOM     32  C   UNL     1      -4.019   1.438  -2.150  0.00  0.00    -0.002 C 
ENDBRANCH  30  32
ENDBRANCH  29  30
ENDBRANCH   1  29
TORSDOF 9
