REMARK  Name = ZINC41548762
REMARK  7 active torsions:
REMARK  status: ('A' for Active; 'I' for Inactive)
REMARK    1  A    between atoms: C_1  and  C_2
REMARK    2  A    between atoms: C_2  and  C_3
REMARK    3  A    between atoms: C_4  and  C_26
REMARK    4  A    between atoms: C_6  and  N_10
REMARK    5  A    between atoms: C_7  and  C_8
REMARK    6  A    between atoms: C_11  and  C_13
REMARK    7  A    between atoms: C_13  and  C_25
REMARK                            x       y       z     vdW  Elec       q    Type
REMARK                         _______ _______ _______ _____ _____    ______ ____
ROOT
ATOM      1  N   UNL     1      -4.338  -1.596  -2.065  0.00  0.00    -0.275 N 
ATOM      2  C   UNL     1      -5.566  -2.050  -1.743  0.00  0.00    +0.271 C 
ATOM      3  O   UNL     1      -5.881  -2.171  -0.578  0.00  0.00    -0.271 OA
ATOM      4  H   UNL     1      -4.086  -1.500  -2.996  0.00  0.00    +0.155 HD
ENDROOT
BRANCH   2   5
ATOM      5  C   UNL     1      -6.546  -2.408  -2.830  0.00  0.00    +0.258 C 
ATOM      6  C   UNL     1      -7.952  -2.292  -2.296  0.00  0.00    +0.270 C 
ATOM      7  O   UNL     1      -8.506  -3.264  -1.826  0.00  0.00    -0.271 OA
ATOM      8  N   UNL     1      -8.590  -1.104  -2.343  0.00  0.00    -0.279 N 
ATOM      9  C   UNL     1      -7.982  -0.027  -3.002  0.00  0.00    +0.077 A 
ATOM     10  C   UNL     1      -8.494   1.254  -2.877  0.00  0.00    +0.047 A 
ATOM     11  C   UNL     1      -7.875   2.309  -3.523  0.00  0.00    +0.043 A 
ATOM     12  C   UNL     1      -6.747   2.087  -4.293  0.00  0.00    +0.024 A 
ATOM     13  C   UNL     1      -6.235   0.809  -4.426  0.00  0.00    +0.049 A 
ATOM     14  C   UNL     1      -6.853  -0.252  -3.786  0.00  0.00    +0.144 A 
ATOM     15  O   UNL     1      -6.377  -1.517  -3.935  0.00  0.00    -0.465 OA
ATOM     16 CL   UNL     1      -8.516   3.916  -3.369  0.00  0.00    -0.083 Cl
ATOM     17  C   UNL     1      -6.294  -3.845  -3.291  0.00  0.00    +0.076 C 
ATOM     18  H   UNL     1      -9.459  -0.997  -1.925  0.00  0.00    +0.155 HD
ENDBRANCH   2   5
BRANCH   1  22
ATOM     19  C   UNL     1      -1.412  -0.526   0.013  0.00  0.00    -0.018 A 
ATOM     20  C   UNL     1      -2.074  -0.774   1.159  0.00  0.00    -0.007 A 
ATOM     21  S   UNL     1      -3.659  -1.356   0.597  0.00  0.00    -0.077 S 
ATOM     22  C   UNL     1      -3.435  -1.267  -1.063  0.00  0.00    +0.090 A 
ATOM     23  C   UNL     1      -2.143  -0.784  -1.206  0.00  0.00    +0.084 A 
ATOM     24  C   UNL     1      -1.589  -0.602   2.575  0.00  0.00    +0.052 C 
BRANCH  19  26
ATOM     25  C   UNL     1      -0.019   1.526   0.010  0.00  0.00    +0.009 C 
ATOM     26  C   UNL     1       0.002  -0.004   0.002  0.00  0.00    +0.034 C 
ENDBRANCH  19  26
BRANCH  23  27
ATOM     27  C   UNL     1      -1.562  -0.558  -2.495  0.00  0.00    +0.102 C 
ATOM     28  N   UNL     1      -1.101  -0.379  -3.518  0.00  0.00    -0.191 NA
ENDBRANCH  23  27
ENDBRANCH   1  22
TORSDOF 4
