REMARK  Name = ZINC37109289
REMARK  11 active torsions:
REMARK  status: ('A' for Active; 'I' for Inactive)
REMARK    1  A    between atoms: C_1  and  C_2
REMARK    2  A    between atoms: C_2  and  C_3
REMARK    3  A    between atoms: C_3  and  C_5
REMARK    4  A    between atoms: C_3  and  N_6
REMARK    5  A    between atoms: N_6  and  C_7
REMARK    6  A    between atoms: C_11  and  N_19
REMARK    7  A    between atoms: C_12  and  O_14
REMARK    8  A    between atoms: O_14  and  C_15
REMARK    9  A    between atoms: C_15  and  C_16
REMARK   10  A    between atoms: C_15  and  C_17
REMARK   11  A    between atoms: C_15  and  C_18
REMARK                            x       y       z     vdW  Elec       q    Type
REMARK                         _______ _______ _______ _____ _____    ______ ____
ROOT
ATOM      1  N   UNL     1       2.125  -0.091  -1.209  0.00  0.00    -0.315 N 
ATOM      2  C   UNL     1       2.949  -0.439  -0.049  0.00  0.00    +0.131 C 
ATOM      3  C   UNL     1       2.674   0.642  -2.260  0.00  0.00    +0.125 A 
ATOM      4  C   UNL     1       1.840   1.165  -3.240  0.00  0.00    +0.046 A 
ATOM      5  C   UNL     1       2.393   1.893  -4.281  0.00  0.00    +0.031 A 
ATOM      6  C   UNL     1       3.772   2.074  -4.306  0.00  0.00    +0.087 A 
ATOM      7  C   UNL     1       4.547   1.520  -3.290  0.00  0.00    +0.238 A 
ATOM      8  N   UNL     1       3.983   0.835  -2.309  0.00  0.00    -0.196 NA
ENDROOT
BRANCH   6   9
ATOM      9  N   UNL     1       4.375   2.804  -5.342  0.00  0.00    -0.354 N 
ATOM     10  H   UNL     1       3.829   3.186  -6.046  0.00  0.00    +0.142 HD
ATOM     11  H   UNL     1       5.337   2.925  -5.353  0.00  0.00    +0.142 HD
ENDBRANCH   6   9
BRANCH   1  12
ATOM     12  C   UNL     1       0.723  -0.514  -1.265  0.00  0.00    +0.071 C 
ATOM     13  C   UNL     1       0.639  -2.027  -1.057  0.00  0.00    +0.028 C 
BRANCH  12  15
ATOM     14  C   UNL     1      -0.088   1.702  -0.443  0.00  0.00    +0.005 C 
ATOM     15  C   UNL     1      -0.068   0.197  -0.165  0.00  0.00    +0.019 C 
ENDBRANCH  12  15
ENDBRANCH   1  12
BRANCH   7  16
ATOM     16  O   UNL     1       5.894   1.689  -3.304  0.00  0.00    -0.469 OA
BRANCH  16  17
ATOM     17  C   UNL     1       6.634   1.097  -2.234  0.00  0.00    +0.104 C 
ATOM     18  C   UNL     1       6.409  -0.417  -2.235  0.00  0.00    +0.055 C 
ATOM     19  C   UNL     1       8.123   1.391  -2.419  0.00  0.00    +0.055 C 
ATOM     20  C   UNL     1       6.160   1.681  -0.902  0.00  0.00    +0.055 C 
ENDBRANCH  16  17
ENDBRANCH   7  16
TORSDOF 5
