REMARK  Name = ZINC65463404
REMARK  6 active torsions:
REMARK  status: ('A' for Active; 'I' for Inactive)
REMARK    1  A    between atoms: C_1  and  C_2
REMARK    2  A    between atoms: N_8  and  C_9
REMARK    3  A    between atoms: C_9  and  C_10
REMARK    4  A    between atoms: C_10  and  C_11
REMARK    5  A    between atoms: C_18  and  C_23
REMARK    6  A    between atoms: C_18  and  C_24
REMARK                            x       y       z     vdW  Elec       q    Type
REMARK                         _______ _______ _______ _____ _____    ______ ____
ROOT
ATOM      1  C   UNL     1      -1.414   1.062   4.195  0.00  0.00    +0.110 A 
ATOM      2  N   UNL     1      -0.789   0.709   5.276  0.00  0.00    -0.228 NA
ATOM      3  C   UNL     1      -1.009   1.641   6.251  0.00  0.00    +0.146 A 
ATOM      4  H   UNL     1      -2.598   2.723   3.783  0.00  0.00    +0.167 HD
ATOM      5  C   UNL     1      -1.821   2.591   5.717  0.00  0.00    +0.049 A 
ATOM      6  N   UNL     1      -2.061   2.232   4.423  0.00  0.00    -0.345 N 
ATOM      7  C   UNL     1      -2.381   3.809   6.382  0.00  0.00    +0.063 C 
ATOM      8  C   UNL     1      -1.460   4.390   7.421  0.00  0.00    -0.014 C 
ATOM      9  C   UNL     1      -1.388   3.579   8.687  0.00  0.00    +0.111 C 
ATOM     10  N   UNL     1      -0.568   2.401   8.594  0.00  0.00    -0.310 N 
ATOM     11  C   UNL     1      -0.428   1.567   7.589  0.00  0.00    +0.264 C 
ATOM     12  O   UNL     1       0.281   0.603   7.802  0.00  0.00    -0.268 OA
ATOM     13  C   UNL     1      -1.943   5.799   7.771  0.00  0.00    +0.013 C 
ATOM     14  C   UNL     1      -0.054   4.493   6.826  0.00  0.00    +0.013 C 
ATOM     15  H   UNL     1      -0.045   2.193   9.385  0.00  0.00    +0.149 HD
ENDROOT
BRANCH   1  16
ATOM     16  C   UNL     1      -1.417   0.299   2.895  0.00  0.00    +0.096 C 
BRANCH  16  17
ATOM     17  C   UNL     1       0.025   0.060   2.442  0.00  0.00    +0.133 C 
BRANCH  17  25
ATOM     18  C   UNL     1      -0.018   1.503   0.010  0.00  0.00    +0.063 C 
ATOM     19  C   UNL     1       0.002  -0.004   0.002  0.00  0.00    +0.019 A 
ATOM     20  C   UNL     1       0.005  -0.667  -1.178  0.00  0.00    +0.021 A 
ATOM     21  C   UNL     1       0.025  -2.069  -1.193  0.00  0.00    +0.007 A 
ATOM     22  C   UNL     1       0.039  -2.748  -0.010  0.00  0.00    +0.070 A 
ATOM     23  C   UNL     1       0.035  -2.028   1.197  0.00  0.00    +0.251 A 
ATOM     24  O   UNL     1       0.049  -2.624   2.262  0.00  0.00    -0.268 OA
ATOM     25  N   UNL     1       0.022  -0.682   1.178  0.00  0.00    -0.312 N 
ENDBRANCH  17  25
ENDBRANCH  16  17
ENDBRANCH   1  16
TORSDOF 3
