REMARK  Name = ZINC59135871
REMARK  5 active torsions:
REMARK  status: ('A' for Active; 'I' for Inactive)
REMARK    1  A    between atoms: C_1  and  C_2
REMARK    2  A    between atoms: C_4  and  C_14
REMARK    3  A    between atoms: C_5  and  C_13
REMARK    4  A    between atoms: N_6  and  C_7
REMARK    5  A    between atoms: N_21  and  C_24
REMARK                            x       y       z     vdW  Elec       q    Type
REMARK                         _______ _______ _______ _____ _____    ______ ____
ROOT
ATOM      1  C   UNL     1      -0.120  -3.363  -1.341  0.00  0.00    +0.028 C 
ATOM      2  C   UNL     1       0.491  -3.405  -2.587  0.00  0.00    +0.102 C 
ATOM      3  C   UNL     1       1.107  -2.209  -3.180  0.00  0.00    +0.274 C 
ATOM      4  O   UNL     1       1.096  -1.029  -2.525  0.00  0.00    -0.268 OA
ATOM      5  N   UNL     1       1.673  -2.317  -4.370  0.00  0.00    -0.153 NA
ATOM      6  C   UNL     1       1.699  -3.466  -5.039  0.00  0.00    +0.171 C 
ATOM      7  S   UNL     1       2.459  -3.493  -6.573  0.00  0.00    -0.016 S 
ATOM      8  N   UNL     1       1.164  -4.606  -4.577  0.00  0.00    -0.213 N 
ATOM      9  C   UNL     1       0.556  -4.652  -3.372  0.00  0.00    +0.262 C 
ATOM     10  O   UNL     1       0.074  -5.687  -2.950  0.00  0.00    -0.269 OA
ENDROOT
BRANCH   1  14
ATOM     11  C   UNL     1      -1.478   1.421  -0.475  0.00  0.00    +0.063 C 
ATOM     12  C   UNL     1      -0.953   0.016  -0.328  0.00  0.00    +0.017 A 
ATOM     13  C   UNL     1      -0.942  -0.915  -1.296  0.00  0.00    +0.030 A 
ATOM     14  C   UNL     1      -0.343  -2.121  -0.704  0.00  0.00    -0.003 A 
ATOM     15  C   UNL     1      -0.042  -1.787   0.610  0.00  0.00    +0.023 A 
ATOM     16  N   UNL     1      -0.409  -0.510   0.810  0.00  0.00    -0.345 N 
ATOM     17  C   UNL     1       0.591  -2.697   1.631  0.00  0.00    +0.064 C 
BRANCH  16  18
ATOM     18  C   UNL     1      -0.251   0.216   2.072  0.00  0.00    +0.087 C 
ATOM     19  C   UNL     1      -1.630   0.523   2.660  0.00  0.00    +0.025 C 
ATOM     20  C   UNL     1      -1.465   1.281   3.979  0.00  0.00    +0.002 C 
ATOM     21  C   UNL     1      -0.717   2.591   3.724  0.00  0.00    +0.000 C 
ATOM     22  C   UNL     1       0.662   2.284   3.136  0.00  0.00    +0.002 C 
ATOM     23  C   UNL     1       0.497   1.526   1.817  0.00  0.00    +0.025 C 
ENDBRANCH  16  18
ENDBRANCH   1  14
BRANCH   8  24
ATOM     24  C   UNL     1       1.242  -5.769  -5.355  0.00  0.00    +0.078 A 
ATOM     25  C   UNL     1       2.322  -6.629  -5.215  0.00  0.00    +0.027 A 
ATOM     26  C   UNL     1       2.397  -7.774  -5.983  0.00  0.00    +0.002 A 
ATOM     27  C   UNL     1       1.396  -8.066  -6.892  0.00  0.00    +0.003 A 
ATOM     28  C   UNL     1       0.318  -7.213  -7.036  0.00  0.00    +0.040 A 
ATOM     29  C   UNL     1       0.234  -6.067  -6.265  0.00  0.00    +0.145 A 
ATOM     30  F   UNL     1      -0.823  -5.237  -6.401  0.00  0.00    -0.204 F 
ENDBRANCH   8  24
TORSDOF 3
