REMARK  Name = ZINC66743056
REMARK  9 active torsions:
REMARK  status: ('A' for Active; 'I' for Inactive)
REMARK    1  A    between atoms: C_1  and  C_2
REMARK    2  A    between atoms: C_9  and  C_11
REMARK    3  A    between atoms: C_11  and  C_12
REMARK    4  A    between atoms: N_14  and  C_15
REMARK    5  A    between atoms: C_15  and  C_16
REMARK    6  A    between atoms: C_15  and  C_17
REMARK    7  A    between atoms: C_15  and  C_18
REMARK    8  A    between atoms: C_18  and  O_19
REMARK    9  A    between atoms: O_19  and  C_20
REMARK                            x       y       z     vdW  Elec       q    Type
REMARK                         _______ _______ _______ _____ _____    ______ ____
ROOT
ATOM      1  C   UNL     1      -0.316  -2.661   0.254  0.00  0.00    +0.118 C 
ENDROOT
BRANCH   1  10
ATOM      2  C   UNL     1      -1.140   1.421  -0.114  0.00  0.00    +0.109 C 
ATOM      3  C   UNL     1      -0.704  -0.021  -0.065  0.00  0.00    +0.213 C 
ATOM      4  O   UNL     1      -0.534  -0.566   1.005  0.00  0.00    -0.276 OA
ATOM      5  N   UNL     1      -0.504  -0.704  -1.209  0.00  0.00    -0.298 N 
ATOM      6  C   UNL     1      -0.585  -0.025  -2.510  0.00  0.00    +0.108 C 
ATOM      7  C   UNL     1      -1.576  -0.782  -3.400  0.00  0.00    +0.019 C 
ATOM      8  C   UNL     1      -1.159  -2.253  -3.483  0.00  0.00    +0.003 C 
ATOM      9  C   UNL     1      -1.194  -2.874  -2.084  0.00  0.00    +0.023 C 
ATOM     10  C   UNL     1      -0.193  -2.139  -1.179  0.00  0.00    +0.085 C 
ENDBRANCH   1  10
BRANCH   1  11
ATOM     11  C   UNL     1       0.896  -2.244   1.046  0.00  0.00    +0.215 C 
ATOM     12  O   UNL     1       1.772  -1.593   0.516  0.00  0.00    -0.276 OA
ATOM     13  N   UNL     1       1.007  -2.593   2.343  0.00  0.00    -0.308 N 
ATOM     14  H   UNL     1       0.307  -3.114   2.766  0.00  0.00    +0.149 HD
BRANCH  13  15
ATOM     15  C   UNL     1       2.186  -2.187   3.113  0.00  0.00    +0.052 C 
ATOM     16  C   UNL     1       3.444  -2.768   2.464  0.00  0.00    +0.033 C 
ATOM     17  C   UNL     1       2.281  -0.660   3.132  0.00  0.00    +0.033 C 
BRANCH  15  18
ATOM     18  C   UNL     1       2.063  -2.709   4.546  0.00  0.00    +0.184 C 
BRANCH  18  19
ATOM     19  O   UNL     1       3.212  -2.313   5.297  0.00  0.00    -0.381 OA
ATOM     20  C   UNL     1       3.198  -2.752   6.657  0.00  0.00    +0.194 C 
ENDBRANCH  18  19
ENDBRANCH  15  18
ENDBRANCH  13  15
ENDBRANCH   1  11
TORSDOF 5
