REMARK  Name = ZINC53362941
REMARK  6 active torsions:
REMARK  status: ('A' for Active; 'I' for Inactive)
REMARK    1  A    between atoms: C_1  and  O_2
REMARK    2  A    between atoms: O_2  and  C_3
REMARK    3  A    between atoms: C_6  and  C_9
REMARK    4  A    between atoms: C_11  and  C_25
REMARK    5  A    between atoms: C_14  and  C_17
REMARK    6  A    between atoms: C_22  and  O_23
REMARK                            x       y       z     vdW  Elec       q    Type
REMARK                         _______ _______ _______ _____ _____    ______ ____
ROOT
ATOM      1  C   UNL     1      -4.955  -2.615   0.037  0.00  0.00    +0.047 C 
ATOM      2  N   UNL     1      -6.019  -1.904   0.041  0.00  0.00    -0.264 NA
ATOM      3  C   UNL     1      -7.370  -2.452   0.060  0.00  0.00    +0.204 C 
ATOM      4  N   UNL     1      -7.362  -3.863  -0.345  0.00  0.00    -0.284 NA
ATOM      5  C   UNL     1      -6.367  -4.612   0.441  0.00  0.00    +0.095 C 
ATOM      6  C   UNL     1      -4.973  -4.119   0.035  0.00  0.00    +0.079 C 
ATOM      7  H   UNL     1      -8.280  -4.271  -0.249  0.00  0.00    +0.125 HD
ENDROOT
BRANCH   5   8
ATOM      8  C   UNL     1      -6.490  -6.085   0.145  0.00  0.00    +0.013 A 
ATOM      9  C   UNL     1      -7.018  -6.506  -1.060  0.00  0.00    +0.028 A 
ATOM     10  C   UNL     1      -7.131  -7.858  -1.332  0.00  0.00    +0.042 A 
ATOM     11  C   UNL     1      -6.716  -8.790  -0.397  0.00  0.00    +0.023 A 
ATOM     12  C   UNL     1      -6.187  -8.373   0.808  0.00  0.00    +0.047 A 
ATOM     13  C   UNL     1      -6.068  -7.018   1.080  0.00  0.00    +0.122 A 
ATOM     14 CL   UNL     1      -7.796  -8.385  -2.846  0.00  0.00    -0.084 Cl
BRANCH  13  15
ATOM     15  O   UNL     1      -5.542  -6.605   2.264  0.00  0.00    -0.506 OA
ATOM     16  H   UNL     1      -6.197  -6.490   2.966  0.00  0.00    +0.292 HD
ENDBRANCH  13  15
ENDBRANCH   5   8
BRANCH   3  17
ATOM     17  C   UNL     1      -8.238  -1.668  -0.890  0.00  0.00    -0.009 A 
ATOM     18  C   UNL     1      -9.302  -2.284  -1.522  0.00  0.00    +0.008 A 
ATOM     19  C   UNL     1     -10.098  -1.565  -2.393  0.00  0.00    +0.020 A 
ATOM     20  C   UNL     1      -9.830  -0.230  -2.634  0.00  0.00    +0.041 A 
ATOM     21  C   UNL     1      -8.765   0.386  -2.001  0.00  0.00    +0.020 A 
ATOM     22  C   UNL     1      -7.973  -0.332  -1.125  0.00  0.00    +0.008 A 
ATOM     23 CL   UNL     1     -10.830   0.673  -3.729  0.00  0.00    -0.084 Cl
ENDBRANCH   3  17
BRANCH   1  27
ATOM     24  C   UNL     1      -1.199  -0.637   0.010  0.00  0.00    +0.120 A 
ATOM     25  C   UNL     1      -2.373   0.106   0.020  0.00  0.00    +0.046 A 
ATOM     26  C   UNL     1      -3.594  -0.532   0.028  0.00  0.00    +0.013 A 
ATOM     27  C   UNL     1      -3.651  -1.928   0.027  0.00  0.00    -0.004 A 
ATOM     28  C   UNL     1      -2.467  -2.671   0.017  0.00  0.00    +0.013 A 
ATOM     29  C   UNL     1      -1.251  -2.025   0.003  0.00  0.00    +0.046 A 
BRANCH  24  31
ATOM     30  C   UNL     1      -0.017   1.425   0.010  0.00  0.00    +0.277 C 
ATOM     31  O   UNL     1       0.002  -0.004   0.002  0.00  0.00    -0.495 OA
ENDBRANCH  24  31
ENDBRANCH   1  27
TORSDOF 5
