REMARK  Name = ZINC36955821
REMARK  4 active torsions:
REMARK  status: ('A' for Active; 'I' for Inactive)
REMARK    1  A    between atoms: C_1  and  C_2
REMARK    2  A    between atoms: C_2  and  C_4
REMARK    3  A    between atoms: C_2  and  N_11
REMARK    4  A    between atoms: C_18  and  N_22
REMARK                            x       y       z     vdW  Elec       q    Type
REMARK                         _______ _______ _______ _____ _____    ______ ____
ROOT
ATOM      1  N   UNL     1       0.671  -0.613   1.154  0.00  0.00    -0.227 N 
ATOM      2  C   UNL     1       0.230  -0.529   2.423  0.00  0.00    +0.254 C 
ATOM      3  O   UNL     1      -0.770   0.054   2.789  0.00  0.00    -0.270 OA
ATOM      4  C   UNL     1       1.168  -1.266   3.295  0.00  0.00    +0.051 A 
ATOM      5  C   UNL     1       1.229  -1.518   4.654  0.00  0.00    +0.014 A 
ATOM      6  C   UNL     1       2.275  -2.270   5.173  0.00  0.00    +0.003 A 
ATOM      7  C   UNL     1       3.258  -2.770   4.346  0.00  0.00    +0.023 A 
ATOM      8  C   UNL     1       3.215  -2.527   2.972  0.00  0.00    +0.038 A 
ATOM      9  C   UNL     1       2.170  -1.774   2.440  0.00  0.00    +0.070 A 
ATOM     10  C   UNL     1       1.804  -1.335   1.083  0.00  0.00    +0.256 C 
ATOM     11  O   UNL     1       2.424  -1.581   0.067  0.00  0.00    -0.269 OA
ENDROOT
BRANCH   8  12
ATOM     12  N   UNL     1       4.206  -3.031   2.142  0.00  0.00    -0.357 N 
ATOM     13  H   UNL     1       4.931  -3.555   2.516  0.00  0.00    +0.142 HD
ATOM     14  H   UNL     1       4.172  -2.861   1.188  0.00  0.00    +0.142 HD
ENDBRANCH   8  12
BRANCH   1  16
ATOM     15  C   UNL     1      -0.086   1.510   0.205  0.00  0.00    +0.033 C 
ATOM     16  C   UNL     1       0.002  -0.004   0.002  0.00  0.00    +0.112 C 
BRANCH  16  17
ATOM     17  C   UNL     1      -1.386  -0.574  -0.132  0.00  0.00    -0.025 A 
ATOM     18  C   UNL     1      -1.618  -1.906   0.161  0.00  0.00    +0.005 A 
ATOM     19  C   UNL     1      -2.891  -2.430   0.038  0.00  0.00    +0.002 A 
ATOM     20  C   UNL     1      -3.934  -1.623  -0.377  0.00  0.00    +0.020 A 
ATOM     21  C   UNL     1      -3.703  -0.290  -0.670  0.00  0.00    +0.041 A 
ATOM     22  C   UNL     1      -2.429   0.235  -0.541  0.00  0.00    +0.025 A 
ATOM     23 CL   UNL     1      -5.012   0.724  -1.192  0.00  0.00    -0.084 Cl
ENDBRANCH  16  17
ENDBRANCH   1  16
TORSDOF 3
