REMARK  Name = ZINC13239869
REMARK  8 active torsions:
REMARK  status: ('A' for Active; 'I' for Inactive)
REMARK    1  A    between atoms: C_4  and  C_7
REMARK    2  A    between atoms: C_7  and  C_8
REMARK    3  A    between atoms: C_8  and  CA_9
REMARK    4  A    between atoms: CA_9  and  C_11
REMARK    5  A    between atoms: CA_9  and  N_13
REMARK    6  A    between atoms: N_16  and  C_17
REMARK    7  A    between atoms: C_17  and  C_18
REMARK    8  A    between atoms: C_28  and  C_30
REMARK                            x       y       z     vdW  Elec       q    Type
REMARK                         _______ _______ _______ _____ _____    ______ ____
ROOT
ATOM      1  N   UNL     1       3.509   6.403  -6.233  0.00  0.00    -0.286 N 
ATOM      2  C   UNL     1       3.942   5.811  -5.102  0.00  0.00    +0.301 C 
ATOM      3  O   UNL     1       5.131   5.621  -4.933  0.00  0.00    -0.253 OA
ATOM      4  N   UNL     1       3.058   5.429  -4.160  0.00  0.00    -0.291 N 
ATOM      5  H   UNL     1       2.561   6.555  -6.368  0.00  0.00    +0.151 HD
ATOM      6  H   UNL     1       2.109   5.581  -4.295  0.00  0.00    +0.151 HD
ENDROOT
BRANCH   1   7
ATOM      7  CA  UNL     1       4.471   6.818  -7.257  0.00  0.00    +0.188 C 
BRANCH   7   8
ATOM      8  C   UNL     1       5.008   8.185  -6.918  0.00  0.00    +0.376 C 
ATOM      9  O   UNL     1       4.626   8.754  -5.923  0.00  0.00    -0.244 OA
ATOM     10  OXT UNL     1       5.909   8.770  -7.722  0.00  0.00    -0.244 OA
ENDBRANCH   7   8
BRANCH   7  11
ATOM     11  C   UNL     1       3.775   6.867  -8.619  0.00  0.00    +0.038 C 
BRANCH  11  12
ATOM     12  C   UNL     1       3.340   5.456  -9.020  0.00  0.00    +0.037 C 
BRANCH  12  16
ATOM     13  C   UNL     1       1.399   5.591 -12.823  0.00  0.00    +0.000 A 
ATOM     14  C   UNL     1       2.766   5.399 -12.751  0.00  0.00    +0.000 A 
ATOM     15  C   UNL     1       3.394   5.355 -11.521  0.00  0.00    +0.003 A 
ATOM     16  C   UNL     1       2.655   5.504 -10.362  0.00  0.00    -0.047 A 
ATOM     17  C   UNL     1       1.287   5.690 -10.433  0.00  0.00    +0.003 A 
ATOM     18  C   UNL     1       0.660   5.739 -11.664  0.00  0.00    +0.000 A 
ENDBRANCH  12  16
ENDBRANCH  11  12
ENDBRANCH   7  11
ENDBRANCH   1   7
BRANCH   4  19
ATOM     19  C   UNL     1       3.529   4.785  -2.931  0.00  0.00    +0.201 C 
BRANCH  19  20
ATOM     20  C   UNL     1       2.350   4.461  -2.050  0.00  0.00    +0.234 C 
ATOM     21  O   UNL     1       1.227   4.740  -2.413  0.00  0.00    -0.274 OA
ATOM     22  N   UNL     1       2.544   3.860  -0.860  0.00  0.00    -0.288 N 
ATOM     23  C   UNL     1       3.901   3.518  -0.409  0.00  0.00    +0.114 C 
ATOM     24  C   UNL     1       4.219   4.352   0.841  0.00  0.00    +0.062 C 
ATOM     25  C   UNL     1       3.022   4.349   1.736  0.00  0.00    -0.003 A 
ATOM     26  C   UNL     1       1.744   4.002   1.422  0.00  0.00    -0.012 A 
ATOM     27  C   UNL     1       0.802   4.094   2.445  0.00  0.00    +0.013 A 
ATOM     28  C   UNL     1       1.178   4.509   3.676  0.00  0.00    +0.046 A 
ATOM     29  S   UNL     1       2.926   4.800   3.448  0.00  0.00    -0.101 S 
ATOM     30  C   UNL     1       1.402   3.539   0.007  0.00  0.00    +0.144 C 
BRANCH  30  31
ATOM     31  C   UNL     1       1.160   2.051   0.002  0.00  0.00    +0.015 A 
ATOM     32  C   UNL     1      -0.017   1.378   0.010  0.00  0.00    +0.013 A 
ATOM     33  C   UNL     1       0.002  -0.004   0.002  0.00  0.00    +0.008 A 
ATOM     34  C   UNL     1       1.196  -0.645  -0.013  0.00  0.00    +0.045 A 
ATOM     35  S   UNL     1       2.348   0.719  -0.017  0.00  0.00    -0.099 S 
ENDBRANCH  30  31
ENDBRANCH  19  20
ENDBRANCH   4  19
TORSDOF 8
