REMARK  Name = ZINC15938555
REMARK  16 active torsions:
REMARK  status: ('A' for Active; 'I' for Inactive)
REMARK    1  A    between atoms: C_1  and  C_2
REMARK    2  A    between atoms: C_5  and  N_9
REMARK    3  A    between atoms: C_7  and  C_8
REMARK    4  A    between atoms: N_10  and  N_11
REMARK    5  A    between atoms: N_11  and  C_12
REMARK    6  A    between atoms: N_11  and  C_24
REMARK    7  A    between atoms: C_12  and  C_13
REMARK    8  A    between atoms: C_13  and  C_15
REMARK    9  A    between atoms: C_13  and  O_23
REMARK   10  A    between atoms: C_15  and  C_17
REMARK   11  A    between atoms: C_15  and  O_22
REMARK   12  A    between atoms: C_17  and  C_19
REMARK   13  A    between atoms: C_17  and  O_21
REMARK   14  A    between atoms: C_19  and  O_20
REMARK   15  A    between atoms: C_27  and  C_31
REMARK   16  A    between atoms: C_28  and  C_30
REMARK                            x       y       z     vdW  Elec       q    Type
REMARK                         _______ _______ _______ _____ _____    ______ ____
ROOT
ATOM      1  N   UNL     1      -4.759   3.850   0.069  0.00  0.00    -0.204 N 
ENDROOT
BRANCH   1   2
ATOM      2  C   UNL     1      -4.774   5.242   0.182  0.00  0.00    +0.053 A 
ATOM      3  C   UNL     1      -3.712   5.903   0.787  0.00  0.00    +0.025 A 
ATOM      4  C   UNL     1      -3.727   7.280   0.892  0.00  0.00    +0.005 A 
ATOM      5  C   UNL     1      -4.803   8.000   0.407  0.00  0.00    -0.047 A 
ATOM      6  C   UNL     1      -5.865   7.345  -0.190  0.00  0.00    -0.046 A 
ATOM      7  C   UNL     1      -5.854   5.969  -0.304  0.00  0.00    +0.028 A 
ATOM      8  C   UNL     1      -7.035   8.134  -0.718  0.00  0.00    +0.044 C 
ATOM      9  C   UNL     1      -4.819   9.502   0.528  0.00  0.00    +0.044 C 
ENDBRANCH   1   2
BRANCH   1  11
ATOM     10  N   UNL     1      -2.626   3.891  -0.871  0.00  0.00    -0.133 NA
ATOM     11  N   UNL     1      -3.625   3.200  -0.435  0.00  0.00    -0.074 NA
BRANCH  10  16
ATOM     12  C   UNL     1       1.947   1.272  -2.900  0.00  0.00    +0.044 C 
ATOM     13  C   UNL     1       0.727   1.971  -2.358  0.00  0.00    -0.047 A 
ATOM     14  C   UNL     1      -0.343   1.227  -1.892  0.00  0.00    +0.006 A 
ATOM     15  C   UNL     1      -1.465   1.861  -1.400  0.00  0.00    +0.030 A 
ATOM     16  C   UNL     1      -1.516   3.255  -1.364  0.00  0.00    +0.088 A 
ATOM     17  C   UNL     1      -0.434   3.999  -1.836  0.00  0.00    +0.033 A 
ATOM     18  C   UNL     1       0.681   3.353  -2.330  0.00  0.00    -0.045 A 
ATOM     19  C   UNL     1       1.850   4.155  -2.840  0.00  0.00    +0.044 C 
ENDBRANCH  10  16
ENDBRANCH   1  11
BRANCH   1  20
ATOM     20  C   UNL     1      -5.930   3.069   0.477  0.00  0.00    +0.167 C 
BRANCH  20  21
ATOM     21  C   UNL     1      -5.865   2.801   1.982  0.00  0.00    +0.165 C 
BRANCH  21  22
ATOM     22  O   UNL     1      -5.969   4.037   2.691  0.00  0.00    -0.388 OA
ATOM     23  H   UNL     1      -6.790   4.519   2.522  0.00  0.00    +0.210 HD
ENDBRANCH  21  22
BRANCH  21  24
ATOM     24  C   UNL     1      -7.020   1.882   2.386  0.00  0.00    +0.175 C 
BRANCH  24  25
ATOM     25  O   UNL     1      -6.915   0.646   1.676  0.00  0.00    -0.387 OA
ATOM     26  H   UNL     1      -6.094   0.164   1.845  0.00  0.00    +0.210 HD
ENDBRANCH  24  25
BRANCH  24  27
ATOM     27  C   UNL     1      -6.955   1.613   3.891  0.00  0.00    +0.171 C 
BRANCH  27  28
ATOM     28  O   UNL     1      -7.059   2.849   4.600  0.00  0.00    -0.387 OA
ATOM     29  H   UNL     1      -7.880   3.332   4.431  0.00  0.00    +0.210 HD
ENDBRANCH  27  28
BRANCH  27  30
ATOM     30  C   UNL     1      -8.109   0.694   4.295  0.00  0.00    +0.189 C 
BRANCH  30  31
ATOM     31  O   UNL     1      -7.982   0.349   5.676  0.00  0.00    -0.392 OA
ATOM     32  H   UNL     1      -8.682  -0.233   6.002  0.00  0.00    +0.210 HD
ENDBRANCH  30  31
ENDBRANCH  27  30
ENDBRANCH  24  27
ENDBRANCH  21  24
ENDBRANCH  20  21
ENDBRANCH   1  20
TORSDOF 12
