REMARK  Name = ZINC39691140
REMARK  12 active torsions:
REMARK  status: ('A' for Active; 'I' for Inactive)
REMARK    1  A    between atoms: C_1  and  C_2
REMARK    2  A    between atoms: C_7  and  C_8
REMARK    3  A    between atoms: C_8  and  C_9
REMARK    4  A    between atoms: C_9  and  N_10
REMARK    5  A    between atoms: C_11  and  C_13
REMARK    6  A    between atoms: C_24  and  C_26
REMARK    7  A    between atoms: C_28  and  O_36
REMARK    8  A    between atoms: C_29  and  O_34
REMARK    9  A    between atoms: C_30  and  O_32
REMARK   10  A    between atoms: O_32  and  C_33
REMARK   11  A    between atoms: O_34  and  C_35
REMARK   12  A    between atoms: O_36  and  C_37
REMARK                            x       y       z     vdW  Elec       q    Type
REMARK                         _______ _______ _______ _____ _____    ______ ____
ROOT
ATOM      1  C   UNL     1      -2.749   1.603   6.012  0.00  0.00    +0.100 C 
ATOM      2  C   UNL     1      -2.136   0.966   7.279  0.00  0.00    +0.121 C 
ATOM      3  N   UNL     1      -2.987   1.451   8.391  0.00  0.00    -0.296 N 
ATOM      4  C   UNL     1      -4.364   1.419   7.843  0.00  0.00    +0.115 C 
ATOM      5  C   UNL     1      -4.212   1.898   6.386  0.00  0.00    -0.004 C 
ATOM      6  C   UNL     1      -5.157   1.122   5.474  0.00  0.00    -0.010 C 
ATOM      7  C   UNL     1      -6.604   1.476   5.827  0.00  0.00    -0.082 C 
ATOM      8  N   UNL     1      -6.810   2.920   5.663  0.00  0.00    +0.379 N 
ATOM      9  C   UNL     1      -5.964   3.657   6.610  0.00  0.00    -0.082 C 
ATOM     10  C   UNL     1      -4.490   3.395   6.290  0.00  0.00    -0.010 C 
ATOM     11  C   UNL     1      -2.597   1.836   9.622  0.00  0.00    +0.247 C 
ATOM     12  O   UNL     1      -1.413   1.930   9.883  0.00  0.00    -0.270 OA
ATOM     13  H   UNL     1      -6.570   3.188   4.720  0.00  0.00    -0.086 HD
ATOM     14  H   UNL     1      -7.779   3.142   5.837  0.00  0.00    -0.086 HD
ENDROOT
BRANCH  11  15
ATOM     15  C   UNL     1      -3.607   2.144  10.654  0.00  0.00    +0.044 A 
ATOM     16  C   UNL     1      -4.904   1.639  10.536  0.00  0.00    +0.062 A 
ATOM     17  C   UNL     1      -5.848   1.929  11.504  0.00  0.00    +0.166 A 
ATOM     18  C   UNL     1      -5.506   2.723  12.595  0.00  0.00    +0.204 A 
ATOM     19  C   UNL     1      -4.214   3.227  12.715  0.00  0.00    +0.166 A 
ATOM     20  C   UNL     1      -3.265   2.936  11.753  0.00  0.00    +0.062 A 
BRANCH  19  21
ATOM     21  O   UNL     1      -3.884   4.003  13.782  0.00  0.00    -0.491 OA
ATOM     22  C   UNL     1      -2.541   4.487  13.842  0.00  0.00    +0.277 C 
ENDBRANCH  19  21
BRANCH  18  23
ATOM     23  O   UNL     1      -6.436   3.006  13.545  0.00  0.00    -0.488 OA
ATOM     24  C   UNL     1      -6.534   2.101  14.647  0.00  0.00    +0.277 C 
ENDBRANCH  18  23
BRANCH  17  25
ATOM     25  O   UNL     1      -7.111   1.438  11.389  0.00  0.00    -0.491 OA
ATOM     26  C   UNL     1      -7.392   0.630  10.244  0.00  0.00    +0.277 C 
ENDBRANCH  17  25
ENDBRANCH  11  15
BRANCH   1  28
ATOM     27  N   UNL     1      -2.579   1.101   3.596  0.00  0.00    -0.315 N 
ATOM     28  C   UNL     1      -2.687   0.637   4.857  0.00  0.00    +0.218 C 
ATOM     29  O   UNL     1      -2.735  -0.557   5.061  0.00  0.00    -0.275 OA
ATOM     30  H   UNL     1      -2.541   2.056   3.432  0.00  0.00    +0.149 HD
BRANCH  27  31
ATOM     31  C   UNL     1      -2.519   0.162   2.473  0.00  0.00    +0.109 C 
BRANCH  31  32
ATOM     32  C   UNL     1      -2.399   0.942   1.162  0.00  0.00    +0.054 C 
BRANCH  32  39
ATOM     33  C   UNL     1      -4.840  -0.085   0.005  0.00  0.00    +0.044 C 
ATOM     34  C   UNL     1      -3.505  -0.515  -0.547  0.00  0.00    -0.047 A 
ATOM     35  C   UNL     1      -3.448  -1.397  -1.610  0.00  0.00    +0.003 A 
ATOM     36  C   UNL     1      -2.224  -1.791  -2.116  0.00  0.00    +0.000 A 
ATOM     37  C   UNL     1      -1.056  -1.304  -1.560  0.00  0.00    +0.000 A 
ATOM     38  C   UNL     1      -1.113  -0.422  -0.497  0.00  0.00    +0.004 A 
ATOM     39  C   UNL     1      -2.337  -0.024   0.007  0.00  0.00    -0.043 A 
ENDBRANCH  32  39
ENDBRANCH  31  32
ENDBRANCH  27  31
ENDBRANCH   1  28
TORSDOF 8
