REMARK  Name = ZINC09835753
REMARK  3 active torsions:
REMARK  status: ('A' for Active; 'I' for Inactive)
REMARK    1  A    between atoms: C_1  and  C_2
REMARK    2  A    between atoms: C_9  and  N_14
REMARK    3  A    between atoms: C_17  and  C_24
REMARK                            x       y       z     vdW  Elec       q    Type
REMARK                         _______ _______ _______ _____ _____    ______ ____
ROOT
ATOM      1  N   UNL     1       1.298  -2.123   0.707  0.00  0.00    -0.299 N 
ATOM      2  C   UNL     1       0.105  -2.824   0.754  0.00  0.00    +0.135 A 
ATOM      3  C   UNL     1       0.084  -4.224   0.511  0.00  0.00    +0.055 A 
ATOM      4  C   UNL     1       1.183  -5.130   0.195  0.00  0.00    +0.002 A 
ATOM      5  C   UNL     1       0.910  -6.442   0.003  0.00  0.00    +0.056 A 
ATOM      6  S   UNL     1      -0.854  -6.540   0.238  0.00  0.00    -0.076 S 
ATOM      7  C   UNL     1      -1.185  -4.833   0.586  0.00  0.00    +0.114 A 
ATOM      8  N   UNL     1      -2.268  -4.132   0.864  0.00  0.00    -0.228 NA
ATOM      9  C   UNL     1      -2.186  -2.834   1.080  0.00  0.00    +0.224 A 
ATOM     10  N   UNL     1      -1.028  -2.200   1.031  0.00  0.00    -0.220 NA
ATOM     11  H   UNL     1       2.136  -2.599   0.601  0.00  0.00    +0.154 HD
ENDROOT
BRANCH   1  19
ATOM     12  C   UNL     1       2.116   5.446   2.089  0.00  0.00    +0.062 C 
ATOM     13  C   UNL     1       1.903   3.944   2.288  0.00  0.00    +0.256 C 
ATOM     14  C   UNL     1       3.234   3.273   2.514  0.00  0.00    +0.258 C 
ATOM     15  O   UNL     1       4.147   3.889   3.022  0.00  0.00    -0.271 OA
ATOM     16  N   UNL     1       3.405   1.984   2.147  0.00  0.00    -0.279 N 
ATOM     17  C   UNL     1       2.345   1.306   1.530  0.00  0.00    +0.077 A 
ATOM     18  C   UNL     1       2.354  -0.075   1.428  0.00  0.00    +0.050 A 
ATOM     19  C   UNL     1       1.294  -0.727   0.813  0.00  0.00    +0.034 A 
ATOM     20  C   UNL     1       0.229   0.004   0.302  0.00  0.00    +0.027 A 
ATOM     21  C   UNL     1       0.221   1.383   0.403  0.00  0.00    +0.049 A 
ATOM     22  C   UNL     1       1.275   2.037   1.016  0.00  0.00    +0.143 A 
ATOM     23  O   UNL     1       1.279   3.394   1.125  0.00  0.00    -0.478 OA
ATOM     24  H   UNL     1       4.250   1.535   2.309  0.00  0.00    +0.155 HD
ENDBRANCH   1  19
BRANCH   4  25
ATOM     25  C   UNL     1       2.572  -4.624   0.085  0.00  0.00    -0.016 A 
ATOM     26  C   UNL     1       2.888  -3.650  -0.862  0.00  0.00    +0.011 A 
ATOM     27  C   UNL     1       4.181  -3.178  -0.957  0.00  0.00    +0.039 A 
ATOM     28  C   UNL     1       5.167  -3.678  -0.122  0.00  0.00    +0.123 A 
ATOM     29  C   UNL     1       4.858  -4.650   0.816  0.00  0.00    +0.039 A 
ATOM     30  C   UNL     1       3.567  -5.124   0.923  0.00  0.00    +0.011 A 
ATOM     31  F   UNL     1       6.432  -3.217  -0.222  0.00  0.00    -0.205 F 
ENDBRANCH   4  25
TORSDOF 2
