REMARK  Name = ZINC43512876
REMARK  1 active torsions:
REMARK  status: ('A' for Active; 'I' for Inactive)
REMARK    1  A    between atoms: C_10  and  C_11
REMARK                            x       y       z     vdW  Elec       q    Type
REMARK                         _______ _______ _______ _____ _____    ______ ____
ROOT
ATOM      1  C   UNL     1       0.156   1.042  -1.587  0.00  0.00    +0.001 A 
ATOM      2  C   UNL     1       1.343   1.772  -1.612  0.00  0.00    +0.001 A 
ATOM      3  C   UNL     1       2.500   1.251  -1.114  0.00  0.00    +0.011 A 
ATOM      4  C   UNL     1       2.497  -0.039  -0.568  0.00  0.00    +0.011 A 
ATOM      5  C   UNL     1       1.290  -0.782  -0.542  0.00  0.00    -0.014 A 
ATOM      6  C   UNL     1       0.117  -0.215  -1.063  0.00  0.00    +0.008 A 
ATOM      7  C   UNL     1       1.315  -2.075   0.013  0.00  0.00    +0.028 A 
ATOM      8  C   UNL     1       2.493  -2.560   0.501  0.00  0.00    +0.112 A 
ATOM      9  N   UNL     1       3.610  -1.853   0.469  0.00  0.00    -0.251 NA
ATOM     10  C   UNL     1       3.667  -0.631  -0.036  0.00  0.00    +0.113 A 
ENDROOT
BRANCH  10  11
ATOM     11  C   UNL     1       4.945   0.110  -0.045  0.00  0.00    +0.153 A 
ATOM     12  N   UNL     1       5.808   0.178   0.950  0.00  0.00    -0.316 N 
ATOM     13  H   UNL     1       5.026   0.963  -1.944  0.00  0.00    +0.191 HD
ATOM     14  C   UNL     1       6.848   0.933   0.592  0.00  0.00    +0.198 A 
ATOM     15  N   UNL     1       6.665   1.359  -0.639  0.00  0.00    -0.146 NA
ATOM     16  N   UNL     1       5.438   0.832  -1.076  0.00  0.00    -0.258 N 
ATOM     17  S   UNL     1       8.242   1.300   1.604  0.00  0.00    -0.010 SA
ATOM     18  H   UNL     1       5.703  -0.254   1.812  0.00  0.00    +0.169 HD
ENDBRANCH  10  11
TORSDOF 1
