REMARK  Name = ZINC64070832
REMARK  8 active torsions:
REMARK  status: ('A' for Active; 'I' for Inactive)
REMARK    1  A    between atoms: C_1  and  C_2
REMARK    2  A    between atoms: C_5  and  C_23
REMARK    3  A    between atoms: C_7  and  N_8
REMARK    4  A    between atoms: C_9  and  C_11
REMARK    5  A    between atoms: C_13  and  S_19
REMARK    6  A    between atoms: C_14  and  C_18
REMARK    7  A    between atoms: C_16  and  C_17
REMARK    8  A    between atoms: S_19  and  N_22
REMARK                            x       y       z     vdW  Elec       q    Type
REMARK                         _______ _______ _______ _____ _____    ______ ____
ROOT
ATOM      1  C   UNL     1      -0.114   0.059   4.860  0.00  0.00    +0.042 A 
ATOM      2  C   UNL     1      -0.244   1.448   4.858  0.00  0.00    +0.042 A 
ATOM      3  C   UNL     1      -0.398   2.126   6.050  0.00  0.00    +0.109 A 
ATOM      4  C   UNL     1      -0.423   1.430   7.246  0.00  0.00    -0.024 A 
ATOM      5  C   UNL     1      -0.293   0.053   7.255  0.00  0.00    +0.009 A 
ATOM      6  C   UNL     1      -0.145  -0.637   6.070  0.00  0.00    -0.038 A 
ATOM      7  C   UNL     1      -0.011  -2.138   6.081  0.00  0.00    +0.044 C 
ATOM      8  C   UNL     1      -0.590   2.176   8.544  0.00  0.00    +0.046 C 
ENDROOT
BRANCH   1  10
ATOM      9  N   UNL     1       0.146   0.006   2.426  0.00  0.00    -0.281 N 
ATOM     10  C   UNL     1       0.050  -0.674   3.587  0.00  0.00    +0.249 C 
ATOM     11  O   UNL     1       0.099  -1.888   3.586  0.00  0.00    -0.270 OA
ATOM     12  H   UNL     1       0.182   0.975   2.433  0.00  0.00    +0.155 HD
BRANCH   9  19
ATOM     13  C   UNL     1      -1.079   1.199   0.157  0.00  0.00    +0.045 C 
ATOM     14  C   UNL     1      -0.393  -0.141   0.077  0.00  0.00    -0.029 A 
ATOM     15  C   UNL     1      -0.344  -0.819  -1.127  0.00  0.00    +0.006 A 
ATOM     16  C   UNL     1       0.282  -2.045  -1.208  0.00  0.00    +0.019 A 
ATOM     17  C   UNL     1       0.870  -2.606  -0.072  0.00  0.00    +0.054 A 
ATOM     18  C   UNL     1       0.821  -1.922   1.143  0.00  0.00    +0.042 A 
ATOM     19  C   UNL     1       0.193  -0.687   1.212  0.00  0.00    +0.038 A 
BRANCH  17  20
ATOM     20  C   UNL     1       1.521  -3.879  -0.154  0.00  0.00    +0.099 C 
ATOM     21  N   UNL     1       2.037  -4.889  -0.218  0.00  0.00    -0.191 NA
ENDBRANCH  17  20
ENDBRANCH   9  19
ENDBRANCH   1  10
BRANCH   3  22
ATOM     22  S   UNL     1      -0.563   3.880   6.050  0.00  0.00    +0.056 S 
ATOM     23  O   UNL     1       0.351   4.374   7.020  0.00  0.00    -0.153 OA
ATOM     24  O   UNL     1      -0.526   4.291   4.690  0.00  0.00    -0.153 OA
BRANCH  22  25
ATOM     25  N   UNL     1      -2.082   4.229   6.609  0.00  0.00    -0.204 NA
ATOM     26  H   UNL     1      -2.683   3.511   6.860  0.00  0.00    +0.144 HD
ATOM     27  H   UNL     1      -2.370   5.152   6.684  0.00  0.00    +0.144 HD
ENDBRANCH  22  25
ENDBRANCH   3  22
TORSDOF 5
