REMARK  Name = ZINC37288906
REMARK  10 active torsions:
REMARK  status: ('A' for Active; 'I' for Inactive)
REMARK    1  A    between atoms: C_1  and  C_2
REMARK    2  A    between atoms: C_2  and  C_3
REMARK    3  A    between atoms: C_2  and  N_4
REMARK    4  A    between atoms: N_4  and  C_5
REMARK    5  A    between atoms: C_5  and  C_6
REMARK    6  A    between atoms: C_6  and  C_8
REMARK    7  A    between atoms: C_6  and  O_21
REMARK    8  A    between atoms: C_8  and  O_9
REMARK    9  A    between atoms: O_9  and  C_10
REMARK   10  A    between atoms: C_11  and  N_18
REMARK                            x       y       z     vdW  Elec       q    Type
REMARK                         _______ _______ _______ _____ _____    ______ ____
ROOT
ATOM      1  O   UNL     1       0.663  -0.608   6.054  0.00  0.00    -0.486 OA
ENDROOT
BRANCH   1   2
ATOM      2  C   UNL     1       0.104  -0.332   7.262  0.00  0.00    +0.165 A 
ATOM      3  C   UNL     1       0.346   0.887   7.876  0.00  0.00    +0.171 A 
ATOM      4  C   UNL     1      -0.223   1.167   9.104  0.00  0.00    +0.074 A 
ATOM      5  C   UNL     1      -1.034   0.231   9.721  0.00  0.00    +0.127 A 
ATOM      6  C   UNL     1      -1.278  -0.987   9.109  0.00  0.00    +0.057 A 
ATOM      7  C   UNL     1      -0.714  -1.268   7.878  0.00  0.00    +0.064 A 
ATOM      8 BR   UNL     1      -1.053  -2.928   7.039  0.00  0.00    -0.046 Br
ATOM      9  F   UNL     1      -1.590   0.505  10.922  0.00  0.00    -0.205 F 
BRANCH   3  10
ATOM     10  N   UNL     1       1.215   1.889   7.217  0.00  0.00    +0.060 N 
ATOM     11  O   UNL     1       1.426   2.952   7.753  0.00  0.00    -0.126 OA
ATOM     12  O   UNL     1       1.713   1.644   6.143  0.00  0.00    -0.126 OA
ENDBRANCH   3  10
ENDBRANCH   1   2
BRANCH   1  13
ATOM     13  C   UNL     1      -0.084  -0.238   4.893  0.00  0.00    +0.258 C 
BRANCH  13  14
ATOM     14  C   UNL     1       0.700  -0.626   3.637  0.00  0.00    +0.135 C 
BRANCH  14  15
ATOM     15  O   UNL     1       0.821  -2.048   3.571  0.00  0.00    -0.390 OA
ATOM     16  H   UNL     1      -0.025  -2.514   3.534  0.00  0.00    +0.210 HD
ENDBRANCH  14  15
BRANCH  14  17
ATOM     17  C   UNL     1      -0.040  -0.119   2.398  0.00  0.00    -0.047 C 
BRANCH  17  18
ATOM     18  N   UNL     1       0.713  -0.491   1.192  0.00  0.00    +0.382 N 
ATOM     19  H   UNL     1       0.798  -1.495   1.145  0.00  0.00    -0.085 HD
ATOM     20  H   UNL     1       1.632  -0.076   1.228  0.00  0.00    -0.085 HD
BRANCH  18  22
ATOM     21  C   UNL     1      -0.019   1.526   0.010  0.00  0.00    -0.014 C 
ATOM     22  C   UNL     1       0.002  -0.004   0.002  0.00  0.00    -0.078 C 
ATOM     23  C   UNL     1       0.718  -0.497  -1.257  0.00  0.00    -0.014 C 
ENDBRANCH  18  22
ENDBRANCH  17  18
ENDBRANCH  14  17
ENDBRANCH  13  14
ENDBRANCH   1  13
TORSDOF 8
