REMARK  Name = ZINC20220447
REMARK  7 active torsions:
REMARK  status: ('A' for Active; 'I' for Inactive)
REMARK    1  A    between atoms: C_1  and  O_2
REMARK    2  A    between atoms: O_2  and  C_3
REMARK    3  A    between atoms: C_3  and  C_5
REMARK    4  A    between atoms: C_9  and  C_10
REMARK    5  A    between atoms: C_13  and  O_16
REMARK    6  A    between atoms: C_26  and  C_28
REMARK    7  A    between atoms: C_31  and  O_34
REMARK                            x       y       z     vdW  Elec       q    Type
REMARK                         _______ _______ _______ _____ _____    ______ ____
ROOT
ATOM      1  C   UNL     1       3.378   0.768  -0.857  0.00  0.00    +0.110 C 
ATOM      2  C   UNL     1       2.010   0.769  -0.743  0.00  0.00    +0.224 A 
ATOM      3  N   UNL     1       1.333  -0.344  -0.346  0.00  0.00    -0.242 N 
ATOM      4  C   UNL     1      -0.036  -0.023  -0.328  0.00  0.00    +0.138 A 
ATOM      5  C   UNL     1      -1.068  -0.841   0.008  0.00  0.00    +0.041 C 
ATOM      6  C   UNL     1      -0.116   1.380  -0.748  0.00  0.00    +0.363 A 
ATOM      7  O   UNL     1      -1.127   2.047  -0.870  0.00  0.00    -0.243 OA
ATOM      8  O   UNL     1       1.147   1.784  -0.978  0.00  0.00    -0.403 OA
ATOM      9  C   UNL     1       1.960  -1.552  -0.032  0.00  0.00    +0.235 A 
ATOM     10  C   UNL     1       3.297  -1.693  -0.102  0.00  0.00    +0.119 A 
ATOM     11  N   UNL     1       3.606  -2.952   0.254  0.00  0.00    -0.197 NA
ATOM     12  C   UNL     1       2.496  -3.586   0.541  0.00  0.00    +0.287 A 
ATOM     13  O   UNL     1       1.462  -2.744   0.372  0.00  0.00    -0.408 OA
ATOM     14  N   UNL     1       2.403  -4.905   0.950  0.00  0.00    -0.313 N 
ATOM     15  C   UNL     1       4.127  -0.507  -0.533  0.00  0.00    +0.115 C 
ATOM     16  H   UNL     1       1.418  -5.345   1.167  0.00  0.00    +0.147 HD
ATOM     17  H   UNL     1       3.313  -5.513   1.057  0.00  0.00    +0.147 HD
ENDROOT
BRANCH   5  18
ATOM     18  C   UNL     1      -2.425  -0.296   0.135  0.00  0.00    -0.023 A 
ATOM     19  C   UNL     1      -2.631   0.941   0.759  0.00  0.00    +0.011 A 
ATOM     20  C   UNL     1      -3.905   1.449   0.871  0.00  0.00    +0.046 A 
ATOM     21  C   UNL     1      -4.988   0.733   0.375  0.00  0.00    +0.117 A 
ATOM     22  C   UNL     1      -4.790  -0.498  -0.241  0.00  0.00    +0.046 A 
ATOM     23  C   UNL     1      -3.520  -1.013  -0.363  0.00  0.00    +0.011 A 
BRANCH  21  24
ATOM     24  O   UNL     1      -6.243   1.236   0.492  0.00  0.00    -0.507 OA
ATOM     25  H   UNL     1      -7.102   0.671   0.100  0.00  0.00    +0.292 HD
ENDBRANCH  21  24
ENDBRANCH   5  18
BRANCH  15  26
ATOM     26  C   UNL     1       4.913  -0.908  -1.755  0.00  0.00    -0.033 A 
ATOM     27  C   UNL     1       4.252  -1.320  -2.897  0.00  0.00    +0.008 A 
ATOM     28  C   UNL     1       4.970  -1.682  -4.020  0.00  0.00    +0.046 A 
ATOM     29  C   UNL     1       6.356  -1.644  -3.997  0.00  0.00    +0.117 A 
ATOM     30  C   UNL     1       7.018  -1.235  -2.848  0.00  0.00    +0.046 A 
ATOM     31  C   UNL     1       6.295  -0.868  -1.729  0.00  0.00    +0.008 A 
BRANCH  29  32
ATOM     32  O   UNL     1       7.066  -2.005  -5.098  0.00  0.00    -0.507 OA
ATOM     33  H   UNL     1       8.165  -1.974  -5.080  0.00  0.00    +0.292 HD
ENDBRANCH  29  32
ENDBRANCH  15  26
BRANCH   1  34
ATOM     34  C   UNL     1       4.065   1.920  -1.265  0.00  0.00    +0.341 C 
ATOM     35  O   UNL     1       5.280   1.903  -1.362  0.00  0.00    -0.245 OA
BRANCH  34  37
ATOM     36  C   UNL     1       4.146   4.185  -1.960  0.00  0.00    +0.280 C 
ATOM     37  O   UNL     1       3.381   3.050  -1.550  0.00  0.00    -0.465 OA
ENDBRANCH  34  37
ENDBRANCH   1  34
TORSDOF 6
