REMARK  Name = ZINC49432421
REMARK  3 active torsions:
REMARK  status: ('A' for Active; 'I' for Inactive)
REMARK    1  A    between atoms: C_2  and  C_3
REMARK    2  A    between atoms: C_3  and  N_4
REMARK    3  A    between atoms: N_4  and  C_13
REMARK                            x       y       z     vdW  Elec       q    Type
REMARK                         _______ _______ _______ _____ _____    ______ ____
ROOT
ATOM      1  N   UNL     1       1.357   1.975  -0.000  0.00  0.00    -0.301 N 
ATOM      2  C   UNL     1       1.995   2.221  -1.205  0.00  0.00    +0.129 A 
ATOM      3  C   UNL     1       1.304   2.095  -2.411  0.00  0.00    +0.084 A 
ATOM      4  C   UNL     1       1.981   2.351  -3.589  0.00  0.00    +0.136 A 
ATOM      5  N   UNL     1       3.258   2.706  -3.539  0.00  0.00    -0.203 NA
ATOM      6  C   UNL     1       3.888   2.818  -2.379  0.00  0.00    +0.216 A 
ATOM      7  N   UNL     1       3.273   2.586  -1.228  0.00  0.00    -0.200 NA
ATOM      8  N   UNL     1       5.221   3.191  -2.368  0.00  0.00    -0.327 N 
ATOM      9 CL   UNL     1       1.170   2.208  -5.117  0.00  0.00    -0.062 Cl
ATOM     10  H   UNL     1       5.682   3.367  -3.203  0.00  0.00    +0.145 HD
ATOM     11  H   UNL     1       5.694   3.276  -1.525  0.00  0.00    +0.145 HD
ENDROOT
BRANCH   1  12
ATOM     12  C   UNL     1       2.056   2.222   1.263  0.00  0.00    +0.076 C 
ATOM     13  C   UNL     1       2.149   0.917   2.058  0.00  0.00    +0.022 C 
ATOM     14  C   UNL     1       2.879   1.175   3.377  0.00  0.00    +0.002 C 
ATOM     15  C   UNL     1       2.108   2.215   4.192  0.00  0.00    +0.000 C 
ATOM     16  C   UNL     1       2.015   3.519   3.398  0.00  0.00    +0.002 C 
ATOM     17  C   UNL     1       1.284   3.261   2.079  0.00  0.00    +0.022 C 
ENDBRANCH   1  12
BRANCH   1  18
ATOM     18  C   UNL     1      -0.018   1.468   0.010  0.00  0.00    +0.195 C 
BRANCH  18  20
ATOM     19  C   UNL     1       0.018  -1.178  -0.004  0.00  0.00    +0.005 C 
ATOM     20  C   UNL     1       0.002  -0.004   0.002  0.00  0.00    -0.086 C 
ENDBRANCH  18  20
ENDBRANCH   1  18
TORSDOF 3
