REMARK  Name = ZINC05818824
REMARK  4 active torsions:
REMARK  status: ('A' for Active; 'I' for Inactive)
REMARK    1  A    between atoms: CG_2  and  CB_7
REMARK    2  A    between atoms: CB_7  and  CA_8
REMARK    3  A    between atoms: CA_8  and  C_10
REMARK    4  A    between atoms: CA_8  and  N_12
REMARK                            x       y       z     vdW  Elec       q    Type
REMARK                         _______ _______ _______ _____ _____    ______ ____
ROOT
ATOM      1  N   HIS A   1      -0.491   4.229  -0.886  0.00  0.00    -0.315 N 
ATOM      2  C   UNK A   0       0.876   4.426  -0.807  0.00  0.00    +0.131 A 
ATOM      3  C   UNK A   0       1.786   3.348  -0.609  0.00  0.00    +0.051 A 
ATOM      4  C   UNK A   0       1.460   1.939  -0.465  0.00  0.00    -0.025 A 
ATOM      5  C   UNK A   0       2.498   1.091  -0.285  0.00  0.00    -0.004 A 
ATOM      6  S   UNK A   0       3.947   2.117  -0.298  0.00  0.00    -0.073 S 
ATOM      7  C   UNK A   0       3.164   3.677  -0.545  0.00  0.00    +0.114 A 
ATOM      8  N   UNK A   0       3.620   4.909  -0.658  0.00  0.00    -0.228 NA
ATOM      9  C   UNK A   0       2.719   5.866  -0.841  0.00  0.00    +0.224 A 
ATOM     10  N   UNK A   0       1.423   5.636  -0.911  0.00  0.00    -0.220 NA
ATOM     11  C   UNK A   0       2.436  -0.395  -0.113  0.00  0.00    +0.043 C 
ATOM     12  C   UNK A   0       0.985  -0.789   0.199  0.00  0.00    +0.005 C 
ATOM     13  C   UNK A   0       0.061  -0.088  -0.801  0.00  0.00    +0.005 C 
ATOM     14  C   UNK A   0       0.028   1.413  -0.512  0.00  0.00    +0.037 C 
ATOM     15  H   HIS A   1      -0.864   3.348  -0.725  0.00  0.00    +0.148 HD
ENDROOT
BRANCH   1  16
ATOM     16  CA  HIS A   1      -1.375   5.350  -1.214  0.00  0.00    +0.191 C 
BRANCH  16  17
ATOM     17  C   HIS A   1      -1.704   6.114   0.043  0.00  0.00    +0.376 C 
ATOM     18  O   HIS A   1      -1.247   5.758   1.103  0.00  0.00    -0.244 OA
ATOM     19  OXT HIS A   1      -2.505   7.189  -0.016  0.00  0.00    -0.244 OA
ENDBRANCH  16  17
BRANCH  16  20
ATOM     20  CB  HIS A   1      -2.666   4.816  -1.839  0.00  0.00    +0.088 C 
BRANCH  20  22
ATOM     21  CD2 HIS A   1      -2.243   4.768  -4.353  0.00  0.00    +0.133 A 
ATOM     22  CG  HIS A   1      -2.351   4.158  -3.157  0.00  0.00    +0.038 A 
ATOM     23  ND1 HIS A   1      -2.125   2.825  -3.371  0.00  0.00    -0.348 N 
ATOM     24  HD1 HIS A   1      -2.138   2.102  -2.679  0.00  0.00    +0.166 HD
ATOM     25  CE1 HIS A   1      -1.881   2.667  -4.690  0.00  0.00    +0.196 A 
ATOM     26  NE2 HIS A   1      -1.950   3.834  -5.270  0.00  0.00    -0.244 NA
ENDBRANCH  20  22
ENDBRANCH  16  20
ENDBRANCH   1  16
TORSDOF 4
