REMARK  Name = ZINC37773632
REMARK  10 active torsions:
REMARK  status: ('A' for Active; 'I' for Inactive)
REMARK    1  A    between atoms: C_1  and  C_2
REMARK    2  A    between atoms: C_2  and  C_4
REMARK    3  A    between atoms: C_2  and  N_10
REMARK    4  A    between atoms: C_4  and  C_5
REMARK    5  A    between atoms: C_5  and  C_6
REMARK    6  A    between atoms: C_5  and  C_7
REMARK    7  A    between atoms: C_5  and  O_8
REMARK    8  A    between atoms: O_8  and  C_9
REMARK    9  A    between atoms: N_10  and  C_11
REMARK   10  A    between atoms: C_13  and  N_18
REMARK                            x       y       z     vdW  Elec       q    Type
REMARK                         _______ _______ _______ _____ _____    ______ ____
ROOT
ATOM      1  C   UNL     1      -0.172  -0.503   2.352  0.00  0.00    +0.065 A 
ATOM      2  C   UNL     1      -1.547  -0.322   2.344  0.00  0.00    +0.053 A 
ATOM      3  C   UNL     1      -2.271  -0.468   3.518  0.00  0.00    +0.071 A 
ATOM      4  C   UNL     1      -1.618  -0.796   4.699  0.00  0.00    +0.031 A 
ATOM      5  C   UNL     1      -0.248  -0.976   4.707  0.00  0.00    +0.042 A 
ATOM      6  C   UNL     1       0.476  -0.836   3.537  0.00  0.00    +0.144 A 
ATOM      7  F   UNL     1       1.815  -1.018   3.546  0.00  0.00    -0.204 F 
ENDROOT
BRANCH   3   8
ATOM      8  N   UNL     1      -3.662  -0.285   3.512  0.00  0.00    -0.200 N 
ATOM      9  C   UNL     1      -4.506  -0.385   4.562  0.00  0.00    +0.250 A 
ATOM     10  N   UNL     1      -5.711  -0.138   4.116  0.00  0.00    -0.116 NA
ATOM     11  N   UNL     1      -5.685   0.110   2.856  0.00  0.00    -0.023 NA
ATOM     12  N   UNL     1      -4.475   0.047   2.414  0.00  0.00    -0.039 NA
ENDBRANCH   3   8
BRANCH   1  13
ATOM     13  N   UNL     1       0.561  -0.356   1.170  0.00  0.00    -0.339 N 
ATOM     14  H   UNL     1       1.522  -0.487   1.176  0.00  0.00    +0.146 HD
BRANCH  13  16
ATOM     15  C   UNL     1      -0.283   1.514  -0.161  0.00  0.00    +0.028 C 
ATOM     16  C   UNL     1      -0.123  -0.005  -0.077  0.00  0.00    +0.070 C 
BRANCH  16  17
ATOM     17  C   UNL     1       0.703  -0.498  -1.267  0.00  0.00    +0.056 C 
BRANCH  17  18
ATOM     18  C   UNL     1       0.739  -2.027  -1.265  0.00  0.00    +0.065 C 
ATOM     19  C   UNL     1      -0.687  -2.571  -1.370  0.00  0.00    +0.041 C 
ATOM     20  C   UNL     1       1.562  -2.520  -2.457  0.00  0.00    +0.041 C 
BRANCH  18  21
ATOM     21  O   UNL     1       1.336  -2.488  -0.051  0.00  0.00    -0.377 OA
ATOM     22  C   UNL     1       1.419  -3.911   0.052  0.00  0.00    +0.194 C 
ENDBRANCH  18  21
ENDBRANCH  17  18
ENDBRANCH  16  17
ENDBRANCH  13  16
ENDBRANCH   1  13
TORSDOF 6
