REMARK  Name = ZINC12892797
REMARK  18 active torsions:
REMARK  status: ('A' for Active; 'I' for Inactive)
REMARK    1  A    between atoms: C_1  and  C_2
REMARK    2  A    between atoms: C_9  and  C_38
REMARK    3  A    between atoms: C_10  and  C_17
REMARK    4  A    between atoms: C_15  and  C_16
REMARK    5  A    between atoms: C_17  and  C_18
REMARK    6  A    between atoms: C_18  and  C_19
REMARK    7  A    between atoms: N_21  and  C_22
REMARK    8  A    between atoms: N_21  and  C_23
REMARK    9  A    between atoms: C_23  and  C_24
REMARK   10  A    between atoms: C_24  and  C_26
REMARK   11  A    between atoms: C_24  and  O_37
REMARK   12  A    between atoms: C_26  and  C_28
REMARK   13  A    between atoms: C_26  and  O_36
REMARK   14  A    between atoms: C_28  and  C_30
REMARK   15  A    between atoms: C_28  and  O_35
REMARK   16  A    between atoms: C_30  and  C_32
REMARK   17  A    between atoms: C_30  and  O_34
REMARK   18  A    between atoms: C_32  and  O_33
REMARK                            x       y       z     vdW  Elec       q    Type
REMARK                         _______ _______ _______ _____ _____    ______ ____
ROOT
ATOM      1  C   UNL     1      -3.036  -1.804  -1.423  0.00  0.00    +0.216 C 
ATOM      2  O   UNL     1      -3.547  -2.121  -0.369  0.00  0.00    -0.276 OA
ATOM      3  N   UNL     1      -3.625  -2.144  -2.586  0.00  0.00    -0.302 N 
ATOM      4  C   UNL     1      -3.008  -1.761  -3.858  0.00  0.00    +0.132 C 
ENDROOT
BRANCH   1   5
ATOM      5  C   UNL     1      -1.742  -1.031  -1.430  0.00  0.00    +0.101 C 
BRANCH   5   6
ATOM      6  C   UNL     1      -1.291  -0.777   0.010  0.00  0.00    +0.052 C 
BRANCH   6  16
ATOM      7  C   UNL     1       6.898  -1.374  -0.073  0.00  0.00    +0.047 C 
ATOM      8  C   UNL     1       6.257  -0.011  -0.060  0.00  0.00    -0.005 A 
ATOM      9  C   UNL     1       6.883   1.173  -0.060  0.00  0.00    +0.199 A 
ATOM     10  O   UNL     1       5.987   2.175  -0.046  0.00  0.00    -0.462 OA
ATOM     11  C   UNL     1       4.726   1.695  -0.035  0.00  0.00    +0.141 A 
ATOM     12  C   UNL     1       4.818   0.288  -0.044  0.00  0.00    +0.024 A 
ATOM     13  C   UNL     1       3.670  -0.492  -0.036  0.00  0.00    +0.023 A 
ATOM     14  C   UNL     1       2.422   0.130  -0.020  0.00  0.00    +0.022 A 
ATOM     15  C   UNL     1       1.189  -0.663  -0.013  0.00  0.00    -0.030 A 
ATOM     16  C   UNL     1       0.002  -0.004   0.002  0.00  0.00    +0.041 A 
ATOM     17  C   UNL     1      -0.017   1.407   0.010  0.00  0.00    +0.341 A 
ATOM     18  O   UNL     1      -1.089   1.985   0.018  0.00  0.00    -0.245 OA
ATOM     19  O   UNL     1       1.114   2.129   0.003  0.00  0.00    -0.422 OA
ATOM     20  C   UNL     1       2.330   1.538  -0.012  0.00  0.00    +0.146 A 
ATOM     21  C   UNL     1       3.481   2.306  -0.019  0.00  0.00    +0.035 A 
ATOM     22  C   UNL     1       3.382   3.810  -0.010  0.00  0.00    +0.051 C 
ATOM     23  C   UNL     1       1.237  -2.169  -0.022  0.00  0.00    +0.045 C 
ENDBRANCH   6  16
ENDBRANCH   5   6
ENDBRANCH   1   5
BRANCH   3  24
ATOM     24  C   UNL     1      -4.882  -2.896  -2.579  0.00  0.00    +0.141 C 
BRANCH  24  25
ATOM     25  C   UNL     1      -6.060  -1.919  -2.563  0.00  0.00    +0.163 C 
BRANCH  25  26
ATOM     26  O   UNL     1      -5.986  -1.103  -1.392  0.00  0.00    -0.388 OA
ATOM     27  H   UNL     1      -6.016  -1.600  -0.563  0.00  0.00    +0.210 HD
ENDBRANCH  25  26
BRANCH  25  28
ATOM     28  C   UNL     1      -7.373  -2.704  -2.555  0.00  0.00    +0.175 C 
BRANCH  28  29
ATOM     29  O   UNL     1      -7.447  -3.520  -3.725  0.00  0.00    -0.387 OA
ATOM     30  H   UNL     1      -7.417  -3.023  -4.554  0.00  0.00    +0.210 HD
ENDBRANCH  28  29
BRANCH  28  31
ATOM     31  C   UNL     1      -8.551  -1.728  -2.539  0.00  0.00    +0.176 C 
BRANCH  31  32
ATOM     32  O   UNL     1      -8.435  -0.823  -3.639  0.00  0.00    -0.387 OA
ATOM     33  H   UNL     1      -8.433  -1.254  -4.504  0.00  0.00    +0.210 HD
ENDBRANCH  31  32
BRANCH  31  34
ATOM     34  C   UNL     1      -9.862  -2.508  -2.657  0.00  0.00    +0.171 C 
BRANCH  34  35
ATOM     35  O   UNL     1      -9.979  -3.413  -1.557  0.00  0.00    -0.387 OA
ATOM     36  H   UNL     1      -9.980  -2.981  -0.691  0.00  0.00    +0.210 HD
ENDBRANCH  34  35
BRANCH  34  37
ATOM     37  C   UNL     1     -11.040  -1.531  -2.641  0.00  0.00    +0.189 C 
BRANCH  37  38
ATOM     38  O   UNL     1     -12.255  -2.248  -2.868  0.00  0.00    -0.392 OA
ATOM     39  H   UNL     1     -13.046  -1.690  -2.870  0.00  0.00    +0.210 HD
ENDBRANCH  37  38
ENDBRANCH  34  37
ENDBRANCH  31  34
ENDBRANCH  28  31
ENDBRANCH  25  28
ENDBRANCH  24  25
ENDBRANCH   3  24
TORSDOF 14
