REMARK  Name = ZINC20153300
REMARK  9 active torsions:
REMARK  status: ('A' for Active; 'I' for Inactive)
REMARK    1  A    between atoms: C_1  and  O_2
REMARK    2  A    between atoms: O_2  and  C_3
REMARK    3  A    between atoms: C_4  and  N_13
REMARK    4  A    between atoms: C_6  and  C_10
REMARK    5  A    between atoms: N_13  and  C_14
REMARK    6  A    between atoms: C_14  and  N_16
REMARK    7  A    between atoms: C_17  and  C_19
REMARK    8  A    between atoms: C_21  and  N_31
REMARK    9  A    between atoms: C_24  and  N_25
REMARK                            x       y       z     vdW  Elec       q    Type
REMARK                         _______ _______ _______ _____ _____    ______ ____
ROOT
ATOM      1  N   UNL     1      -3.488  -0.442  -3.464  0.00  0.00    -0.264 N 
ATOM      2  C   UNL     1      -4.183  -0.653  -4.599  0.00  0.00    +0.251 C 
ATOM      3  O   UNL     1      -3.647  -1.191  -5.549  0.00  0.00    -0.270 OA
ATOM      4  H   UNL     1      -3.915  -0.012  -2.707  0.00  0.00    +0.157 HD
ENDROOT
BRANCH   2   5
ATOM      5  C   UNL     1      -5.592  -0.231  -4.690  0.00  0.00    +0.060 A 
ATOM      6  C   UNL     1      -6.210   0.394  -3.603  0.00  0.00    +0.047 A 
ATOM      7  C   UNL     1      -7.527   0.786  -3.695  0.00  0.00    +0.127 A 
ATOM      8  C   UNL     1      -8.245   0.564  -4.859  0.00  0.00    +0.034 A 
ATOM      9  C   UNL     1      -7.649  -0.051  -5.941  0.00  0.00    +0.026 A 
ATOM     10  C   UNL     1      -6.320  -0.448  -5.870  0.00  0.00    +0.042 A 
BRANCH  10  11
ATOM     11  N   UNL     1      -5.716  -1.062  -6.960  0.00  0.00    -0.325 N 
ATOM     12  C   UNL     1      -5.757  -2.524  -7.124  0.00  0.00    +0.133 C 
ATOM     13  C   UNL     1      -6.242  -2.837  -8.544  0.00  0.00    +0.178 C 
ATOM     14  O   UNL     1      -5.444  -2.115  -9.485  0.00  0.00    -0.377 OA
ATOM     15  C   UNL     1      -5.538  -0.694  -9.362  0.00  0.00    +0.178 C 
ATOM     16  C   UNL     1      -5.021  -0.270  -7.987  0.00  0.00    +0.133 C 
ENDBRANCH  10  11
BRANCH   7  17
ATOM     17  N   UNL     1      -8.180   1.448  -2.542  0.00  0.00    +0.056 N 
ATOM     18  O   UNL     1      -7.557   1.643  -1.525  0.00  0.00    -0.126 OA
ATOM     19  O   UNL     1      -9.336   1.793  -2.619  0.00  0.00    -0.126 OA
ENDBRANCH   7  17
ENDBRANCH   2   5
BRANCH   1  20
ATOM     20  C   UNL     1      -2.199  -0.828  -3.381  0.00  0.00    +0.141 C 
ATOM     21  S   UNL     1      -1.445  -1.586  -4.718  0.00  0.00    -0.018 S 
BRANCH  20  22
ATOM     22  N   UNL     1      -1.504  -0.616  -2.246  0.00  0.00    -0.294 N 
ATOM     23  H   UNL     1      -1.948  -0.244  -1.468  0.00  0.00    +0.154 HD
BRANCH  22  25
ATOM     24  C   UNL     1       0.769  -0.018  -1.660  0.00  0.00    +0.159 A 
ATOM     25  C   UNL     1      -0.141  -0.935  -2.189  0.00  0.00    +0.077 A 
ATOM     26  C   UNL     1       0.303  -2.157  -2.658  0.00  0.00    +0.042 A 
ATOM     27  C   UNL     1       1.665  -2.472  -2.599  0.00  0.00    +0.067 A 
ATOM     28  C   UNL     1       2.571  -1.548  -2.067  0.00  0.00    +0.039 A 
ATOM     29  C   UNL     1       2.122  -0.329  -1.607  0.00  0.00    +0.085 A 
ATOM     30 CL   UNL     1       3.249   0.819  -0.954  0.00  0.00    -0.080 Cl
BRANCH  27  31
ATOM     31  C   UNL     1       2.144  -3.772  -3.096  0.00  0.00    +0.387 C 
ATOM     32  O   UNL     1       1.351  -4.580  -3.561  0.00  0.00    -0.241 OA
ATOM     33  O   UNL     1       3.335  -4.046  -3.045  0.00  0.00    -0.241 OA
ENDBRANCH  27  31
BRANCH  24  35
ATOM     34  C   UNL     1       0.283   2.258  -2.140  0.00  0.00    +0.277 C 
ATOM     35  O   UNL     1       0.331   1.182  -1.200  0.00  0.00    -0.492 OA
ENDBRANCH  24  35
ENDBRANCH  22  25
ENDBRANCH  20  22
ENDBRANCH   1  20
TORSDOF 8
