REMARK  Name = ZINC65499176
REMARK  10 active torsions:
REMARK  status: ('A' for Active; 'I' for Inactive)
REMARK    1  A    between atoms: C_1  and  C_2
REMARK    2  A    between atoms: C_5  and  C_8
REMARK    3  A    between atoms: C_8  and  N_9
REMARK    4  A    between atoms: N_12  and  C_13
REMARK    5  A    between atoms: C_13  and  C_14
REMARK    6  A    between atoms: N_16  and  C_17
REMARK    7  A    between atoms: C_20  and  C_23
REMARK    8  A    between atoms: N_25  and  C_26
REMARK    9  A    between atoms: C_26  and  C_27
REMARK   10  A    between atoms: C_26  and  C_28
REMARK                            x       y       z     vdW  Elec       q    Type
REMARK                         _______ _______ _______ _____ _____    ______ ____
ROOT
ATOM      1  C   UNL     1       4.764  -8.152  -0.071  0.00  0.00    +0.234 C 
ATOM      2  O   UNL     1       5.514  -7.199  -0.079  0.00  0.00    -0.274 OA
ATOM      3  N   UNL     1       5.265  -9.403  -0.078  0.00  0.00    -0.284 N 
ATOM      4  H   UNL     1       4.668 -10.165  -0.004  0.00  0.00    +0.155 HD
ENDROOT
BRANCH   3   5
ATOM      5  C   UNL     1       6.640  -9.603  -0.192  0.00  0.00    +0.033 A 
ATOM      6  C   UNL     1       7.523  -8.710   0.406  0.00  0.00    +0.024 A 
ATOM      7  C   UNL     1       8.882  -8.905   0.296  0.00  0.00    +0.015 A 
ATOM      8  C   UNL     1       9.373 -10.001  -0.418  0.00  0.00    +0.037 A 
ATOM      9  C   UNL     1       8.483 -10.897  -1.018  0.00  0.00    +0.015 A 
ATOM     10  C   UNL     1       7.126 -10.699  -0.899  0.00  0.00    +0.024 A 
BRANCH   8  11
ATOM     11  C   UNL     1      10.829 -10.213  -0.539  0.00  0.00    +0.244 C 
ATOM     12  O   UNL     1      11.602  -9.433  -0.018  0.00  0.00    -0.270 OA
ATOM     13  N   UNL     1      11.301 -11.271  -1.228  0.00  0.00    -0.309 N 
ATOM     14  H   UNL     1      10.684 -11.893  -1.644  0.00  0.00    +0.149 HD
BRANCH  13  15
ATOM     15  C   UNL     1      12.746 -11.480  -1.348  0.00  0.00    +0.067 C 
ATOM     16  C   UNL     1      13.255 -12.239  -0.121  0.00  0.00    +0.027 C 
ATOM     17  C   UNL     1      13.040 -12.296  -2.609  0.00  0.00    +0.027 C 
ENDBRANCH  13  15
ENDBRANCH   8  11
ENDBRANCH   3   5
BRANCH   1  18
ATOM     18  C   UNL     1       3.273  -7.937  -0.053  0.00  0.00    +0.202 C 
BRANCH  18  22
ATOM     19  N   UNL     1       1.446  -4.746  -0.028  0.00  0.00    -0.295 N 
ATOM     20  C   UNL     1       1.710  -6.068  -0.032  0.00  0.00    +0.300 C 
ATOM     21  O   UNL     1       0.796  -6.870  -0.021  0.00  0.00    -0.253 OA
ATOM     22  N   UNL     1       2.986  -6.501  -0.048  0.00  0.00    -0.291 N 
ATOM     23  H   UNL     1       2.175  -4.106  -0.036  0.00  0.00    +0.151 HD
ATOM     24  H   UNL     1       3.715  -5.861  -0.056  0.00  0.00    +0.151 HD
BRANCH  19  25
ATOM     25  C   UNL     1       0.059  -4.276  -0.010  0.00  0.00    +0.141 C 
BRANCH  25  30
ATOM     26  C   UNL     1      -0.020   1.502  -0.004  0.00  0.00    +0.044 C 
ATOM     27  C   UNL     1       0.001  -0.005  -0.006  0.00  0.00    -0.050 A 
ATOM     28  C   UNL     1      -0.004  -0.695  -1.204  0.00  0.00    +0.003 A 
ATOM     29  C   UNL     1       0.015  -2.077  -1.205  0.00  0.00    +0.005 A 
ATOM     30  C   UNL     1       0.039  -2.769  -0.009  0.00  0.00    -0.030 A 
ATOM     31  C   UNL     1       0.044  -2.079   1.189  0.00  0.00    +0.005 A 
ATOM     32  C   UNL     1       0.030  -0.697   1.190  0.00  0.00    +0.003 A 
ENDBRANCH  25  30
ENDBRANCH  19  25
ENDBRANCH  18  22
ENDBRANCH   1  18
TORSDOF 7
