REMARK  Name = ZINC38789700
REMARK  9 active torsions:
REMARK  status: ('A' for Active; 'I' for Inactive)
REMARK    1  A    between atoms: C_1  and  C_2
REMARK    2  A    between atoms: C_2  and  C_3
REMARK    3  A    between atoms: C_5  and  S_12
REMARK    4  A    between atoms: C_9  and  C_10
REMARK    5  A    between atoms: S_12  and  C_13
REMARK    6  A    between atoms: C_13  and  C_14
REMARK    7  A    between atoms: N_16  and  C_17
REMARK    8  A    between atoms: C_19  and  C_30
REMARK    9  A    between atoms: C_22  and  C_24
REMARK                            x       y       z     vdW  Elec       q    Type
REMARK                         _______ _______ _______ _____ _____    ______ ____
ROOT
ATOM      1  C   UNL     1       6.365  -0.634   0.300  0.00  0.00    +0.224 C 
ATOM      2  O   UNL     1       7.089  -1.015   1.195  0.00  0.00    -0.275 OA
ATOM      3  N   UNL     1       6.895  -0.254  -0.879  0.00  0.00    -0.302 N 
ATOM      4  H   UNL     1       6.315   0.051  -1.595  0.00  0.00    +0.150 HD
ENDROOT
BRANCH   3   5
ATOM      5  C   UNL     1       8.345  -0.301  -1.081  0.00  0.00    +0.151 C 
ATOM      6  C   UNL     1       8.712  -1.024  -2.402  0.00  0.00    +0.129 C 
ATOM      7  C   UNL     1       9.935  -1.866  -2.226  0.00  0.00    +0.004 C 
ATOM      8  C   UNL     1      10.328  -2.204  -0.998  0.00  0.00    +0.014 C 
ATOM      9  S   UNL     1       9.155  -1.446   0.113  0.00  0.00    -0.101 S 
BRANCH   8  10
ATOM     10  C   UNL     1      11.497  -3.036  -0.632  0.00  0.00    -0.012 A 
ATOM     11  C   UNL     1      12.326  -3.554  -1.625  0.00  0.00    +0.009 A 
ATOM     12  C   UNL     1      13.414  -4.329  -1.278  0.00  0.00    +0.001 A 
ATOM     13  C   UNL     1      13.682  -4.593   0.054  0.00  0.00    +0.000 A 
ATOM     14  C   UNL     1      12.862  -4.081   1.044  0.00  0.00    +0.001 A 
ATOM     15  C   UNL     1      11.775  -3.300   0.709  0.00  0.00    +0.009 A 
ENDBRANCH   8  10
BRANCH   6  16
ATOM     16  C   UNL     1       7.563  -1.904  -2.821  0.00  0.00    +0.220 C 
ATOM     17  O   UNL     1       6.558  -1.953  -2.144  0.00  0.00    -0.275 OA
ATOM     18  N   UNL     1       7.652  -2.637  -3.949  0.00  0.00    -0.329 N 
ATOM     19  H   UNL     1       8.455  -2.598  -4.491  0.00  0.00    +0.145 HD
ATOM     20  H   UNL     1       6.912  -3.204  -4.219  0.00  0.00    +0.145 HD
ENDBRANCH   6  16
ENDBRANCH   3   5
BRANCH   1  21
ATOM     21  C   UNL     1       4.873  -0.586   0.507  0.00  0.00    +0.173 C 
BRANCH  21  22
ATOM     22  S   UNL     1       4.476  -1.155   2.183  0.00  0.00    -0.078 S 
BRANCH  22  25
ATOM     23  C   UNL     1       0.731  -0.503   1.223  0.00  0.00    +0.066 A 
ATOM     24  N   UNL     1       2.051  -0.608   1.212  0.00  0.00    -0.227 NA
ATOM     25  C   UNL     1       2.720  -1.041   2.267  0.00  0.00    +0.170 A 
ATOM     26  N   UNL     1       2.086  -1.403   3.416  0.00  0.00    -0.301 N 
ATOM     27  C   UNL     1       0.741  -1.323   3.500  0.00  0.00    +0.270 A 
ATOM     28  O   UNL     1       0.160  -1.643   4.522  0.00  0.00    -0.266 OA
ATOM     29  C   UNL     1       0.018  -0.852   2.370  0.00  0.00    +0.137 A 
ATOM     30  H   UNL     1       2.601  -1.718   4.175  0.00  0.00    +0.171 HD
BRANCH  23  32
ATOM     31  C   UNL     1      -0.019   1.526   0.010  0.00  0.00    +0.010 C 
ATOM     32  C   UNL     1       0.002  -0.004   0.002  0.00  0.00    +0.053 C 
ENDBRANCH  23  32
BRANCH  29  33
ATOM     33  C   UNL     1      -1.409  -0.743   2.407  0.00  0.00    +0.106 C 
ATOM     34  N   UNL     1      -2.542  -0.656   2.437  0.00  0.00    -0.191 NA
ENDBRANCH  29  33
ENDBRANCH  22  25
ENDBRANCH  21  22
ENDBRANCH   1  21
TORSDOF 8
