REMARK  Name = ZINC62785750
REMARK  3 active torsions:
REMARK  status: ('A' for Active; 'I' for Inactive)
REMARK    1  A    between atoms: C_3  and  C_21
REMARK    2  A    between atoms: C_4  and  N_8
REMARK    3  A    between atoms: C_14  and  N_20
REMARK                            x       y       z     vdW  Elec       q    Type
REMARK                         _______ _______ _______ _____ _____    ______ ____
ROOT
ATOM      1  N   UNL     1       3.610  -0.669  -0.036  0.00  0.00    -0.329 N 
ATOM      2  C   UNL     1       4.368  -1.105   1.151  0.00  0.00    +0.109 C 
ATOM      3  C   UNL     1       5.616  -1.828   0.630  0.00  0.00    +0.011 C 
ATOM      4  C   UNL     1       6.057  -2.964   1.521  0.00  0.00    +0.004 C 
ATOM      5  C   UNL     1       5.026  -4.092   1.544  0.00  0.00    -0.016 C 
ATOM      6  C   UNL     1       4.838  -4.599   0.110  0.00  0.00    -0.075 C 
ATOM      7  C   UNL     1       4.255  -3.467  -0.732  0.00  0.00    -0.011 C 
ATOM      8  C   UNL     1       5.208  -2.298  -0.779  0.00  0.00    +0.009 C 
ATOM      9  C   UNL     1       4.348  -1.087  -1.244  0.00  0.00    +0.109 C 
ENDROOT
BRANCH   1  13
ATOM     10  C   UNL     1      -0.017   1.383   0.010  0.00  0.00    +0.021 A 
ATOM     11  C   UNL     1       1.162   2.095   0.002  0.00  0.00    +0.016 A 
ATOM     12  C   UNL     1       2.385   1.419  -0.013  0.00  0.00    +0.058 A 
ATOM     13  C   UNL     1       2.401   0.015  -0.021  0.00  0.00    +0.043 A 
ATOM     14  C   UNL     1       1.203  -0.687  -0.013  0.00  0.00    +0.044 A 
ATOM     15  C   UNL     1       0.002  -0.004   0.002  0.00  0.00    +0.043 A 
ATOM     16 CL   UNL     1      -1.492  -0.887   0.011  0.00  0.00    -0.083 Cl
BRANCH  12  17
ATOM     17  C   UNL     1       3.650   2.175  -0.022  0.00  0.00    +0.243 C 
ATOM     18  O   UNL     1       4.712   1.583  -0.035  0.00  0.00    -0.270 OA
ATOM     19  N   UNL     1       3.630   3.522  -0.015  0.00  0.00    -0.325 N 
ATOM     20  H   UNL     1       2.783   3.994  -0.004  0.00  0.00    +0.145 HD
ATOM     21  H   UNL     1       4.463   4.020  -0.020  0.00  0.00    +0.145 HD
ENDBRANCH  12  17
ENDBRANCH   1  13
BRANCH   6  22
ATOM     22  N   UNL     1       3.918  -5.745   0.108  0.00  0.00    +0.380 N 
ATOM     23  H   UNL     1       3.026  -5.460   0.482  0.00  0.00    -0.090 HD
ATOM     24  H   UNL     1       3.796  -6.076  -0.837  0.00  0.00    -0.090 HD
ATOM     25  H   UNL     1       4.301  -6.484   0.677  0.00  0.00    -0.090 HD
ENDBRANCH   6  22
TORSDOF 3
