REMARK  Name = ZINC24945572
REMARK  6 active torsions:
REMARK  status: ('A' for Active; 'I' for Inactive)
REMARK    1  A    between atoms: C_1  and  C_2
REMARK    2  A    between atoms: C_3  and  C_23
REMARK    3  A    between atoms: C_4  and  C_22
REMARK    4  A    between atoms: C_7  and  C_8
REMARK    5  A    between atoms: N_10  and  C_11
REMARK    6  A    between atoms: C_23  and  C_25
REMARK                            x       y       z     vdW  Elec       q    Type
REMARK                         _______ _______ _______ _____ _____    ______ ____
ROOT
ATOM      1  C   UNL     1      -1.124   1.719   0.016  0.00  0.00    +0.265 C 
ATOM      2  O   UNL     1      -1.037   2.930  -0.076  0.00  0.00    -0.268 OA
ATOM      3  N   UNL     1      -0.009   0.962   0.006  0.00  0.00    -0.279 N 
ATOM      4  H   UNL     1      -0.089  -0.135   0.019  0.00  0.00    +0.155 HD
ENDROOT
BRANCH   3   5
ATOM      5  C   UNL     1       1.252   1.571  -0.020  0.00  0.00    +0.051 A 
ATOM      6  C   UNL     1       1.436   2.755  -0.720  0.00  0.00    +0.073 A 
ATOM      7  C   UNL     1       2.683   3.361  -0.742  0.00  0.00    +0.164 A 
ATOM      8  C   UNL     1       3.750   2.776  -0.069  0.00  0.00    +0.163 A 
ATOM      9  C   UNL     1       3.564   1.590   0.625  0.00  0.00    +0.066 A 
ATOM     10  C   UNL     1       2.320   0.988   0.650  0.00  0.00    +0.043 A 
ATOM     11 BR   UNL     1       2.071  -0.630   1.596  0.00  0.00    -0.048 Br
ATOM     12  O   UNL     1       4.982   3.356  -0.080  0.00  0.00    -0.485 OA
ATOM     13  C   UNL     1       5.221   4.342  -1.090  0.00  0.00    +0.270 C 
ATOM     14  C   UNL     1       4.016   5.292  -1.127  0.00  0.00    +0.270 C 
ATOM     15  O   UNL     1       2.848   4.523  -1.432  0.00  0.00    -0.485 OA
ENDBRANCH   3   5
BRANCH   1  22
ATOM     16  C   UNL     1      -3.855   3.222   0.077  0.00  0.00    +0.047 C 
ATOM     17  C   UNL     1      -3.640   1.733   0.164  0.00  0.00    -0.010 A 
ATOM     18  C   UNL     1      -4.644   0.743   0.286  0.00  0.00    +0.041 A 
ATOM     19  C   UNL     1      -3.999  -0.483   0.338  0.00  0.00    +0.024 A 
ATOM     20  N   UNL     1      -2.678  -0.269   0.247  0.00  0.00    -0.354 N 
ATOM     21  H   UNL     1      -1.980  -1.119   0.269  0.00  0.00    +0.166 HD
ATOM     22  C   UNL     1      -2.442   1.084   0.136  0.00  0.00    +0.106 A 
ATOM     23  C   UNL     1      -4.667  -1.827   0.473  0.00  0.00    +0.064 C 
BRANCH  18  24
ATOM     24  C   UNL     1      -6.091   0.971   0.352  0.00  0.00    +0.162 C 
ATOM     25  O   UNL     1      -6.643   1.050   1.429  0.00  0.00    -0.292 OA
ATOM     26  C   UNL     1      -6.891   1.106  -0.917  0.00  0.00    +0.091 C 
ENDBRANCH  18  24
ENDBRANCH   1  22
TORSDOF 3
