REMARK  Name = ZINC20807035
REMARK  8 active torsions:
REMARK  status: ('A' for Active; 'I' for Inactive)
REMARK    1  A    between atoms: C_1  and  C_2
REMARK    2  A    between atoms: C_5  and  C_8
REMARK    3  A    between atoms: N_9  and  N_10
REMARK    4  A    between atoms: C_14  and  S_17
REMARK    5  A    between atoms: N_15  and  N_16
REMARK    6  A    between atoms: S_17  and  C_18
REMARK    7  A    between atoms: C_18  and  C_19
REMARK    8  A    between atoms: C_24  and  C_25
REMARK                            x       y       z     vdW  Elec       q    Type
REMARK                         _______ _______ _______ _____ _____    ______ ____
ROOT
ATOM      1  N   UNL     1      -2.693   2.837   7.492  0.00  0.00    -0.204 N 
ATOM      2  C   UNL     1      -1.989   2.255   6.448  0.00  0.00    +0.254 A 
ATOM      3  N   UNL     1      -0.685   2.211   6.327  0.00  0.00    -0.109 NA
ATOM      4  N   UNL     1      -0.383   1.538   5.136  0.00  0.00    -0.119 NA
ATOM      5  C   UNL     1      -1.514   1.192   4.568  0.00  0.00    +0.210 A 
ATOM      6  N   UNL     1      -2.536   1.631   5.361  0.00  0.00    -0.211 N 
ATOM      7  H   UNL     1      -3.792   2.817   7.494  0.00  0.00    +0.177 HD
ENDROOT
BRANCH   6   8
ATOM      8  N   UNL     1      -3.869   1.471   5.112  0.00  0.00    -0.294 N 
ATOM      9  H   UNL     1      -4.201   0.951   4.202  0.00  0.00    +0.163 HD
ATOM     10  H   UNL     1      -4.612   1.863   5.823  0.00  0.00    +0.163 HD
ENDBRANCH   6   8
BRANCH   1  12
ATOM     11  C   UNL     1      -2.660   3.996   9.523  0.00  0.00    +0.138 C 
ATOM     12  N   UNL     1      -2.002   3.451   8.546  0.00  0.00    -0.188 NA
BRANCH  11  17
ATOM     13  C   UNL     1       0.176   6.516  13.846  0.00  0.00    +0.044 C 
ATOM     14  C   UNL     1      -0.567   5.856  12.713  0.00  0.00    -0.050 A 
ATOM     15  C   UNL     1      -1.951   5.833  12.718  0.00  0.00    +0.004 A 
ATOM     16  C   UNL     1      -2.638   5.230  11.685  0.00  0.00    +0.010 A 
ATOM     17  C   UNL     1      -1.933   4.642  10.631  0.00  0.00    -0.005 A 
ATOM     18  C   UNL     1      -0.536   4.665  10.636  0.00  0.00    +0.010 A 
ATOM     19  C   UNL     1       0.137   5.276  11.673  0.00  0.00    +0.004 A 
ENDBRANCH  11  17
ENDBRANCH   1  12
BRANCH   5  20
ATOM     20  S   UNL     1      -1.684   0.321   3.046  0.00  0.00    -0.080 S 
BRANCH  20  21
ATOM     21  C   UNL     1       0.025   0.045   2.504  0.00  0.00    +0.112 C 
BRANCH  21  22
ATOM     22  C   UNL     1       0.023  -0.702   1.195  0.00  0.00    -0.034 A 
ATOM     23  C   UNL     1       0.041  -2.084   1.188  0.00  0.00    +0.005 A 
ATOM     24  C   UNL     1       0.039  -2.768  -0.013  0.00  0.00    +0.000 A 
ATOM     25  C   UNL     1       0.018  -2.071  -1.207  0.00  0.00    +0.000 A 
ATOM     26  C   UNL     1      -0.006  -0.689  -1.199  0.00  0.00    +0.003 A 
ATOM     27  C   UNL     1       0.002  -0.004   0.002  0.00  0.00    -0.046 A 
ATOM     28  C   UNL     1      -0.018   1.503   0.010  0.00  0.00    +0.044 C 
ENDBRANCH  21  22
ENDBRANCH  20  21
ENDBRANCH   5  20
TORSDOF 6
