REMARK  Name = ZINC38828211
REMARK  5 active torsions:
REMARK  status: ('A' for Active; 'I' for Inactive)
REMARK    1  A    between atoms: C_1  and  C_2
REMARK    2  A    between atoms: C_5  and  N_9
REMARK    3  A    between atoms: C_10  and  C_12
REMARK    4  A    between atoms: C_27  and  C_35
REMARK    5  A    between atoms: C_32  and  C_34
REMARK                            x       y       z     vdW  Elec       q    Type
REMARK                         _______ _______ _______ _____ _____    ______ ____
ROOT
ATOM      1  C   UNL     1      -0.194  -6.647  -1.107  0.00  0.00    +0.122 C 
ATOM      2  C   UNL     1       1.091  -7.195  -0.483  0.00  0.00    +0.114 C 
ATOM      3  C   UNL     1       2.254  -6.923  -1.401  0.00  0.00    +0.219 C 
ATOM      4  O   UNL     1       3.333  -6.630  -0.931  0.00  0.00    -0.275 OA
ATOM      5  N   UNL     1       2.109  -7.003  -2.735  0.00  0.00    -0.270 N 
ATOM      6  C   UNL     1       0.868  -7.232  -3.302  0.00  0.00    +0.138 A 
ATOM      7  C   UNL     1      -0.280  -7.081  -2.545  0.00  0.00    +0.069 A 
ATOM      8  C   UNL     1      -1.522  -7.338  -3.134  0.00  0.00    +0.258 A 
ATOM      9  O   UNL     1      -2.553  -7.226  -2.490  0.00  0.00    -0.267 OA
ATOM     10  N   UNL     1      -1.558  -7.713  -4.431  0.00  0.00    -0.295 N 
ATOM     11  H   UNL     1      -2.408  -7.911  -4.855  0.00  0.00    +0.172 HD
ATOM     12  C   UNL     1      -0.403  -7.812  -5.144  0.00  0.00    +0.200 A 
ATOM     13  N   UNL     1       0.767  -7.574  -4.591  0.00  0.00    -0.200 NA
ATOM     14  N   UNL     1      -0.460  -8.168  -6.465  0.00  0.00    -0.295 N 
ATOM     15  C   UNL     1       0.771  -8.424  -7.225  0.00  0.00    +0.073 C 
ATOM     16  C   UNL     1       0.671  -9.807  -7.876  0.00  0.00    +0.022 C 
ATOM     17  C   UNL     1      -0.610  -9.882  -8.710  0.00  0.00    +0.004 C 
ATOM     18  C   UNL     1      -1.825  -9.687  -7.801  0.00  0.00    +0.022 C 
ATOM     19  C   UNL     1      -1.754  -8.308  -7.147  0.00  0.00    +0.073 C 
ATOM     20  C   UNL     1      -1.885  -7.228  -8.223  0.00  0.00    +0.028 C 
ATOM     21  C   UNL     1       1.974  -8.384  -6.281  0.00  0.00    +0.028 C 
ATOM     22  H   UNL     1       2.885  -6.898  -3.307  0.00  0.00    +0.156 HD
ENDROOT
BRANCH   1  24
ATOM     23  N   UNL     1      -0.112  -4.523   0.159  0.00  0.00    -0.283 N 
ATOM     24  C   UNL     1      -0.184  -5.142  -1.036  0.00  0.00    +0.225 C 
ATOM     25  O   UNL     1      -0.241  -4.487  -2.055  0.00  0.00    -0.275 OA
ATOM     26  H   UNL     1      -0.000  -5.045   0.969  0.00  0.00    +0.155 HD
BRANCH  23  31
ATOM     27  C   UNL     1      -0.467   1.134   0.451  0.00  0.00    +0.044 C 
ATOM     28  C   UNL     1      -0.373  -0.368   0.374  0.00  0.00    -0.048 A 
ATOM     29  C   UNL     1       0.239  -0.967  -0.712  0.00  0.00    +0.005 A 
ATOM     30  C   UNL     1       0.327  -2.344  -0.786  0.00  0.00    +0.026 A 
ATOM     31  C   UNL     1      -0.200  -3.128   0.232  0.00  0.00    +0.069 A 
ATOM     32  C   UNL     1      -0.815  -2.524   1.323  0.00  0.00    +0.145 A 
ATOM     33  C   UNL     1      -0.895  -1.145   1.393  0.00  0.00    +0.043 A 
ATOM     34  F   UNL     1      -1.329  -3.283   2.315  0.00  0.00    -0.204 F 
ENDBRANCH  23  31
ENDBRANCH   1  24
TORSDOF 2
