REMARK  Name = ZINC05069479
REMARK  7 active torsions:
REMARK  status: ('A' for Active; 'I' for Inactive)
REMARK    1  A    between atoms: C_1  and  C_2
REMARK    2  A    between atoms: C_8  and  N_10
REMARK    3  A    between atoms: C_11  and  C_13
REMARK    4  A    between atoms: C_13  and  C_26
REMARK    5  A    between atoms: C_14  and  C_15
REMARK    6  A    between atoms: C_16  and  C_17
REMARK    7  A    between atoms: C_22  and  N_23
REMARK                            x       y       z     vdW  Elec       q    Type
REMARK                         _______ _______ _______ _____ _____    ______ ____
ROOT
ATOM      1  C   UNL     1       0.371   1.336   4.689  0.00  0.00    +0.113 C 
ATOM      2  C   UNL     1       1.029   1.460   5.903  0.00  0.00    +0.024 C 
ENDROOT
BRANCH   1   4
ATOM      3  N   UNL     1       0.501   0.999   2.276  0.00  0.00    -0.308 N 
ATOM      4  C   UNL     1       1.140   1.120   3.456  0.00  0.00    +0.255 C 
ATOM      5  O   UNL     1       2.354   1.049   3.500  0.00  0.00    -0.269 OA
ATOM      6  H   UNL     1      -0.467   1.055   2.240  0.00  0.00    +0.149 HD
BRANCH   3  13
ATOM      7  C   UNL     1       0.177   2.781   0.015  0.00  0.00    +0.009 C 
ATOM      8  C   UNL     1       0.461   1.287  -0.153  0.00  0.00    +0.006 C 
ATOM      9  C   UNL     1      -0.862   0.522  -0.235  0.00  0.00    +0.005 C 
ATOM     10  C   UNL     1      -0.578  -0.972  -0.404  0.00  0.00    +0.000 C 
ATOM     11  C   UNL     1       0.228  -1.475   0.795  0.00  0.00    +0.002 C 
ATOM     12  C   UNL     1       1.551  -0.711   0.878  0.00  0.00    +0.022 C 
ATOM     13  C   UNL     1       1.267   0.783   1.046  0.00  0.00    +0.076 C 
ENDBRANCH   3  13
ENDBRANCH   1   4
BRANCH   2  14
ATOM     14  C   UNL     1       0.294   1.667   7.081  0.00  0.00    +0.002 C 
ATOM     15  C   UNL     1       0.939   1.789   8.270  0.00  0.00    +0.010 C 
BRANCH  15  16
ATOM     16  C   UNL     1       0.170   2.005   9.502  0.00  0.00    +0.005 A 
ATOM     17  C   UNL     1      -1.168   2.413   9.436  0.00  0.00    +0.010 A 
ATOM     18  C   UNL     1      -1.882   2.614  10.597  0.00  0.00    +0.001 A 
ATOM     19  C   UNL     1      -1.280   2.414  11.828  0.00  0.00    +0.002 A 
ATOM     20  C   UNL     1       0.043   2.011  11.903  0.00  0.00    +0.033 A 
ATOM     21  C   UNL     1       0.769   1.800  10.751  0.00  0.00    +0.133 A 
BRANCH  21  22
ATOM     22  N   UNL     1       2.181   1.363  10.833  0.00  0.00    +0.057 N 
ATOM     23  O   UNL     1       2.618   0.575  10.027  0.00  0.00    -0.126 OA
ATOM     24  O   UNL     1       2.897   1.794  11.707  0.00  0.00    -0.126 OA
ENDBRANCH  21  22
ENDBRANCH  15  16
ENDBRANCH   2  14
BRANCH   1  25
ATOM     25  C   UNL     1      -1.057   1.419   4.637  0.00  0.00    +0.104 C 
ATOM     26  N   UNL     1      -2.191   1.485   4.596  0.00  0.00    -0.191 NA
ENDBRANCH   1  25
TORSDOF 6
