REMARK  Name = ZINC39953181
REMARK  6 active torsions:
REMARK  status: ('A' for Active; 'I' for Inactive)
REMARK    1  A    between atoms: C_1  and  C_2
REMARK    2  A    between atoms: C_9  and  C_11
REMARK    3  A    between atoms: N_12  and  N_13
REMARK    4  A    between atoms: C_17  and  C_20
REMARK    5  A    between atoms: C_18  and  N_19
REMARK    6  A    between atoms: C_23  and  C_26
REMARK                            x       y       z     vdW  Elec       q    Type
REMARK                         _______ _______ _______ _____ _____    ______ ____
ROOT
ATOM      1  N   UNL     1       2.247   0.527   3.970  0.00  0.00    -0.204 N 
ATOM      2  C   UNL     1       3.645   0.413   3.526  0.00  0.00    +0.212 C 
ATOM      3  C   UNL     1       4.457   0.970   4.676  0.00  0.00    +0.184 C 
ATOM      4  O   UNL     1       5.669   1.069   4.737  0.00  0.00    -0.290 OA
ATOM      5  C   UNL     1       3.536   1.346   5.646  0.00  0.00    +0.068 C 
ATOM      6  C   UNL     1       2.256   1.085   5.216  0.00  0.00    +0.114 C 
ENDROOT
BRANCH   5   7
ATOM      7  C   UNL     1       3.889   1.956   6.978  0.00  0.00    +0.200 C 
ATOM      8  N   UNL     1       4.814   1.088   7.734  0.00  0.00    -0.268 NA
ATOM      9  C   UNL     1       5.856   1.578   8.273  0.00  0.00    +0.055 C 
ATOM     10  C   UNL     1       6.120   3.069   8.118  0.00  0.00    +0.127 C 
ATOM     11  S   UNL     1       4.926   3.468   6.764  0.00  0.00    -0.123 S 
BRANCH   9  12
ATOM     12  C   UNL     1       6.787   0.721   9.032  0.00  0.00    -0.003 A 
ATOM     13  C   UNL     1       7.924   1.275   9.624  0.00  0.00    +0.011 A 
ATOM     14  C   UNL     1       8.791   0.469  10.332  0.00  0.00    +0.020 A 
ATOM     15  C   UNL     1       8.536  -0.887  10.456  0.00  0.00    +0.041 A 
ATOM     16  C   UNL     1       7.410  -1.442   9.870  0.00  0.00    +0.020 A 
ATOM     17  C   UNL     1       6.532  -0.645   9.165  0.00  0.00    +0.011 A 
ATOM     18 CL   UNL     1       9.632  -1.895  11.348  0.00  0.00    -0.084 Cl
ENDBRANCH   9  12
ENDBRANCH   5   7
BRANCH   6  19
ATOM     19  N   UNL     1       1.129   1.350   5.947  0.00  0.00    -0.345 N 
ATOM     20  H   UNL     1       0.255   1.139   5.585  0.00  0.00    +0.144 HD
ATOM     21  H   UNL     1       1.206   1.749   6.828  0.00  0.00    +0.144 HD
ENDBRANCH   6  19
BRANCH   1  23
ATOM     22  C   UNL     1       1.244  -0.375   2.078  0.00  0.00    +0.122 C 
ATOM     23  N   UNL     1       1.113   0.139   3.243  0.00  0.00    -0.190 NA
BRANCH  22  32
ATOM     24  C   UNL     1      -0.018   1.503   0.010  0.00  0.00    +0.059 C 
ATOM     25  C   UNL     1       0.002  -0.004   0.002  0.00  0.00    +0.027 C 
ATOM     26  N   UNL     1       0.006  -0.666  -1.113  0.00  0.00    -0.171 NA
ATOM     27  C   UNL     1       0.024  -2.001  -1.163  0.00  0.00    +0.329 C 
ATOM     28  O   UNL     1       0.026  -2.523  -2.261  0.00  0.00    -0.250 OA
ATOM     29  N   UNL     1       0.041  -2.806  -0.093  0.00  0.00    -0.238 N 
ATOM     30  C   UNL     1       0.040  -2.304   1.162  0.00  0.00    +0.234 C 
ATOM     31  O   UNL     1       0.055  -3.027   2.135  0.00  0.00    -0.274 OA
ATOM     32  C   UNL     1       0.025  -0.792   1.297  0.00  0.00    +0.160 C 
ATOM     33  H   UNL     1       0.054  -3.768  -0.221  0.00  0.00    +0.159 HD
ENDBRANCH  22  32
ENDBRANCH   1  23
TORSDOF 5
