REMARK  Name = ZINC00959073
REMARK  11 active torsions:
REMARK  status: ('A' for Active; 'I' for Inactive)
REMARK    1  A    between atoms: C_1  and  C_2
REMARK    2  A    between atoms: C_3  and  C_22
REMARK    3  A    between atoms: C_4  and  C_12
REMARK    4  A    between atoms: C_14  and  O_20
REMARK    5  A    between atoms: C_15  and  O_19
REMARK    6  A    between atoms: O_20  and  C_21
REMARK    7  A    between atoms: C_22  and  O_24
REMARK    8  A    between atoms: O_24  and  C_25
REMARK    9  A    between atoms: C_25  and  C_26
REMARK   10  A    between atoms: C_26  and  C_27
REMARK   11  A    between atoms: C_26  and  C_28
REMARK                            x       y       z     vdW  Elec       q    Type
REMARK                         _______ _______ _______ _____ _____    ______ ____
ROOT
ATOM      1  C   UNL     1      -0.018   1.503   0.010  0.00  0.00    +0.061 C 
ATOM      2  C   UNL     1       0.002  -0.004   0.002  0.00  0.00    +0.020 C 
ATOM      3  C   UNL     1      -1.164  -0.668   0.004  0.00  0.00    +0.082 C 
ATOM      4  C   UNL     1      -1.253  -2.171   0.008  0.00  0.00    +0.179 C 
ATOM      5  N   UNL     1       0.061  -2.737  -0.283  0.00  0.00    -0.221 N 
ATOM      6  C   UNL     1       1.207  -2.012  -0.280  0.00  0.00    +0.218 A 
ATOM      7  N   UNL     1       2.193  -2.817  -0.570  0.00  0.00    -0.201 NA
ATOM      8  C   UNL     1       1.720  -4.051  -0.766  0.00  0.00    +0.247 A 
ATOM      9  N   UNL     1       0.420  -4.046  -0.602  0.00  0.00    -0.156 NA
ATOM     10  N   UNL     1       1.212  -0.651  -0.013  0.00  0.00    -0.287 N 
ATOM     11  H   UNL     1       2.040  -0.175   0.160  0.00  0.00    +0.155 HD
ENDROOT
BRANCH   4  12
ATOM     12  C   UNL     1      -1.716  -2.644   1.362  0.00  0.00    -0.014 A 
ATOM     13  C   UNL     1      -2.884  -3.375   1.476  0.00  0.00    +0.055 A 
ATOM     14  C   UNL     1      -3.311  -3.810   2.720  0.00  0.00    +0.163 A 
ATOM     15  C   UNL     1      -2.562  -3.510   3.853  0.00  0.00    +0.173 A 
ATOM     16  C   UNL     1      -1.392  -2.777   3.733  0.00  0.00    +0.063 A 
ATOM     17  C   UNL     1      -0.969  -2.350   2.487  0.00  0.00    +0.025 A 
ATOM     18 BR   UNL     1      -0.370  -2.367   5.271  0.00  0.00    -0.046 Br
BRANCH  15  19
ATOM     19  O   UNL     1      -2.977  -3.935   5.077  0.00  0.00    -0.503 OA
ATOM     20  H   UNL     1      -2.640  -4.806   5.326  0.00  0.00    +0.292 HD
ENDBRANCH  15  19
BRANCH  14  21
ATOM     21  O   UNL     1      -4.460  -4.529   2.833  0.00  0.00    -0.491 OA
ATOM     22  C   UNL     1      -5.178  -4.799   1.627  0.00  0.00    +0.277 C 
ENDBRANCH  14  21
ENDBRANCH   4  12
BRANCH   3  23
ATOM     23  C   UNL     1      -2.364   0.077   0.003  0.00  0.00    +0.339 C 
ATOM     24  O   UNL     1      -2.324   1.294   0.000  0.00  0.00    -0.245 OA
BRANCH  23  25
ATOM     25  O   UNL     1      -3.554  -0.559   0.005  0.00  0.00    -0.461 OA
BRANCH  25  26
ATOM     26  C   UNL     1      -4.726   0.258   0.004  0.00  0.00    +0.235 C 
BRANCH  26  27
ATOM     27  C   UNL     1      -5.970  -0.634   0.006  0.00  0.00    +0.020 C 
ATOM     28  C   UNL     1      -7.222   0.236   0.131  0.00  0.00    +0.010 C 
ATOM     29  C   UNL     1      -6.029  -1.430  -1.299  0.00  0.00    +0.010 C 
ENDBRANCH  26  27
ENDBRANCH  25  26
ENDBRANCH  23  25
ENDBRANCH   3  23
TORSDOF 7
