REMARK  Name = ZINC11965234
REMARK  9 active torsions:
REMARK  status: ('A' for Active; 'I' for Inactive)
REMARK    1  A    between atoms: C_1  and  C_2
REMARK    2  A    between atoms: C_2  and  C_3
REMARK    3  A    between atoms: C_2  and  C_4
REMARK    4  A    between atoms: C_4  and  C_5
REMARK    5  A    between atoms: C_5  and  C_7
REMARK    6  A    between atoms: C_5  and  N_55
REMARK    7  A    between atoms: C_10  and  N_55
REMARK    8  A    between atoms: N_16  and  C_19
REMARK    9  A    between atoms: C_19  and  C_20
REMARK                            x       y       z     vdW  Elec       q    Type
REMARK                         _______ _______ _______ _____ _____    ______ ____
ROOT
ATOM      1  C   UNL     1       2.779   0.779   1.491  0.00  0.00    -0.069 C 
ATOM      2  C   UNL     1       1.898  -0.441   1.686  0.00  0.00    -0.007 C 
ATOM      3  C   UNL     1       1.861  -0.853   3.160  0.00  0.00    +0.094 C 
ATOM      4  C   UNL     1       3.058  -1.736   3.442  0.00  0.00    +0.216 C 
ATOM      5  O   UNL     1       2.901  -2.922   3.639  0.00  0.00    -0.276 OA
ATOM      6  N   UNL     1       4.285  -1.213   3.474  0.00  0.00    -0.297 N 
ATOM      7  C   UNL     1       4.488   0.226   3.244  0.00  0.00    +0.106 C 
ATOM      8  C   UNL     1       4.250   0.523   1.762  0.00  0.00    +0.003 C 
ENDROOT
BRANCH   1   9
ATOM      9  N   UNL     1       2.637   1.244   0.098  0.00  0.00    +0.389 N 
ATOM     10  H   UNL     1       3.535   1.619  -0.227  0.00  0.00    -0.084 HD
ATOM     11  H   UNL     1       2.362   0.453  -0.496  0.00  0.00    -0.084 HD
BRANCH   9  12
ATOM     12  C   UNL     1       1.609   2.297   0.012  0.00  0.00    +0.016 C 
BRANCH  12  13
ATOM     13  C   UNL     1       0.350   1.721  -0.586  0.00  0.00    +0.196 C 
ATOM     14  O   UNL     1       0.395   0.678  -1.203  0.00  0.00    -0.278 OA
ATOM     15  N   UNL     1      -0.823   2.368  -0.438  0.00  0.00    -0.331 N 
ATOM     16  H   UNL     1      -1.632   1.999  -0.826  0.00  0.00    +0.145 HD
ATOM     17  H   UNL     1      -0.858   3.202   0.056  0.00  0.00    +0.145 HD
ENDBRANCH  12  13
BRANCH  12  18
ATOM     18  C   UNL     1       2.122   3.431  -0.878  0.00  0.00    -0.004 C 
BRANCH  18  20
ATOM     19  C   UNL     1       3.917   5.147  -1.153  0.00  0.00    +0.007 C 
ATOM     20  C   UNL     1       3.327   4.098  -0.210  0.00  0.00    -0.018 C 
ATOM     21  C   UNL     1       2.880   4.773   1.089  0.00  0.00    +0.007 C 
ENDBRANCH  18  20
ENDBRANCH  12  18
ENDBRANCH   9  12
ENDBRANCH   1   9
BRANCH   6  22
ATOM     22  C   UNL     1       5.437  -2.078   3.742  0.00  0.00    +0.144 C 
BRANCH  22  23
ATOM     23  C   UNL     1       5.882  -2.732   2.459  0.00  0.00    -0.008 A 
ATOM     24  C   UNL     1       5.470  -4.018   2.162  0.00  0.00    +0.056 A 
ATOM     25  C   UNL     1       5.877  -4.622   0.985  0.00  0.00    +0.167 A 
ATOM     26  C   UNL     1       6.703  -3.932   0.101  0.00  0.00    +0.168 A 
ATOM     27  C   UNL     1       7.112  -2.643   0.403  0.00  0.00    +0.070 A 
ATOM     28  C   UNL     1       6.697  -2.044   1.579  0.00  0.00    +0.049 A 
ATOM     29 CL   UNL     1       7.206  -0.427   1.954  0.00  0.00    -0.083 Cl
ATOM     30  O   UNL     1       6.961  -4.734  -0.973  0.00  0.00    -0.453 OA
ATOM     31  C   UNL     1       6.621  -6.067  -0.548  0.00  0.00    +0.466 C 
ATOM     32  O   UNL     1       5.618  -5.858   0.464  0.00  0.00    -0.453 OA
ENDBRANCH  22  23
ENDBRANCH   6  22
TORSDOF 7
