REMARK  Name = ZINC00875041
REMARK  14 active torsions:
REMARK  status: ('A' for Active; 'I' for Inactive)
REMARK    1  A    between atoms: C_1  and  C_2
REMARK    2  A    between atoms: C_9  and  C_14
REMARK    3  A    between atoms: C_14  and  N_15
REMARK    4  A    between atoms: N_15  and  C_16
REMARK    5  A    between atoms: N_15  and  C_26
REMARK    6  A    between atoms: C_16  and  C_17
REMARK    7  A    between atoms: C_26  and  N_28
REMARK    8  A    between atoms: N_28  and  C_29
REMARK    9  A    between atoms: C_29  and  C_30
REMARK   10  A    between atoms: C_30  and  C_31
REMARK   11  A    between atoms: C_34  and  O_39
REMARK   12  A    between atoms: C_35  and  O_37
REMARK   13  A    between atoms: O_37  and  C_38
REMARK   14  A    between atoms: O_39  and  C_40
REMARK                            x       y       z     vdW  Elec       q    Type
REMARK                         _______ _______ _______ _____ _____    ______ ____
ROOT
ATOM      1  N   UNL     1      -1.280  -5.404   3.976  0.00  0.00    -0.304 N 
ENDROOT
BRANCH   1   2
ATOM      2  C   UNL     1      -2.022  -4.605   4.769  0.00  0.00    +0.133 C 
ATOM      3  S   UNL     1      -1.363  -3.141   5.364  0.00  0.00    -0.019 S 
BRANCH   2   4
ATOM      4  N   UNL     1      -3.281  -4.959   5.093  0.00  0.00    -0.326 N 
ATOM      5  H   UNL     1      -3.654  -5.789   4.756  0.00  0.00    +0.148 HD
BRANCH   4   6
ATOM      6  C   UNL     1      -4.087  -4.090   5.954  0.00  0.00    +0.108 C 
BRANCH   6   7
ATOM      7  C   UNL     1      -5.466  -4.719   6.165  0.00  0.00    +0.054 C 
BRANCH   7   8
ATOM      8  C   UNL     1      -6.295  -3.825   7.051  0.00  0.00    -0.042 A 
ATOM      9  C   UNL     1      -6.260  -3.990   8.423  0.00  0.00    +0.007 A 
ATOM     10  C   UNL     1      -7.018  -3.172   9.240  0.00  0.00    +0.049 A 
ATOM     11  C   UNL     1      -7.816  -2.186   8.684  0.00  0.00    +0.161 A 
ATOM     12  C   UNL     1      -7.852  -2.020   7.303  0.00  0.00    +0.162 A 
ATOM     13  C   UNL     1      -7.085  -2.839   6.490  0.00  0.00    +0.053 A 
BRANCH  12  14
ATOM     14  O   UNL     1      -8.634  -1.053   6.753  0.00  0.00    -0.491 OA
ATOM     15  C   UNL     1      -8.620  -0.940   5.328  0.00  0.00    +0.277 C 
ENDBRANCH  12  14
BRANCH  11  16
ATOM     16  O   UNL     1      -8.564  -1.381   9.486  0.00  0.00    -0.491 OA
ATOM     17  C   UNL     1      -8.478  -1.609  10.895  0.00  0.00    +0.277 C 
ENDBRANCH  11  16
ENDBRANCH   7   8
ENDBRANCH   6   7
ENDBRANCH   4   6
ENDBRANCH   2   4
ENDBRANCH   1   2
BRANCH   1  18
ATOM     18  C   UNL     1       0.089  -5.020   3.624  0.00  0.00    +0.147 C 
BRANCH  18  27
ATOM     19  C   UNL     1      -0.018   1.503   0.010  0.00  0.00    +0.044 C 
ATOM     20  C   UNL     1       0.002  -0.004   0.002  0.00  0.00    -0.050 A 
ATOM     21  C   UNL     1       0.006  -0.685  -1.208  0.00  0.00    +0.005 A 
ATOM     22  C   UNL     1       0.024  -2.063  -1.239  0.00  0.00    +0.026 A 
ATOM     23  C   UNL     1       0.040  -2.780  -0.047  0.00  0.00    +0.049 A 
ATOM     24  C   UNL     1       0.037  -2.086   1.177  0.00  0.00    -0.001 A 
ATOM     25  C   UNL     1       0.023  -0.687   1.185  0.00  0.00    +0.013 A 
ATOM     26  C   UNL     1       0.053  -2.850   2.426  0.00  0.00    +0.020 A 
ATOM     27  C   UNL     1       0.072  -4.204   2.357  0.00  0.00    +0.035 A 
ATOM     28  C   UNL     1       0.074  -4.852   1.103  0.00  0.00    +0.254 A 
ATOM     29  O   UNL     1       0.091  -6.070   1.064  0.00  0.00    -0.268 OA
ATOM     30  N   UNL     1       0.059  -4.159  -0.049  0.00  0.00    -0.322 N 
ATOM     31  H   UNL     1       0.061  -4.636  -0.893  0.00  0.00    +0.169 HD
ENDBRANCH  18  27
ENDBRANCH   1  18
BRANCH   1  32
ATOM     32  C   UNL     1      -1.843  -6.657   3.467  0.00  0.00    +0.142 C 
BRANCH  32  33
ATOM     33  C   UNL     1      -1.549  -7.771   4.439  0.00  0.00    -0.026 A 
ATOM     34  C   UNL     1      -0.385  -8.506   4.314  0.00  0.00    +0.009 A 
ATOM     35  C   UNL     1      -0.110  -9.529   5.202  0.00  0.00    +0.050 A 
ATOM     36  C   UNL     1      -1.003  -9.820   6.221  0.00  0.00    +0.166 A 
ATOM     37  C   UNL     1      -2.176  -9.080   6.347  0.00  0.00    +0.167 A 
ATOM     38  C   UNL     1      -2.441  -8.053   5.456  0.00  0.00    +0.054 A 
ATOM     39  O   UNL     1      -2.879  -9.556   7.416  0.00  0.00    -0.453 OA
ATOM     40  C   UNL     1      -2.325 -10.855   7.694  0.00  0.00    +0.466 C 
ATOM     41  O   UNL     1      -0.971 -10.759   7.211  0.00  0.00    -0.453 OA
ENDBRANCH  32  33
ENDBRANCH   1  32
TORSDOF 11
