REMARK  Name = ZINC39659263
REMARK  8 active torsions:
REMARK  status: ('A' for Active; 'I' for Inactive)
REMARK    1  A    between atoms: C_1  and  C_2
REMARK    2  A    between atoms: C_3  and  C_14
REMARK    3  A    between atoms: C_4  and  C_7
REMARK    4  A    between atoms: C_18  and  C_27
REMARK    5  A    between atoms: N_29  and  C_30
REMARK    6  A    between atoms: C_30  and  C_31
REMARK    7  A    between atoms: C_35  and  C_37
REMARK    8  A    between atoms: C_35  and  C_38
REMARK                            x       y       z     vdW  Elec       q    Type
REMARK                         _______ _______ _______ _____ _____    ______ ____
ROOT
ATOM      1  C   UNL     1      -2.450  -0.420   0.249  0.00  0.00    +0.252 C 
ATOM      2  O   UNL     1      -3.146  -0.353  -0.746  0.00  0.00    -0.270 OA
ATOM      3  N   UNL     1      -2.971  -0.125   1.456  0.00  0.00    -0.296 N 
ATOM      4  C   UNL     1      -2.266  -0.061   2.759  0.00  0.00    +0.121 C 
ATOM      5  C   UNL     1      -2.889   1.154   3.480  0.00  0.00    +0.100 C 
ATOM      6  C   UNL     1      -4.276   1.325   2.837  0.00  0.00    -0.004 C 
ATOM      7  C   UNL     1      -4.377   0.214   1.781  0.00  0.00    +0.115 C 
ATOM      8  C   UNL     1      -4.383   2.692   2.167  0.00  0.00    -0.010 C 
ATOM      9  C   UNL     1      -5.788   2.861   1.584  0.00  0.00    -0.082 C 
ATOM     10  N   UNL     1      -6.783   2.740   2.657  0.00  0.00    +0.379 N 
ATOM     11  C   UNL     1      -6.736   1.391   3.234  0.00  0.00    -0.082 C 
ATOM     12  C   UNL     1      -5.370   1.159   3.886  0.00  0.00    -0.010 C 
ATOM     13  H   UNL     1      -6.584   3.418   3.376  0.00  0.00    -0.086 HD
ATOM     14  H   UNL     1      -7.704   2.911   2.282  0.00  0.00    -0.086 HD
ENDROOT
BRANCH   1  17
ATOM     15  C   UNL     1      -0.054   1.470  -0.425  0.00  0.00    +0.090 C 
ATOM     16  C   UNL     1       0.018  -0.011  -0.158  0.00  0.00    +0.147 A 
ATOM     17  C   UNL     1      -1.038  -0.823   0.134  0.00  0.00    +0.106 A 
ATOM     18  C   UNL     1      -0.495  -2.178   0.314  0.00  0.00    +0.127 A 
ATOM     19  N   UNL     1       0.798  -2.097   0.126  0.00  0.00    -0.077 NA
ATOM     20  O   UNL     1       1.127  -0.755  -0.173  0.00  0.00    -0.359 OA
BRANCH  18  21
ATOM     21  C   UNL     1      -1.265  -3.401   0.645  0.00  0.00    +0.023 A 
ATOM     22  C   UNL     1      -2.647  -3.334   0.812  0.00  0.00    +0.011 A 
ATOM     23  C   UNL     1      -3.359  -4.476   1.120  0.00  0.00    +0.001 A 
ATOM     24  C   UNL     1      -2.703  -5.686   1.264  0.00  0.00    +0.001 A 
ATOM     25  C   UNL     1      -1.332  -5.759   1.100  0.00  0.00    +0.020 A 
ATOM     26  C   UNL     1      -0.610  -4.624   0.786  0.00  0.00    +0.050 A 
ATOM     27 CL   UNL     1       1.111  -4.719   0.573  0.00  0.00    -0.083 Cl
ENDBRANCH  18  21
ENDBRANCH   1  17
BRANCH   5  28
ATOM     28  C   UNL     1      -2.049   2.385   3.256  0.00  0.00    +0.218 C 
ATOM     29  O   UNL     1      -1.352   2.471   2.267  0.00  0.00    -0.275 OA
ATOM     30  N   UNL     1      -2.072   3.390   4.154  0.00  0.00    -0.312 N 
ATOM     31  H   UNL     1      -2.629   3.321   4.944  0.00  0.00    +0.149 HD
BRANCH  30  32
ATOM     32  C   UNL     1      -1.255   4.586   3.936  0.00  0.00    +0.138 C 
BRANCH  32  33
ATOM     33  C   UNL     1      -1.463   5.564   5.093  0.00  0.00    +0.164 C 
ATOM     34  C   UNL     1      -0.650   6.864   4.874  0.00  0.00    +0.196 C 
ATOM     35  O   UNL     1      -0.432   7.343   6.217  0.00  0.00    -0.347 OA
ATOM     36  C   UNL     1      -0.584   6.223   7.098  0.00  0.00    +0.165 C 
ATOM     37  O   UNL     1      -0.879   5.053   6.315  0.00  0.00    -0.342 OA
ATOM     38  C   UNL     1      -1.731   6.489   8.075  0.00  0.00    +0.074 C 
ATOM     39  C   UNL     1       0.713   6.005   7.880  0.00  0.00    +0.074 C 
ENDBRANCH  32  33
ENDBRANCH  30  32
ENDBRANCH   5  28
TORSDOF 5
