REMARK  Name = ZINC39601619
REMARK  11 active torsions:
REMARK  status: ('A' for Active; 'I' for Inactive)
REMARK    1  A    between atoms: C_1  and  C_2
REMARK    2  A    between atoms: C_2  and  O_3
REMARK    3  A    between atoms: O_3  and  C_4
REMARK    4  A    between atoms: C_7  and  C_10
REMARK    5  A    between atoms: C_14  and  C_23
REMARK    6  A    between atoms: N_25  and  C_26
REMARK    7  A    between atoms: C_26  and  C_27
REMARK    8  A    between atoms: C_27  and  O_28
REMARK    9  A    between atoms: O_28  and  C_29
REMARK   10  A    between atoms: C_29  and  C_30
REMARK   11  A    between atoms: C_30  and  O_31
REMARK                            x       y       z     vdW  Elec       q    Type
REMARK                         _______ _______ _______ _____ _____    ______ ____
ROOT
ATOM      1  C   UNL     1      -1.993  -6.078  -0.017  0.00  0.00    +0.247 C 
ATOM      2  O   UNL     1      -1.845  -4.873   0.055  0.00  0.00    -0.270 OA
ATOM      3  N   UNL     1      -3.231  -6.601  -0.113  0.00  0.00    -0.296 N 
ATOM      4  C   UNL     1      -4.518  -5.874  -0.226  0.00  0.00    +0.121 C 
ATOM      5  C   UNL     1      -5.345  -6.700  -1.236  0.00  0.00    +0.100 C 
ATOM      6  C   UNL     1      -4.749  -8.116  -1.167  0.00  0.00    -0.004 C 
ATOM      7  C   UNL     1      -3.614  -8.033  -0.136  0.00  0.00    +0.115 C 
ATOM      8  C   UNL     1      -5.809  -9.113  -0.708  0.00  0.00    -0.010 C 
ATOM      9  C   UNL     1      -5.208 -10.522  -0.704  0.00  0.00    -0.082 C 
ATOM     10  N   UNL     1      -4.740 -10.861  -2.053  0.00  0.00    +0.379 N 
ATOM     11  C   UNL     1      -3.656  -9.953  -2.449  0.00  0.00    -0.082 C 
ATOM     12  C   UNL     1      -4.191  -8.521  -2.528  0.00  0.00    -0.010 C 
ATOM     13  H   UNL     1      -4.400 -11.811  -2.060  0.00  0.00    -0.086 HD
ATOM     14  H   UNL     1      -5.505 -10.774  -2.705  0.00  0.00    -0.086 HD
ENDROOT
BRANCH   1  18
ATOM     15  C   UNL     1       1.394  -8.639   0.032  0.00  0.00    +0.121 A 
ATOM     16  C   UNL     1       0.206  -9.050   0.625  0.00  0.00    +0.046 A 
ATOM     17  C   UNL     1      -0.894  -8.223   0.611  0.00  0.00    +0.016 A 
ATOM     18  C   UNL     1      -0.815  -6.968   0.001  0.00  0.00    +0.037 A 
ATOM     19  C   UNL     1       0.381  -6.559  -0.594  0.00  0.00    +0.016 A 
ATOM     20  C   UNL     1       1.479  -7.390  -0.572  0.00  0.00    +0.046 A 
BRANCH  15  21
ATOM     21  O   UNL     1       2.477  -9.458   0.048  0.00  0.00    -0.492 OA
BRANCH  21  23
ATOM     22  C   UNL     1       3.637 -11.504   0.603  0.00  0.00    +0.048 C 
ATOM     23  C   UNL     1       2.321 -10.727   0.685  0.00  0.00    +0.225 C 
ENDBRANCH  21  23
ENDBRANCH  15  21
ENDBRANCH   1  18
BRANCH   5  24
ATOM     24  C   UNL     1      -5.197  -6.133  -2.624  0.00  0.00    +0.218 C 
ATOM     25  O   UNL     1      -4.141  -5.648  -2.971  0.00  0.00    -0.275 OA
ATOM     26  N   UNL     1      -6.238  -6.164  -3.479  0.00  0.00    -0.313 N 
ATOM     27  H   UNL     1      -7.083  -6.552  -3.202  0.00  0.00    +0.149 HD
BRANCH  26  28
ATOM     28  C   UNL     1      -6.094  -5.613  -4.829  0.00  0.00    +0.132 C 
BRANCH  28  29
ATOM     29  C   UNL     1      -7.412  -5.773  -5.589  0.00  0.00    +0.178 C 
BRANCH  29  30
ATOM     30  O   UNL     1      -8.422  -4.980  -4.963  0.00  0.00    -0.376 OA
BRANCH  30  31
ATOM     31  C   UNL     1      -9.700  -5.059  -5.598  0.00  0.00    +0.187 C 
BRANCH  31  32
ATOM     32  C   UNL     1     -10.698  -4.176  -4.847  0.00  0.00    +0.184 C 
BRANCH  32  33
ATOM     33  O   UNL     1     -10.303  -2.807  -4.961  0.00  0.00    -0.393 OA
ATOM     34  H   UNL     1     -10.892  -2.188  -4.508  0.00  0.00    +0.209 HD
ENDBRANCH  32  33
ENDBRANCH  31  32
ENDBRANCH  30  31
ENDBRANCH  29  30
ENDBRANCH  28  29
ENDBRANCH  26  28
ENDBRANCH   5  24
TORSDOF 10
