REMARK  Name = ZINC04322068
REMARK  3 active torsions:
REMARK  status: ('A' for Active; 'I' for Inactive)
REMARK    1  A    between atoms: C_3  and  C_10
REMARK    2  A    between atoms: C_5  and  N_7
REMARK    3  A    between atoms: N_15  and  C_16
REMARK                            x       y       z     vdW  Elec       q    Type
REMARK                         _______ _______ _______ _____ _____    ______ ____
ROOT
ATOM      1  C   UNL     1      -0.075   5.354   0.388  0.00  0.00    +0.080 A 
ATOM      2  C   UNL     1      -1.260   6.011   0.213  0.00  0.00    +0.076 A 
ATOM      3  S   UNL     1      -0.679   7.684  -0.037  0.00  0.00    -0.060 S 
ATOM      4  C   UNL     1       1.068   7.341   0.116  0.00  0.00    +0.163 A 
ATOM      5  N   UNL     1       1.064   6.040   0.340  0.00  0.00    -0.225 NA
ATOM      6  N   UNL     1       2.143   8.212   0.027  0.00  0.00    -0.293 N 
ATOM      7  H   UNL     1       3.049   7.866   0.031  0.00  0.00    +0.154 HD
ENDROOT
BRANCH   6   8
ATOM      8  C   UNL     1       1.921   9.590  -0.069  0.00  0.00    +0.053 A 
ATOM      9  C   UNL     1       0.808  10.158   0.536  0.00  0.00    +0.046 A 
ATOM     10  C   UNL     1       0.591  11.520   0.440  0.00  0.00    +0.061 A 
ATOM     11  C   UNL     1       1.483  12.317  -0.258  0.00  0.00    +0.061 A 
ATOM     12  C   UNL     1       2.593  11.753  -0.861  0.00  0.00    +0.043 A 
ATOM     13  C   UNL     1       2.817  10.393  -0.765  0.00  0.00    +0.064 A 
ATOM     14 CL   UNL     1       4.213   9.687  -1.517  0.00  0.00    -0.082 Cl
ATOM     15 CL   UNL     1       1.208  14.027  -0.376  0.00  0.00    -0.082 Cl
ATOM     16 CL   UNL     1      -0.800  12.232   1.196  0.00  0.00    -0.082 Cl
ENDBRANCH   6   8
BRANCH   1  19
ATOM     17  C   UNL     1      -1.234   1.817   0.918  0.00  0.00    +0.003 A 
ATOM     18  C   UNL     1      -1.255   3.178   0.692  0.00  0.00    +0.010 A 
ATOM     19  C   UNL     1      -0.059   3.892   0.636  0.00  0.00    +0.003 A 
ATOM     20  C   UNL     1       1.152   3.225   0.814  0.00  0.00    +0.042 A 
ATOM     21  C   UNL     1       1.161   1.865   1.045  0.00  0.00    +0.127 A 
ATOM     22  C   UNL     1      -0.029   1.162   1.100  0.00  0.00    +0.033 A 
BRANCH  21  23
ATOM     23  N   UNL     1       2.447   1.156   1.234  0.00  0.00    +0.056 N 
ATOM     24  O   UNL     1       2.456  -0.045   1.439  0.00  0.00    -0.126 OA
ATOM     25  O   UNL     1       3.495   1.773   1.187  0.00  0.00    -0.126 OA
ENDBRANCH  21  23
ENDBRANCH   1  19
TORSDOF 3
