REMARK  Name = ZINC35455520
REMARK  14 active torsions:
REMARK  status: ('A' for Active; 'I' for Inactive)
REMARK    1  A    between atoms: C_1  and  C_2
REMARK    2  A    between atoms: C_4  and  O_20
REMARK    3  A    between atoms: C_6  and  C_17
REMARK    4  A    between atoms: C_12  and  O_16
REMARK    5  A    between atoms: C_17  and  C_18
REMARK    6  A    between atoms: C_17  and  C_19
REMARK    7  A    between atoms: O_20  and  C_21
REMARK    8  A    between atoms: C_23  and  O_39
REMARK    9  A    between atoms: C_25  and  O_38
REMARK   10  A    between atoms: C_27  and  O_37
REMARK   11  A    between atoms: C_29  and  C_32
REMARK   12  A    between atoms: C_32  and  O_33
REMARK   13  A    between atoms: O_33  and  C_34
REMARK   14  A    between atoms: C_34  and  C_36
REMARK                            x       y       z     vdW  Elec       q    Type
REMARK                         _______ _______ _______ _____ _____    ______ ____
ROOT
ATOM      1  O   UNL     1      -0.948  -0.704  -3.344  0.00  0.00    -0.341 OA
ENDROOT
BRANCH   1   5
ATOM      2  C   UNL     1      -0.334   1.391   0.157  0.00  0.00    +0.039 C 
ATOM      3  C   UNL     1      -0.214  -0.106   0.046  0.00  0.00    -0.074 C 
ATOM      4  C   UNL     1      -0.120  -0.716  -1.104  0.00  0.00    +0.003 C 
ATOM      5  C   UNL     1      -0.083  -0.014  -2.429  0.00  0.00    +0.148 C 
ATOM      6  C   UNL     1       1.336  -0.021  -3.001  0.00  0.00    +0.025 C 
ATOM      7  C   UNL     1       2.378  -0.003  -1.891  0.00  0.00    +0.011 C 
ATOM      8  C   UNL     1       2.594  -1.389  -1.290  0.00  0.00    +0.033 C 
ATOM      9  C   UNL     1       2.953  -1.257   0.170  0.00  0.00    -0.049 C 
ATOM     10  C   UNL     1       4.007  -0.556   0.516  0.00  0.00    +0.010 C 
ATOM     11  C   UNL     1       2.124  -1.932   1.230  0.00  0.00    +0.140 C 
ATOM     12  C   UNL     1       1.209  -0.922   1.915  0.00  0.00    +0.040 C 
ATOM     13  C   UNL     1      -0.192  -0.934   1.312  0.00  0.00    +0.033 C 
BRANCH   6  14
ATOM     14  C   UNL     1       1.526  -1.237  -3.908  0.00  0.00    -0.011 C 
ATOM     15  C   UNL     1       0.716  -1.047  -5.192  0.00  0.00    +0.007 C 
ATOM     16  C   UNL     1       3.009  -1.384  -4.257  0.00  0.00    +0.007 C 
ENDBRANCH   6  14
BRANCH  11  17
ATOM     17  O   UNL     1       1.368  -2.998   0.660  0.00  0.00    -0.388 OA
ATOM     18  H   UNL     1       1.907  -3.687   0.249  0.00  0.00    +0.210 HD
ENDBRANCH  11  17
ENDBRANCH   1   5
BRANCH   1  19
ATOM     19  C   UNL     1      -2.319  -0.310  -3.257  0.00  0.00    +0.282 C 
ATOM     20  C   UNL     1      -3.190  -1.326  -4.000  0.00  0.00    +0.201 C 
ATOM     21  C   UNL     1      -4.650  -0.866  -3.954  0.00  0.00    +0.179 C 
ATOM     22  C   UNL     1      -4.750   0.538  -4.559  0.00  0.00    +0.178 C 
ATOM     23  C   UNL     1      -3.819   1.482  -3.795  0.00  0.00    +0.190 C 
ATOM     24  O   UNL     1      -2.482   0.980  -3.850  0.00  0.00    -0.339 OA
BRANCH  22  25
ATOM     25  O   UNL     1      -4.364   0.494  -5.934  0.00  0.00    -0.386 OA
ATOM     26  H   UNL     1      -4.911  -0.090  -6.478  0.00  0.00    +0.210 HD
ENDBRANCH  22  25
BRANCH  21  27
ATOM     27  O   UNL     1      -5.461  -1.771  -4.706  0.00  0.00    -0.386 OA
ATOM     28  H   UNL     1      -5.440  -2.681  -4.380  0.00  0.00    +0.210 HD
ENDBRANCH  21  27
BRANCH  20  29
ATOM     29  O   UNL     1      -2.760  -1.420  -5.360  0.00  0.00    -0.384 OA
ATOM     30  H   UNL     1      -1.884  -1.814  -5.469  0.00  0.00    +0.210 HD
ENDBRANCH  20  29
BRANCH  23  31
ATOM     31  C   UNL     1      -3.868   2.873  -4.431  0.00  0.00    +0.266 C 
BRANCH  31  32
ATOM     32  O   UNL     1      -3.090   3.782  -3.649  0.00  0.00    -0.462 OA
BRANCH  32  33
ATOM     33  C   UNL     1      -3.030   5.054  -4.074  0.00  0.00    +0.304 C 
ATOM     34  O   UNL     1      -3.617   5.384  -5.077  0.00  0.00    -0.251 OA
ATOM     35  C   UNL     1      -2.228   6.069  -3.301  0.00  0.00    +0.136 C 
ENDBRANCH  32  33
ENDBRANCH  31  32
ENDBRANCH  23  31
ENDBRANCH   1  19
TORSDOF 10
