REMARK  Name = ZINC35458095
REMARK  3 active torsions:
REMARK  status: ('A' for Active; 'I' for Inactive)
REMARK    1  A    between atoms: C_1  and  C_2
REMARK    2  A    between atoms: C_5  and  O_17
REMARK    3  A    between atoms: C_9  and  O_16
REMARK                            x       y       z     vdW  Elec       q    Type
REMARK                         _______ _______ _______ _____ _____    ______ ____
ROOT
ATOM      1  C   UNL     1      -0.019   1.526   0.010  0.00  0.00    +0.052 C 
ATOM      2  C   UNL     1       0.002  -0.004   0.002  0.00  0.00    +0.176 C 
ATOM      3  C   UNL     1      -1.434  -0.528   0.001  0.00  0.00    +0.080 C 
ATOM      4  C   UNL     1      -1.429  -2.048  -0.205  0.00  0.00    +0.141 C 
ATOM      5  C   UNL     1      -0.342  -2.633   0.662  0.00  0.00    +0.003 C 
ATOM      6  C   UNL     1       0.892  -2.648   0.222  0.00  0.00    +0.006 C 
ATOM      7  C   UNL     1       1.995  -3.145   1.115  0.00  0.00    +0.160 C 
ATOM      8  C   UNL     1       3.192  -2.245   1.008  0.00  0.00    +0.015 C 
ATOM      9  C   UNL     1       3.152  -0.929   1.104  0.00  0.00    +0.090 C 
ATOM     10  C   UNL     1       1.976  -0.102   1.306  0.00  0.00    +0.332 C 
ATOM     11  O   UNL     1       2.171   1.048   1.646  0.00  0.00    -0.246 OA
ATOM     12  O   UNL     1       0.704  -0.473   1.156  0.00  0.00    -0.458 OA
ENDROOT
BRANCH   7  13
ATOM     13  O   UNL     1       1.537  -3.161   2.469  0.00  0.00    -0.384 OA
ATOM     14  H   UNL     1       2.197  -3.471   3.103  0.00  0.00    +0.211 HD
ENDBRANCH   7  13
BRANCH   4  15
ATOM     15  O   UNL     1      -1.169  -2.349  -1.577  0.00  0.00    -0.388 OA
ATOM     16  H   UNL     1      -1.152  -3.296  -1.776  0.00  0.00    +0.210 HD
ENDBRANCH   4  15
TORSDOF 2
