REMARK  Name = ZINC61728954
REMARK  9 active torsions:
REMARK  status: ('A' for Active; 'I' for Inactive)
REMARK    1  A    between atoms: C_1  and  C_2
REMARK    2  A    between atoms: C_5  and  C_9
REMARK    3  A    between atoms: C_7  and  C_8
REMARK    4  A    between atoms: C_12  and  S_14
REMARK    5  A    between atoms: S_14  and  C_15
REMARK    6  A    between atoms: C_15  and  C_16
REMARK    7  A    between atoms: C_16  and  C_17
REMARK    8  A    between atoms: C_16  and  O_24
REMARK    9  A    between atoms: C_17  and  N_18
REMARK                            x       y       z     vdW  Elec       q    Type
REMARK                         _______ _______ _______ _____ _____    ______ ____
ROOT
ATOM      1  C   UNL     1       0.061  -4.250  -0.021  0.00  0.00    +0.249 A 
ATOM      2  N   UNL     1       0.071  -5.032   1.031  0.00  0.00    -0.106 NA
ATOM      3  N   UNL     1       0.087  -6.261   0.650  0.00  0.00    -0.101 NA
ATOM      4  C   UNL     1       0.087  -6.312  -0.662  0.00  0.00    +0.278 A 
ATOM      5  O   UNL     1       0.066  -5.045  -1.115  0.00  0.00    -0.411 OA
ENDROOT
BRANCH   1  10
ATOM      6  C   UNL     1      -0.018   1.503   0.010  0.00  0.00    +0.044 C 
ATOM      7  C   UNL     1       0.002  -0.004   0.002  0.00  0.00    -0.047 A 
ATOM      8  C   UNL     1       0.006  -0.686  -1.202  0.00  0.00    +0.004 A 
ATOM      9  C   UNL     1       0.025  -2.065  -1.217  0.00  0.00    +0.013 A 
ATOM     10  C   UNL     1       0.041  -2.773  -0.013  0.00  0.00    +0.039 A 
ATOM     11  C   UNL     1       0.037  -2.079   1.198  0.00  0.00    +0.016 A 
ATOM     12  C   UNL     1       0.023  -0.699   1.198  0.00  0.00    -0.047 A 
ATOM     13  C   UNL     1       0.025   0.052   2.504  0.00  0.00    +0.044 C 
ENDBRANCH   1  10
BRANCH   4  14
ATOM     14  S   UNL     1       0.107  -7.772  -1.648  0.00  0.00    -0.063 S 
BRANCH  14  15
ATOM     15  C   UNL     1       0.123  -9.121  -0.435  0.00  0.00    +0.111 C 
BRANCH  15  16
ATOM     16  C   UNL     1       0.141 -10.465  -1.167  0.00  0.00    +0.139 C 
BRANCH  16  17
ATOM     17  O   UNL     1       1.364 -10.595  -1.895  0.00  0.00    -0.390 OA
ATOM     18  H   UNL     1       2.156 -10.561  -1.341  0.00  0.00    +0.210 HD
ENDBRANCH  16  17
BRANCH  16  19
ATOM     19  C   UNL     1       0.029 -11.601  -0.149  0.00  0.00    +0.116 C 
BRANCH  19  20
ATOM     20  N   UNL     1       0.046 -12.891  -0.852  0.00  0.00    -0.296 NA
ATOM     21  C   UNL     1      -1.156 -13.055  -1.682  0.00  0.00    +0.112 C 
ATOM     22  C   UNL     1      -1.069 -14.382  -2.440  0.00  0.00    +0.175 C 
ATOM     23  O   UNL     1      -0.908 -15.451  -1.504  0.00  0.00    -0.377 OA
ATOM     24  C   UNL     1       0.253 -15.324  -0.679  0.00  0.00    +0.175 C 
ATOM     25  C   UNL     1       0.180 -14.006   0.097  0.00  0.00    +0.112 C 
ENDBRANCH  19  20
ENDBRANCH  16  19
ENDBRANCH  15  16
ENDBRANCH  14  15
ENDBRANCH   4  14
TORSDOF 7
