REMARK  Name = ZINC05242797
REMARK  5 active torsions:
REMARK  status: ('A' for Active; 'I' for Inactive)
REMARK    1  A    between atoms: C_1  and  C_2
REMARK    2  A    between atoms: C_5  and  N_9
REMARK    3  A    between atoms: C_6  and  C_8
REMARK    4  A    between atoms: C_10  and  C_12
REMARK    5  A    between atoms: C_19  and  C_20
REMARK                            x       y       z     vdW  Elec       q    Type
REMARK                         _______ _______ _______ _____ _____    ______ ____
ROOT
ATOM      1  N   UNL     1       4.590   4.515  -0.078  0.00  0.00    -0.282 N 
ATOM      2  C   UNL     1       3.506   3.715  -0.032  0.00  0.00    +0.244 C 
ATOM      3  O   UNL     1       3.643   2.505  -0.013  0.00  0.00    -0.270 OA
ATOM      4  H   UNL     1       4.484   5.479  -0.034  0.00  0.00    +0.155 HD
ENDROOT
BRANCH   2   5
ATOM      5  C   UNL     1       2.217   4.278  -0.006  0.00  0.00    +0.100 C 
ATOM      6  C   UNL     1       1.120   3.469   0.041  0.00  0.00    +0.086 A 
ATOM      7  N   UNL     1       1.075   2.093   0.068  0.00  0.00    -0.316 N 
ATOM      8  H   UNL     1       1.902   1.586   0.054  0.00  0.00    +0.169 HD
ATOM      9  C   UNL     1      -0.082   1.454   0.114  0.00  0.00    +0.264 A 
ATOM     10  O   UNL     1      -0.142   0.241   0.138  0.00  0.00    -0.267 OA
ATOM     11  C   UNL     1      -1.310   2.299   0.127  0.00  0.00    +0.085 A 
ATOM     12  C   UNL     1      -2.615   1.924   0.165  0.00  0.00    +0.116 C 
ATOM     13  S   UNL     1      -0.601   3.939   0.081  0.00  0.00    -0.066 S 
BRANCH  12  14
ATOM     14  C   UNL     1      -2.973   0.510   0.050  0.00  0.00    +0.381 C 
ATOM     15  O   UNL     1      -2.102  -0.337   0.018  0.00  0.00    -0.241 OA
ATOM     16  O   UNL     1      -4.270   0.147  -0.022  0.00  0.00    -0.241 OA
ENDBRANCH  12  14
ENDBRANCH   2   5
BRANCH   1  21
ATOM     17  C   UNL     1       9.771   2.251  -0.529  0.00  0.00    +0.044 C 
ATOM     18  C   UNL     1       8.394   2.852  -0.410  0.00  0.00    -0.050 A 
ATOM     19  C   UNL     1       7.414   2.194   0.311  0.00  0.00    +0.005 A 
ATOM     20  C   UNL     1       6.153   2.745   0.427  0.00  0.00    +0.024 A 
ATOM     21  C   UNL     1       5.867   3.957  -0.190  0.00  0.00    +0.037 A 
ATOM     22  C   UNL     1       6.853   4.615  -0.912  0.00  0.00    -0.029 A 
ATOM     23  C   UNL     1       8.114   4.060  -1.020  0.00  0.00    +0.008 A 
ATOM     24  C   UNL     1       6.549   5.932  -1.578  0.00  0.00    +0.045 C 
ENDBRANCH   1  21
TORSDOF 3
