REMARK  Name = ZINC05924075
REMARK  9 active torsions:
REMARK  status: ('A' for Active; 'I' for Inactive)
REMARK    1  A    between atoms: C_1  and  C_2
REMARK    2  A    between atoms: C_2  and  C_3
REMARK    3  A    between atoms: C_3  and  O_4
REMARK    4  A    between atoms: O_4  and  C_5
REMARK    5  A    between atoms: C_8  and  C_11
REMARK    6  A    between atoms: C_18  and  N_31
REMARK    7  A    between atoms: C_19  and  C_29
REMARK    8  A    between atoms: C_20  and  C_22
REMARK    9  A    between atoms: C_26  and  O_28
REMARK                            x       y       z     vdW  Elec       q    Type
REMARK                         _______ _______ _______ _____ _____    ______ ____
ROOT
ATOM      1  C   UNL     1      -6.320  -4.536   0.070  0.00  0.00    +0.074 A 
ATOM      2  C   UNL     1      -6.667  -5.656   0.748  0.00  0.00    +0.054 A 
ATOM      3  C   UNL     1      -8.010  -5.953   0.446  0.00  0.00    +0.245 A 
ATOM      4  N   UNL     1      -8.453  -5.049  -0.381  0.00  0.00    -0.135 NA
ATOM      5  N   UNL     1      -7.419  -4.135  -0.637  0.00  0.00    -0.273 N 
ATOM      6  H   UNL     1      -7.474  -3.358  -1.214  0.00  0.00    +0.189 HD
ATOM      7  O   UNL     1      -8.649  -7.028   0.982  0.00  0.00    -0.421 OA
ATOM      8  C   UNL     1      -8.054  -7.651   2.019  0.00  0.00    +0.201 C 
ATOM      9  C   UNL     1      -6.772  -7.457   2.394  0.00  0.00    +0.098 C 
ATOM     10  C   UNL     1      -5.843  -6.507   1.681  0.00  0.00    +0.102 C 
ENDROOT
BRANCH   1  14
ATOM     11  C   UNL     1      -2.530  -2.614   0.142  0.00  0.00    +0.121 A 
ATOM     12  C   UNL     1      -3.165  -2.848  -1.071  0.00  0.00    +0.046 A 
ATOM     13  C   UNL     1      -4.395  -3.471  -1.098  0.00  0.00    +0.013 A 
ATOM     14  C   UNL     1      -5.001  -3.867   0.095  0.00  0.00    +0.000 A 
ATOM     15  C   UNL     1      -4.359  -3.630   1.312  0.00  0.00    +0.013 A 
ATOM     16  C   UNL     1      -3.128  -3.011   1.331  0.00  0.00    +0.046 A 
BRANCH  11  17
ATOM     17  O   UNL     1      -1.319  -1.999   0.165  0.00  0.00    -0.492 OA
BRANCH  17  18
ATOM     18  C   UNL     1      -0.761  -1.617  -1.094  0.00  0.00    +0.229 C 
BRANCH  18  20
ATOM     19  C   UNL     1       1.191  -0.535  -2.217  0.00  0.00    +0.007 C 
ATOM     20  C   UNL     1       0.595  -0.945  -0.869  0.00  0.00    +0.038 C 
ENDBRANCH  18  20
ENDBRANCH  17  18
ENDBRANCH  11  17
ENDBRANCH   1  14
BRANCH  10  21
ATOM     21  C   UNL     1      -4.825  -7.289   0.891  0.00  0.00    -0.031 A 
ATOM     22  C   UNL     1      -5.237  -8.120  -0.135  0.00  0.00    +0.005 A 
ATOM     23  C   UNL     1      -4.306  -8.839  -0.861  0.00  0.00    +0.004 A 
ATOM     24  C   UNL     1      -2.961  -8.728  -0.564  0.00  0.00    +0.045 A 
ATOM     25  C   UNL     1      -2.546  -7.895   0.465  0.00  0.00    +0.117 A 
ATOM     26  C   UNL     1      -3.482  -7.170   1.188  0.00  0.00    +0.050 A 
BRANCH  25  27
ATOM     27  O   UNL     1      -1.224  -7.785   0.759  0.00  0.00    -0.507 OA
ATOM     28  H   UNL     1      -0.770  -7.083   0.273  0.00  0.00    +0.292 HD
ENDBRANCH  25  27
ENDBRANCH  10  21
BRANCH   8  29
ATOM     29  N   UNL     1      -8.804  -8.544   2.743  0.00  0.00    -0.328 N 
ATOM     30  H   UNL     1      -9.729  -8.709   2.501  0.00  0.00    +0.145 HD
ATOM     31  H   UNL     1      -8.409  -9.011   3.496  0.00  0.00    +0.145 HD
ENDBRANCH   8  29
BRANCH   9  32
ATOM     32  C   UNL     1      -6.273  -8.185   3.521  0.00  0.00    +0.101 C 
ATOM     33  N   UNL     1      -5.876  -8.763   4.415  0.00  0.00    -0.191 NA
ENDBRANCH   9  32
TORSDOF 8
