REMARK  Name = ZINC67373562
REMARK  8 active torsions:
REMARK  status: ('A' for Active; 'I' for Inactive)
REMARK    1  A    between atoms: C_1  and  C_2
REMARK    2  A    between atoms: C_4  and  O_21
REMARK    3  A    between atoms: C_7  and  N_8
REMARK    4  A    between atoms: C_9  and  C_11
REMARK    5  A    between atoms: C_17  and  C_19
REMARK    6  A    between atoms: C_17  and  C_20
REMARK    7  A    between atoms: O_21  and  C_22
REMARK    8  A    between atoms: C_25  and  C_28
REMARK                            x       y       z     vdW  Elec       q    Type
REMARK                         _______ _______ _______ _____ _____    ______ ____
ROOT
ATOM      1  C   UNL     1      -1.121   1.312   0.002  0.00  0.00    +0.046 C 
ATOM      2  C   UNL     1      -0.493  -0.058  -0.022  0.00  0.00    -0.026 A 
ATOM      3  C   UNL     1      -0.382  -0.746  -1.214  0.00  0.00    +0.051 A 
ATOM      4  C   UNL     1       0.196  -2.007  -1.236  0.00  0.00    +0.129 A 
ATOM      5  C   UNL     1       0.663  -2.578  -0.060  0.00  0.00    +0.048 A 
ATOM      6  C   UNL     1       0.553  -1.892   1.132  0.00  0.00    +0.027 A 
ATOM      7  C   UNL     1      -0.020  -0.626   1.154  0.00  0.00    +0.037 A 
ENDROOT
BRANCH   7   8
ATOM      8  N   UNL     1      -0.127   0.072   2.361  0.00  0.00    -0.278 N 
ATOM      9  C   UNL     1      -0.240  -0.602   3.522  0.00  0.00    +0.303 C 
ATOM     10  O   UNL     1      -0.231  -1.816   3.523  0.00  0.00    -0.265 OA
ATOM     11  H   UNL     1      -0.120   1.042   2.362  0.00  0.00    +0.155 HD
BRANCH   9  12
ATOM     12  C   UNL     1      -0.377   0.144   4.809  0.00  0.00    +0.302 C 
ATOM     13  O   UNL     1      -0.503   1.351   4.800  0.00  0.00    -0.265 OA
ATOM     14  N   UNL     1      -0.360  -0.523   5.980  0.00  0.00    -0.289 N 
ATOM     15  C   UNL     1      -0.665   0.161   7.246  0.00  0.00    +0.136 C 
ATOM     16  C   UNL     1       0.450  -0.157   8.248  0.00  0.00    +0.179 C 
ATOM     17  O   UNL     1       0.630  -1.573   8.320  0.00  0.00    -0.371 OA
ATOM     18  C   UNL     1       1.048  -2.173   7.091  0.00  0.00    +0.080 C 
ATOM     19  C   UNL     1      -0.042  -1.959   6.029  0.00  0.00    +0.142 C 
ATOM     20  C   UNL     1       2.354  -1.526   6.626  0.00  0.00    +0.043 C 
ATOM     21  C   UNL     1       1.267  -3.672   7.303  0.00  0.00    +0.043 C 
ENDBRANCH   9  12
ENDBRANCH   7   8
BRANCH   4  22
ATOM     22  O   UNL     1       0.304  -2.684  -2.410  0.00  0.00    -0.456 OA
BRANCH  22  23
ATOM     23  C   UNL     1      -0.241  -2.126  -3.520  0.00  0.00    +0.129 A 
ATOM     24  C   UNL     1       0.421  -1.093  -4.173  0.00  0.00    +0.047 A 
ATOM     25  C   UNL     1      -0.129  -0.523  -5.300  0.00  0.00    +0.022 A 
ATOM     26  C   UNL     1      -1.354  -0.985  -5.787  0.00  0.00    +0.052 A 
ATOM     27  C   UNL     1      -2.017  -2.025  -5.128  0.00  0.00    +0.022 A 
ATOM     28  C   UNL     1      -1.458  -2.592  -4.005  0.00  0.00    +0.047 A 
BRANCH  26  29
ATOM     29  C   UNL     1      -1.930  -0.396  -6.958  0.00  0.00    +0.099 C 
ATOM     30  N   UNL     1      -2.386   0.072  -7.888  0.00  0.00    -0.191 NA
ENDBRANCH  26  29
ENDBRANCH  22  23
ENDBRANCH   4  22
TORSDOF 5
