REMARK  Name = ZINC52730752
REMARK  5 active torsions:
REMARK  status: ('A' for Active; 'I' for Inactive)
REMARK    1  A    between atoms: C_4  and  N_19
REMARK    2  A    between atoms: C_6  and  C_7
REMARK    3  A    between atoms: C_7  and  S_8
REMARK    4  A    between atoms: S_8  and  C_9
REMARK    5  A    between atoms: N_19  and  N_20
REMARK                            x       y       z     vdW  Elec       q    Type
REMARK                         _______ _______ _______ _____ _____    ______ ____
ROOT
ATOM      1  C   UNL     1      -1.282  -0.792   0.011  0.00  0.00    +0.111 C 
ENDROOT
BRANCH   1   7
ATOM      2  C   UNL     1      -0.017   1.384   0.010  0.00  0.00    +0.024 A 
ATOM      3  C   UNL     1       1.178   2.077   0.002  0.00  0.00    +0.113 A 
ATOM      4  N   UNL     1       2.331   1.436  -0.013  0.00  0.00    -0.239 NA
ATOM      5  C   UNL     1       2.391   0.113  -0.020  0.00  0.00    +0.132 A 
ATOM      6  C   UNL     1       1.227  -0.648  -0.014  0.00  0.00    +0.049 A 
ATOM      7  C   UNL     1       0.002  -0.004   0.002  0.00  0.00    -0.032 A 
BRANCH   5   8
ATOM      8  N   UNL     1       3.628  -0.520  -0.035  0.00  0.00    -0.268 N 
ATOM      9  H   UNL     1       3.677  -1.489  -0.041  0.00  0.00    +0.167 HD
BRANCH   8  10
ATOM     10  N   UNL     1       4.775   0.221  -0.042  0.00  0.00    -0.255 NA
ATOM     11  H   UNL     1       4.801   0.855   0.742  0.00  0.00    +0.140 HD
ATOM     12  H   UNL     1       5.590  -0.373  -0.053  0.00  0.00    +0.140 HD
ENDBRANCH   8  10
ENDBRANCH   5   8
ENDBRANCH   1   7
BRANCH   1  13
ATOM     13  S   UNL     1      -1.815  -1.099  -1.696  0.00  0.00    -0.099 S 
BRANCH  13  14
ATOM     14  C   UNL     1      -3.308  -2.017  -1.518  0.00  0.00    +0.126 A 
ATOM     15  C   UNL     1      -4.020  -2.448  -2.641  0.00  0.00    +0.117 A 
ATOM     16  C   UNL     1      -5.204  -3.177  -2.447  0.00  0.00    +0.182 A 
ATOM     17  N   UNL     1      -5.688  -3.467  -3.670  0.00  0.00    -0.216 NA
ATOM     18  H   UNL     1      -3.129  -1.890  -4.464  0.00  0.00    +0.167 HD
ATOM     19  C   UNL     1      -4.899  -2.976  -4.584  0.00  0.00    +0.199 A 
ATOM     20  N   UNL     1      -3.856  -2.339  -4.005  0.00  0.00    -0.341 N 
ATOM     21  N   UNL     1      -5.604  -3.430  -1.196  0.00  0.00    -0.214 NA
ATOM     22  C   UNL     1      -4.902  -3.005  -0.170  0.00  0.00    +0.224 A 
ATOM     23  N   UNL     1      -3.781  -2.321  -0.311  0.00  0.00    -0.227 NA
ENDBRANCH  13  14
ENDBRANCH   1  13
TORSDOF 5
