REMARK  Name = ZINC28814902
REMARK  4 active torsions:
REMARK  status: ('A' for Active; 'I' for Inactive)
REMARK    1  A    between atoms: C_7  and  C_13
REMARK    2  A    between atoms: N_15  and  C_16
REMARK    3  A    between atoms: C_16  and  C_17
REMARK    4  A    between atoms: C_23  and  C_26
REMARK                            x       y       z     vdW  Elec       q    Type
REMARK                         _______ _______ _______ _____ _____    ______ ____
ROOT
ATOM      1  C   UNL     1      -3.790   3.237   0.057  0.00  0.00    +0.265 C 
ATOM      2  O   UNL     1      -3.846   2.022   0.050  0.00  0.00    -0.268 OA
ATOM      3  N   UNL     1      -4.925   3.964   0.072  0.00  0.00    -0.303 N 
ATOM      4  H   UNL     1      -4.875   5.062   0.078  0.00  0.00    +0.150 HD
ENDROOT
BRANCH   1  11
ATOM      5  C   UNL     1      -0.013   1.076   0.008  0.00  0.00    +0.001 A 
ATOM      6  C   UNL     1       1.185   1.778   0.000  0.00  0.00    +0.001 A 
ATOM      7  C   UNL     1       1.194   3.157   0.008  0.00  0.00    +0.014 A 
ATOM      8  C   UNL     1      -0.014   3.846   0.023  0.00  0.00    +0.050 A 
ATOM      9  C   UNL     1      -1.234   3.131   0.031  0.00  0.00    +0.020 A 
ATOM     10  C   UNL     1      -1.221   1.741   0.017  0.00  0.00    +0.011 A 
ATOM     11  C   UNL     1      -2.479   3.916   0.048  0.00  0.00    +0.153 A 
ATOM     12  N   UNL     1      -2.410   5.225   0.054  0.00  0.00    -0.166 NA
ATOM     13  N   UNL     1      -1.316   5.888   0.047  0.00  0.00    -0.242 N 
ATOM     14  H   UNL     1      -1.340   6.988   0.053  0.00  0.00    +0.192 HD
ATOM     15  C   UNL     1      -0.096   5.313   0.032  0.00  0.00    +0.272 A 
ATOM     16  O   UNL     1       0.913   5.994   0.025  0.00  0.00    -0.266 OA
ENDBRANCH   1  11
BRANCH   3  17
ATOM     17  C   UNL     1      -6.226   3.290   0.081  0.00  0.00    +0.181 C 
BRANCH  17  18
ATOM     18  C   UNL     1      -7.325   4.321   0.097  0.00  0.00    +0.155 A 
ATOM     19  N   UNL     1      -7.883   4.839   1.161  0.00  0.00    -0.132 NA
ATOM     20  N   UNL     1      -8.786   5.691   0.821  0.00  0.00    -0.129 NA
ATOM     21  C   UNL     1      -8.858   5.754  -0.499  0.00  0.00    +0.161 A 
ATOM     22  N   UNL     1      -7.923   4.877  -0.991  0.00  0.00    -0.285 N 
ATOM     23  C   UNL     1      -7.762   4.721  -2.336  0.00  0.00    +0.107 A 
ATOM     24  C   UNL     1      -8.518   5.426  -3.203  0.00  0.00    +0.071 A 
ATOM     25  C   UNL     1      -9.483   6.332  -2.730  0.00  0.00    +0.017 A 
ATOM     26  C   UNL     1      -9.655   6.497  -1.391  0.00  0.00    +0.049 A 
BRANCH  24  27
ATOM     27  C   UNL     1      -8.327   5.242  -4.687  0.00  0.00    +0.419 C 
ATOM     28  F   UNL     1      -9.216   6.072  -5.378  0.00  0.00    -0.166 F 
ATOM     29  F   UNL     1      -7.013   5.575  -5.032  0.00  0.00    -0.166 F 
ATOM     30  F   UNL     1      -8.574   3.908  -5.027  0.00  0.00    -0.166 F 
ENDBRANCH  24  27
ENDBRANCH  17  18
ENDBRANCH   3  17
TORSDOF 4
