REMARK  Name = ZINC66255622
REMARK  4 active torsions:
REMARK  status: ('A' for Active; 'I' for Inactive)
REMARK    1  A    between atoms: C_9  and  O_27
REMARK    2  A    between atoms: C_10  and  C_11
REMARK    3  A    between atoms: N_12  and  C_13
REMARK    4  A    between atoms: C_22  and  C_25
REMARK                            x       y       z     vdW  Elec       q    Type
REMARK                         _______ _______ _______ _____ _____    ______ ____
ROOT
ATOM      1  C   UNL     1       4.981   0.091  -0.042  0.00  0.00    +0.090 C 
ATOM      2  N   UNL     1       6.104  -0.552   0.042  0.00  0.00    -0.387 N 
ATOM      3  H   UNL     1       6.109  -1.522   0.040  0.00  0.00    +0.159 HD
ENDROOT
BRANCH   2   4
ATOM      4  C   UNL     1       7.365   0.187   0.141  0.00  0.00    +0.082 C 
ATOM      5  C   UNL     1       8.071  -0.181   1.448  0.00  0.00    +0.043 C 
ATOM      6  C   UNL     1       9.372   0.619   1.565  0.00  0.00    +0.108 C 
ATOM      7  N   UNL     1      10.178   0.388   0.359  0.00  0.00    -0.315 N 
ATOM      8  C   UNL     1       9.566   0.625  -0.956  0.00  0.00    +0.108 C 
ATOM      9  C   UNL     1       8.263  -0.175  -1.044  0.00  0.00    +0.043 C 
ATOM     10  C   UNL     1      11.491  -0.043   0.459  0.00  0.00    +0.121 A 
ATOM     11  C   UNL     1      11.984  -0.463   1.693  0.00  0.00    +0.045 A 
ATOM     12  C   UNL     1      13.282  -0.888   1.789  0.00  0.00    +0.024 A 
ATOM     13  C   UNL     1      14.074  -0.887   0.630  0.00  0.00    +0.070 A 
ATOM     14  C   UNL     1      13.514  -0.454  -0.573  0.00  0.00    +0.131 A 
ATOM     15  N   UNL     1      12.259  -0.057  -0.622  0.00  0.00    -0.239 NA
BRANCH  13  16
ATOM     16  C   UNL     1      15.437  -1.323   0.681  0.00  0.00    +0.101 C 
ATOM     17  N   UNL     1      16.518  -1.669   0.722  0.00  0.00    -0.191 NA
ENDBRANCH  13  16
ENDBRANCH   2   4
BRANCH   1  27
ATOM     18  C   UNL     1      -0.016   1.358   0.064  0.00  0.00    +0.001 A 
ATOM     19  C   UNL     1       1.168   2.091   0.055  0.00  0.00    +0.001 A 
ATOM     20  C   UNL     1       2.379   1.465   0.024  0.00  0.00    +0.009 A 
ATOM     21  C   UNL     1       2.434   0.067   0.002  0.00  0.00    -0.006 A 
ATOM     22  C   UNL     1       1.232  -0.682   0.012  0.00  0.00    -0.017 A 
ATOM     23  C   UNL     1       0.002  -0.003   0.043  0.00  0.00    +0.008 A 
ATOM     24  C   UNL     1       1.290  -2.087  -0.009  0.00  0.00    +0.012 A 
ATOM     25  C   UNL     1       2.484  -2.734  -0.038  0.00  0.00    +0.046 A 
ATOM     26  C   UNL     1       3.695  -2.041  -0.049  0.00  0.00    +0.126 A 
ATOM     27  C   UNL     1       3.710  -0.646  -0.030  0.00  0.00    +0.040 A 
BRANCH  26  28
ATOM     28  O   UNL     1       4.864  -2.728  -0.078  0.00  0.00    -0.506 OA
ATOM     29  H   UNL     1       5.188  -2.915  -0.970  0.00  0.00    +0.292 HD
ENDBRANCH  26  28
ENDBRANCH   1  27
TORSDOF 4
