REMARK  Name = ZINC43743788
REMARK  9 active torsions:
REMARK  status: ('A' for Active; 'I' for Inactive)
REMARK    1  A    between atoms: C_1  and  C_2
REMARK    2  A    between atoms: N_4  and  C_5
REMARK    3  A    between atoms: C_7  and  O_42
REMARK    4  A    between atoms: C_9  and  O_41
REMARK    5  A    between atoms: C_11  and  C_39
REMARK    6  A    between atoms: C_14  and  O_16
REMARK    7  A    between atoms: O_16  and  C_17
REMARK    8  A    between atoms: C_31  and  C_38
REMARK    9  A    between atoms: C_39  and  O_40
REMARK                            x       y       z     vdW  Elec       q    Type
REMARK                         _______ _______ _______ _____ _____    ______ ____
ROOT
ATOM      1  O   UNL     1      -1.989  -1.594   1.970  0.00  0.00    -0.462 OA
ENDROOT
BRANCH   1   2
ATOM      2  C   UNL     1      -3.284  -2.002   1.915  0.00  0.00    +0.124 A 
ATOM      3  C   UNL     1      -3.759  -2.659   0.790  0.00  0.00    +0.046 A 
ATOM      4  C   UNL     1      -5.074  -3.075   0.749  0.00  0.00    +0.008 A 
ATOM      5  C   UNL     1      -5.919  -2.838   1.819  0.00  0.00    -0.041 A 
ATOM      6  C   UNL     1      -5.460  -2.174   2.940  0.00  0.00    -0.040 A 
ATOM      7  C   UNL     1      -4.132  -1.762   2.982  0.00  0.00    +0.049 A 
ATOM      8  C   UNL     1      -6.318  -1.856   4.134  0.00  0.00    +0.036 C 
ATOM      9  C   UNL     1      -7.791  -2.200   3.900  0.00  0.00    +0.009 C 
ATOM     10  C   UNL     1      -7.834  -3.543   3.175  0.00  0.00    +0.001 C 
ATOM     11  C   UNL     1      -7.351  -3.308   1.745  0.00  0.00    +0.023 C 
ATOM     12  C   UNL     1      -7.523  -4.535   0.875  0.00  0.00    +0.009 C 
ATOM     13  C   UNL     1      -8.965  -5.062   0.858  0.00  0.00    +0.015 C 
ATOM     14  C   UNL     1      -9.834  -4.339   1.854  0.00  0.00    +0.029 C 
ATOM     15  C   UNL     1      -9.134  -4.266   3.228  0.00  0.00    +0.006 C 
ATOM     16  C   UNL     1     -10.255  -3.695   4.107  0.00  0.00    +0.012 C 
ATOM     17  C   UNL     1     -11.506  -4.454   3.580  0.00  0.00    +0.075 C 
ATOM     18  C   UNL     1     -11.111  -5.067   2.241  0.00  0.00    +0.139 C 
ATOM     19  O   UNL     1     -11.667  -5.929   1.619  0.00  0.00    -0.297 OA
ATOM     20  C   UNL     1     -10.267  -2.973   1.332  0.00  0.00    +0.019 C 
ENDBRANCH   1   2
BRANCH   1  26
ATOM     21  C   UNL     1       0.207  -1.237   1.024  0.00  0.00    +0.173 C 
ATOM     22  C   UNL     1       1.098  -1.594  -0.170  0.00  0.00    +0.172 C 
ATOM     23  C   UNL     1       1.177  -3.119  -0.296  0.00  0.00    +0.176 C 
ATOM     24  C   UNL     1      -0.238  -3.685  -0.437  0.00  0.00    +0.179 C 
ATOM     25  O   UNL     1      -1.023  -3.290   0.690  0.00  0.00    -0.332 OA
ATOM     26  C   UNL     1      -1.171  -1.876   0.833  0.00  0.00    +0.331 C 
BRANCH  21  30
ATOM     27  C   UNL     1      -0.370   2.296   2.380  0.00  0.00    +0.109 C 
ATOM     28  C   UNL     1      -0.223   0.799   2.291  0.00  0.00    +0.210 C 
ATOM     29  O   UNL     1      -0.362   0.117   3.284  0.00  0.00    -0.276 OA
ATOM     30  N   UNL     1       0.064   0.219   1.109  0.00  0.00    -0.304 N 
ATOM     31  H   UNL     1       0.175   0.765   0.315  0.00  0.00    +0.149 HD
ENDBRANCH  21  30
BRANCH  23  32
ATOM     32  O   UNL     1       1.948  -3.463  -1.449  0.00  0.00    -0.387 OA
ATOM     33  H   UNL     1       2.039  -4.415  -1.591  0.00  0.00    +0.210 HD
ENDBRANCH  23  32
BRANCH  22  34
ATOM     34  O   UNL     1       2.408  -1.061   0.035  0.00  0.00    -0.387 OA
ATOM     35  H   UNL     1       3.026  -1.250  -0.684  0.00  0.00    +0.210 HD
ENDBRANCH  22  34
BRANCH  24  36
ATOM     36  C   UNL     1      -0.172  -5.212  -0.504  0.00  0.00    +0.190 C 
BRANCH  36  37
ATOM     37  O   UNL     1      -1.479  -5.735  -0.752  0.00  0.00    -0.392 OA
ATOM     38  H   UNL     1      -1.512  -6.700  -0.807  0.00  0.00    +0.210 HD
ENDBRANCH  36  37
ENDBRANCH  24  36
ENDBRANCH   1  26
TORSDOF 7
