REMARK  Name = ZINC57428695
REMARK  5 active torsions:
REMARK  status: ('A' for Active; 'I' for Inactive)
REMARK    1  A    between atoms: C_2  and  C_3
REMARK    2  A    between atoms: C_3  and  N_4
REMARK    3  A    between atoms: C_6  and  C_13
REMARK    4  A    between atoms: N_15  and  N_16
REMARK    5  A    between atoms: C_17  and  C_19
REMARK                            x       y       z     vdW  Elec       q    Type
REMARK                         _______ _______ _______ _____ _____    ______ ____
ROOT
ATOM      1  C   UNL     1       2.278  -2.604   4.520  0.00  0.00    +0.262 C 
ATOM      2  O   UNL     1       2.100  -3.636   5.141  0.00  0.00    -0.269 OA
ATOM      3  N   UNL     1       2.909  -1.567   5.104  0.00  0.00    -0.230 N 
ATOM      4  H   UNL     1       3.050  -0.744   4.609  0.00  0.00    +0.173 HD
ENDROOT
BRANCH   1   7
ATOM      5  N   UNL     1       1.367  -1.676   1.111  0.00  0.00    -0.342 N 
ATOM      6  C   UNL     1       1.927  -1.407   2.316  0.00  0.00    +0.100 A 
ATOM      7  C   UNL     1       1.803  -2.490   3.134  0.00  0.00    +0.063 A 
ATOM      8  C   UNL     1       1.098  -3.525   2.355  0.00  0.00    +0.012 A 
ATOM      9  C   UNL     1       0.847  -2.953   1.097  0.00  0.00    +0.050 A 
ATOM     10  C   UNL     1       0.179  -3.698   0.131  0.00  0.00    +0.026 A 
ATOM     11  C   UNL     1      -0.231  -4.983   0.415  0.00  0.00    +0.002 A 
ATOM     12  C   UNL     1       0.014  -5.544   1.659  0.00  0.00    +0.001 A 
ATOM     13  C   UNL     1       0.682  -4.825   2.627  0.00  0.00    +0.011 A 
BRANCH   5  14
ATOM     14  C   UNL     1       1.317  -0.740  -0.015  0.00  0.00    +0.148 C 
BRANCH  14  16
ATOM     15  C   UNL     1      -0.016   1.306   0.009  0.00  0.00    +0.005 C 
ATOM     16  C   UNL     1       0.002  -0.004   0.002  0.00  0.00    -0.013 C 
ENDBRANCH  14  16
ENDBRANCH   5  14
ENDBRANCH   1   7
BRANCH   3  17
ATOM     17  N   UNL     1       3.362  -1.675   6.425  0.00  0.00    -0.229 N 
ATOM     18  C   UNL     1       3.994  -0.638   7.008  0.00  0.00    +0.276 C 
ATOM     19  O   UNL     1       4.171   0.394   6.388  0.00  0.00    -0.267 OA
ATOM     20  H   UNL     1       3.221  -2.498   6.920  0.00  0.00    +0.173 HD
BRANCH  18  21
ATOM     21  C   UNL     1       4.468  -0.752   8.392  0.00  0.00    +0.104 A 
ATOM     22  C   UNL     1       5.120   0.226   9.113  0.00  0.00    +0.047 A 
ATOM     23  C   UNL     1       5.386  -0.305  10.379  0.00  0.00    +0.036 A 
ATOM     24  C   UNL     1       4.903  -1.571  10.408  0.00  0.00    +0.098 A 
ATOM     25  N   UNL     1       4.337  -1.852   9.208  0.00  0.00    -0.356 N 
ATOM     26  H   UNL     1       3.913  -2.689   8.965  0.00  0.00    +0.166 HD
ATOM     27 BR   UNL     1       6.266   0.583  11.797  0.00  0.00    -0.049 Br
ENDBRANCH  18  21
ENDBRANCH   3  17
TORSDOF 5
