REMARK  Name = ZINC26949998
REMARK  5 active torsions:
REMARK  status: ('A' for Active; 'I' for Inactive)
REMARK    1  A    between atoms: C_1  and  C_2
REMARK    2  A    between atoms: N_8  and  N_9
REMARK    3  A    between atoms: N_16  and  C_17
REMARK    4  A    between atoms: C_17  and  C_19
REMARK    5  A    between atoms: C_17  and  O_23
REMARK                            x       y       z     vdW  Elec       q    Type
REMARK                         _______ _______ _______ _____ _____    ______ ____
ROOT
ATOM      1  C   UNL     1       2.780  -2.500  -2.064  0.00  0.00    +0.088 C 
ATOM      2  C   UNL     1       3.086  -1.133  -1.509  0.00  0.00    +0.133 A 
ATOM      3  N   UNL     1       2.113  -0.392  -1.008  0.00  0.00    -0.200 NA
ATOM      4  C   UNL     1       2.379   0.818  -0.521  0.00  0.00    +0.222 A 
ATOM      5  N   UNL     1       3.626   1.277  -0.531  0.00  0.00    -0.180 NA
ATOM      6  C   UNL     1       4.602   0.528  -1.031  0.00  0.00    +0.237 A 
ATOM      7  N   UNL     1       4.328  -0.679  -1.521  0.00  0.00    -0.199 NA
ATOM      8  N   UNL     1       5.899   1.000  -1.044  0.00  0.00    -0.225 N 
ATOM      9  N   UNL     1       1.362   1.593  -0.002  0.00  0.00    -0.285 N 
ATOM     10  H   UNL     1       6.124   1.998  -0.639  0.00  0.00    +0.174 HD
ATOM     11  H   UNL     1       1.583   2.591   0.403  0.00  0.00    +0.151 HD
ENDROOT
BRANCH   8  12
ATOM     12  N   UNL     1       6.927   0.209  -1.571  0.00  0.00    -0.192 N 
ATOM     13  C   UNL     1       7.429   0.524  -2.785  0.00  0.00    +0.122 C 
ATOM     14  N   UNL     1       6.995   1.526  -3.476  0.00  0.00    -0.287 NA
ATOM     15  C   UNL     1       8.541  -0.389  -3.279  0.00  0.00    +0.149 C 
ATOM     16  S   UNL     1       8.654  -1.554  -1.864  0.00  0.00    -0.093 S 
ATOM     17  C   UNL     1       7.379  -0.830  -0.846  0.00  0.00    +0.132 C 
ATOM     18  S   UNL     1       6.849  -1.343   0.699  0.00  0.00    -0.026 S 
ATOM     19  H   UNL     1       6.189   2.160  -3.080  0.00  0.00    +0.188 HD
ENDBRANCH   8  12
BRANCH   9  20
ATOM     20  C   UNL     1      -0.013   1.086   0.008  0.00  0.00    +0.254 C 
BRANCH  20  21
ATOM     21  C   UNL     1      -0.729   1.579   1.267  0.00  0.00    +0.232 C 
ATOM     22 CL   UNL     1      -2.420   0.955   1.280  0.00  0.00    -0.079 Cl
ATOM     23 CL   UNL     1       0.143   0.982   2.728  0.00  0.00    -0.079 Cl
ATOM     24 CL   UNL     1      -0.753   3.382   1.277  0.00  0.00    -0.079 Cl
ENDBRANCH  20  21
BRANCH  20  25
ATOM     25  O   UNL     1      -0.704   1.559  -1.150  0.00  0.00    -0.370 OA
ATOM     26  H   UNL     1      -1.755   1.280  -1.315  0.00  0.00    +0.212 HD
ENDBRANCH  20  25
ENDBRANCH   9  20
TORSDOF 4
