REMARK  Name = ZINC03290650
REMARK  8 active torsions:
REMARK  status: ('A' for Active; 'I' for Inactive)
REMARK    1  A    between atoms: C_1  and  C_2
REMARK    2  A    between atoms: C_5  and  C_8
REMARK    3  A    between atoms: C_8  and  N_9
REMARK    4  A    between atoms: C_10  and  C_12
REMARK    5  A    between atoms: C_12  and  C_14
REMARK    6  A    between atoms: C_12  and  N_18
REMARK    7  A    between atoms: C_14  and  C_15
REMARK    8  A    between atoms: C_19  and  C_21
REMARK                            x       y       z     vdW  Elec       q    Type
REMARK                         _______ _______ _______ _____ _____    ______ ____
ROOT
ATOM      1  C   UNL     1       1.271   2.002   0.017  0.00  0.00    +0.168 C 
ENDROOT
BRANCH   1   3
ATOM      2  N   UNL     1      -1.193   2.200   0.111  0.00  0.00    -0.310 N 
ATOM      3  C   UNL     1      -0.108   1.400   0.089  0.00  0.00    +0.234 C 
ATOM      4  O   UNL     1      -0.243   0.195   0.122  0.00  0.00    -0.274 OA
ATOM      5  H   UNL     1      -1.085   3.164   0.084  0.00  0.00    +0.149 HD
BRANCH   2   6
ATOM      6  C   UNL     1      -2.534   1.615   0.175  0.00  0.00    +0.139 C 
BRANCH   6  11
ATOM      7  C   UNL     1      -6.479   5.838   0.225  0.00  0.00    +0.044 C 
ATOM      8  C   UNL     1      -5.450   4.736   0.212  0.00  0.00    -0.050 A 
ATOM      9  C   UNL     1      -5.023   4.204  -0.990  0.00  0.00    +0.003 A 
ATOM     10  C   UNL     1      -4.079   3.193  -1.002  0.00  0.00    +0.005 A 
ATOM     11  C   UNL     1      -3.563   2.716   0.188  0.00  0.00    -0.030 A 
ATOM     12  C   UNL     1      -3.994   3.246   1.390  0.00  0.00    +0.005 A 
ATOM     13  C   UNL     1      -4.934   4.259   1.402  0.00  0.00    +0.003 A 
ENDBRANCH   6  11
ENDBRANCH   2   6
ENDBRANCH   1   3
BRANCH   1  14
ATOM     14  N   UNL     1       2.271   0.931  -0.001  0.00  0.00    -0.300 N 
ATOM     15  C   UNL     1       2.762   0.448   1.157  0.00  0.00    +0.245 C 
ATOM     16  O   UNL     1       2.311   0.837   2.217  0.00  0.00    -0.270 OA
ATOM     17  H   UNL     1       2.579   0.570  -0.847  0.00  0.00    +0.150 HD
BRANCH  15  18
ATOM     18  C   UNL     1       3.849  -0.554   1.139  0.00  0.00    +0.037 A 
ATOM     19  C   UNL     1       4.365  -1.006  -0.077  0.00  0.00    +0.013 A 
ATOM     20  C   UNL     1       5.383  -1.937  -0.087  0.00  0.00    +0.001 A 
ATOM     21  C   UNL     1       5.885  -2.431   1.105  0.00  0.00    +0.000 A 
ATOM     22  C   UNL     1       5.374  -1.991   2.313  0.00  0.00    +0.001 A 
ATOM     23  C   UNL     1       4.360  -1.056   2.337  0.00  0.00    +0.013 A 
ENDBRANCH  15  18
ENDBRANCH   1  14
BRANCH   1  24
ATOM     24  C   UNL     1       1.397   2.838  -1.258  0.00  0.00    +0.127 C 
BRANCH  24  25
ATOM     25  C   UNL     1       2.725   3.550  -1.264  0.00  0.00    +0.213 C 
ATOM     26  O   UNL     1       3.452   3.484  -0.295  0.00  0.00    -0.276 OA
ATOM     27  N   UNL     1       3.105   4.260  -2.345  0.00  0.00    -0.329 N 
ATOM     28  H   UNL     1       2.523   4.312  -3.119  0.00  0.00    +0.145 HD
ATOM     29  H   UNL     1       3.960   4.718  -2.348  0.00  0.00    +0.145 HD
ENDBRANCH  24  25
ENDBRANCH   1  24
TORSDOF 7
