REMARK  Name = ZINC39631363
REMARK  13 active torsions:
REMARK  status: ('A' for Active; 'I' for Inactive)
REMARK    1  A    between atoms: C_1  and  C_2
REMARK    2  A    between atoms: C_2  and  C_3
REMARK    3  A    between atoms: C_6  and  C_9
REMARK    4  A    between atoms: C_13  and  C_22
REMARK    5  A    between atoms: N_24  and  C_25
REMARK    6  A    between atoms: C_25  and  C_27
REMARK    7  A    between atoms: C_25  and  C_28
REMARK    8  A    between atoms: C_28  and  C_29
REMARK    9  A    between atoms: C_29  and  C_30
REMARK   10  A    between atoms: C_30  and  C_31
REMARK   11  A    between atoms: C_31  and  C_32
REMARK   12  A    between atoms: C_31  and  C_33
REMARK   13  A    between atoms: C_31  and  O_34
REMARK                            x       y       z     vdW  Elec       q    Type
REMARK                         _______ _______ _______ _____ _____    ______ ____
ROOT
ATOM      1  C   UNL     1       1.471  -2.750  -4.039  0.00  0.00    +0.247 C 
ATOM      2  O   UNL     1       0.824  -3.032  -5.029  0.00  0.00    -0.270 OA
ATOM      3  N   UNL     1       2.817  -2.707  -4.104  0.00  0.00    -0.296 N 
ATOM      4  C   UNL     1       3.774  -2.514  -2.990  0.00  0.00    +0.121 C 
ATOM      5  C   UNL     1       4.945  -3.470  -3.310  0.00  0.00    +0.100 C 
ATOM      6  C   UNL     1       4.874  -3.680  -4.832  0.00  0.00    -0.004 C 
ATOM      7  C   UNL     1       3.674  -2.849  -5.306  0.00  0.00    +0.115 C 
ATOM      8  C   UNL     1       4.646  -5.154  -5.152  0.00  0.00    -0.010 C 
ATOM      9  C   UNL     1       4.637  -5.347  -6.671  0.00  0.00    -0.082 C 
ATOM     10  N   UNL     1       5.917  -4.896  -7.231  0.00  0.00    +0.379 N 
ATOM     11  C   UNL     1       6.086  -3.457  -6.999  0.00  0.00    -0.082 C 
ATOM     12  C   UNL     1       6.156  -3.184  -5.494  0.00  0.00    -0.010 C 
ATOM     13  H   UNL     1       6.672  -5.398  -6.787  0.00  0.00    -0.086 HD
ATOM     14  H   UNL     1       5.932  -5.080  -8.223  0.00  0.00    -0.086 HD
ENDROOT
BRANCH   1  18
ATOM     15  C   UNL     1      -0.506  -1.902  -0.377  0.00  0.00    -0.048 A 
ATOM     16  C   UNL     1      -1.200  -2.508  -1.410  0.00  0.00    +0.004 A 
ATOM     17  C   UNL     1      -0.563  -2.786  -2.602  0.00  0.00    +0.013 A 
ATOM     18  C   UNL     1       0.783  -2.455  -2.765  0.00  0.00    +0.037 A 
ATOM     19  C   UNL     1       1.476  -1.844  -1.719  0.00  0.00    +0.013 A 
ATOM     20  C   UNL     1       0.827  -1.566  -0.534  0.00  0.00    +0.004 A 
BRANCH  15  22
ATOM     21  C   UNL     1      -1.726  -0.162   0.901  0.00  0.00    +0.009 C 
ATOM     22  C   UNL     1      -1.208  -1.601   0.922  0.00  0.00    +0.032 C 
ENDBRANCH  15  22
ENDBRANCH   1  18
BRANCH   5  23
ATOM     23  C   UNL     1       4.764  -4.780  -2.588  0.00  0.00    +0.218 C 
ATOM     24  O   UNL     1       3.653  -5.153  -2.276  0.00  0.00    -0.275 OA
ATOM     25  N   UNL     1       5.838  -5.539  -2.290  0.00  0.00    -0.312 N 
ATOM     26  H   UNL     1       6.731  -5.209  -2.475  0.00  0.00    +0.149 HD
BRANCH  25  27
ATOM     27  C   UNL     1       5.655  -6.862  -1.687  0.00  0.00    +0.070 C 
ATOM     28  C   UNL     1       5.509  -7.910  -2.791  0.00  0.00    +0.028 C 
BRANCH  27  29
ATOM     29  C   UNL     1       6.870  -7.199  -0.820  0.00  0.00    +0.022 C 
BRANCH  29  30
ATOM     30  C   UNL     1       6.941  -6.228   0.360  0.00  0.00    +0.005 C 
BRANCH  30  31
ATOM     31  C   UNL     1       8.221  -6.486   1.157  0.00  0.00    +0.034 C 
BRANCH  31  32
ATOM     32  C   UNL     1       8.228  -5.606   2.409  0.00  0.00    +0.061 C 
ATOM     33  C   UNL     1       9.514  -5.856   3.200  0.00  0.00    +0.041 C 
ATOM     34  C   UNL     1       8.159  -4.134   1.998  0.00  0.00    +0.041 C 
BRANCH  32  35
ATOM     35  O   UNL     1       7.099  -5.927   3.223  0.00  0.00    -0.389 OA
ATOM     36  H   UNL     1       7.039  -5.407   4.036  0.00  0.00    +0.210 HD
ENDBRANCH  32  35
ENDBRANCH  31  32
ENDBRANCH  30  31
ENDBRANCH  29  30
ENDBRANCH  27  29
ENDBRANCH  25  27
ENDBRANCH   5  23
TORSDOF 9
