REMARK  Name = ZINC27104440
REMARK  7 active torsions:
REMARK  status: ('A' for Active; 'I' for Inactive)
REMARK    1  A    between atoms: C_1  and  C_2
REMARK    2  A    between atoms: C_2  and  C_4
REMARK    3  A    between atoms: C_2  and  N_20
REMARK    4  A    between atoms: N_9  and  C_10
REMARK    5  A    between atoms: N_23  and  C_26
REMARK    6  A    between atoms: C_27  and  C_36
REMARK    7  A    between atoms: C_29  and  C_31
REMARK                            x       y       z     vdW  Elec       q    Type
REMARK                         _______ _______ _______ _____ _____    ______ ____
ROOT
ATOM      1  C   UNL     1       6.618   2.722   1.566  0.00  0.00    -0.004 C 
ATOM      2  C   UNL     1       6.467   1.305   1.010  0.00  0.00    +0.017 C 
ENDROOT
BRANCH   2   3
ATOM      3  C   UNL     1       6.714   0.305   2.111  0.00  0.00    +0.207 C 
ATOM      4  O   UNL     1       5.787  -0.104   2.777  0.00  0.00    -0.277 OA
ATOM      5  N   UNL     1       7.964  -0.135   2.354  0.00  0.00    -0.242 N 
ATOM      6  C   UNL     1       8.185  -1.029   3.338  0.00  0.00    +0.306 C 
ATOM      7  O   UNL     1       7.256  -1.439   4.006  0.00  0.00    -0.252 OA
ATOM      8  N   UNL     1       9.435  -1.469   3.581  0.00  0.00    -0.294 N 
ATOM      9  H   UNL     1       8.805   0.236   1.749  0.00  0.00    +0.159 HD
ATOM     10  H   UNL     1      10.276  -1.098   2.977  0.00  0.00    +0.151 HD
BRANCH   8  11
ATOM     11  C   UNL     1       9.675  -2.441   4.651  0.00  0.00    +0.037 C 
ATOM     12  C   UNL     1       9.224  -1.849   5.988  0.00  0.00    +0.029 C 
ATOM     13  C   UNL     1       9.474  -2.864   7.105  0.00  0.00    -0.008 C 
ATOM     14  C   UNL     1      10.967  -3.193   7.170  0.00  0.00    +0.007 C 
ATOM     15  C   UNL     1      11.418  -3.785   5.833  0.00  0.00    -0.008 C 
ATOM     16  C   UNL     1      11.167  -2.770   4.716  0.00  0.00    +0.029 C 
ATOM     17  C   UNL     1      10.625  -5.062   5.548  0.00  0.00    +0.007 C 
ATOM     18  C   UNL     1       9.133  -4.733   5.483  0.00  0.00    -0.008 C 
ATOM     19  C   UNL     1       8.682  -4.141   6.820  0.00  0.00    +0.007 C 
ATOM     20  C   UNL     1       8.883  -3.718   4.366  0.00  0.00    +0.029 C 
ENDBRANCH   8  11
ENDBRANCH   2   3
BRANCH   2  21
ATOM     21  N   UNL     1       5.108   1.127   0.483  0.00  0.00    +0.389 N 
ATOM     22  C   UNL     1       4.855  -0.279   0.140  0.00  0.00    -0.058 C 
ATOM     23  C   UNL     1       3.461  -0.408  -0.478  0.00  0.00    +0.089 C 
ATOM     24  N   UNL     1       2.458   0.087   0.474  0.00  0.00    -0.303 N 
ATOM     25  C   UNL     1       2.711   1.494   0.817  0.00  0.00    +0.089 C 
ATOM     26  C   UNL     1       4.105   1.623   1.435  0.00  0.00    -0.058 C 
ATOM     27  H   UNL     1       5.024   1.722  -0.439  0.00  0.00    -0.081 HD
BRANCH  24  28
ATOM     28  C   UNL     1       1.183  -0.080  -0.020  0.00  0.00    +0.227 A 
ATOM     29  C   UNL     1      -0.001   0.274   0.609  0.00  0.00    +0.201 A 
ATOM     30  N   UNL     1      -1.014  -0.072  -0.230  0.00  0.00    -0.194 NA
ATOM     31  C   UNL     1      -0.497  -0.598  -1.314  0.00  0.00    +0.266 A 
ATOM     32  O   UNL     1       0.846  -0.616  -1.208  0.00  0.00    -0.417 OA
BRANCH  31  33
ATOM     33  C   UNL     1      -1.265  -1.096  -2.464  0.00  0.00    +0.189 A 
ATOM     34  C   UNL     1      -2.623  -1.084  -2.586  0.00  0.00    +0.055 A 
ATOM     35  C   UNL     1      -2.921  -1.654  -3.838  0.00  0.00    +0.042 A 
ATOM     36  C   UNL     1      -1.747  -1.982  -4.414  0.00  0.00    +0.196 A 
ATOM     37  O   UNL     1      -0.749  -1.639  -3.584  0.00  0.00    -0.458 OA
ENDBRANCH  31  33
BRANCH  29  38
ATOM     38  C   UNL     1      -0.133   0.882   1.899  0.00  0.00    +0.124 C 
ATOM     39  N   UNL     1      -0.237   1.364   2.922  0.00  0.00    -0.189 NA
ENDBRANCH  29  38
ENDBRANCH  24  28
ENDBRANCH   2  21
TORSDOF 6
