REMARK  Name = ZINC61596310
REMARK  7 active torsions:
REMARK  status: ('A' for Active; 'I' for Inactive)
REMARK    1  A    between atoms: C_1  and  C_2
REMARK    2  A    between atoms: C_2  and  N_3
REMARK    3  A    between atoms: C_9  and  S_10
REMARK    4  A    between atoms: S_10  and  C_11
REMARK    5  A    between atoms: C_11  and  C_12
REMARK    6  A    between atoms: C_11  and  C_13
REMARK    7  A    between atoms: C_11  and  C_20
REMARK                            x       y       z     vdW  Elec       q    Type
REMARK                         _______ _______ _______ _____ _____    ______ ____
ROOT
ATOM      1  C   UNL     1      -3.075  -1.106  -3.736  0.00  0.00    +0.147 C 
ATOM      2  C   UNL     1      -4.272  -0.219  -3.385  0.00  0.00    +0.040 C 
ENDROOT
BRANCH   1   3
ATOM      3  C   UNL     1      -2.771  -0.980  -5.207  0.00  0.00    -0.020 A 
ATOM      4  C   UNL     1      -3.536  -0.147  -6.002  0.00  0.00    +0.006 A 
ATOM      5  C   UNL     1      -3.257  -0.031  -7.351  0.00  0.00    +0.015 A 
ATOM      6  C   UNL     1      -2.212  -0.749  -7.905  0.00  0.00    +0.018 A 
ATOM      7  C   UNL     1      -1.448  -1.583  -7.109  0.00  0.00    +0.015 A 
ATOM      8  C   UNL     1      -1.724  -1.694  -5.759  0.00  0.00    +0.006 A 
ATOM      9 BR   UNL     1      -1.830  -0.591  -9.750  0.00  0.00    -0.050 Br
ENDBRANCH   1   3
BRANCH   1  10
ATOM     10  C   UNL     1      -3.402  -2.541  -3.412  0.00  0.00    +0.376 C 
ATOM     11  O   UNL     1      -2.722  -3.153  -2.605  0.00  0.00    -0.244 OA
ATOM     12  O   UNL     1      -4.345  -3.090  -3.956  0.00  0.00    -0.244 OA
ENDBRANCH   1  10
BRANCH   1  13
ATOM     13  S   UNL     1      -1.631  -0.581  -2.773  0.00  0.00    -0.063 S 
BRANCH  13  20
ATOM     14  N   UNL     1      -1.372  -0.511   0.012  0.00  0.00    -0.271 N 
ATOM     15  C   UNL     1      -2.104  -0.785   1.111  0.00  0.00    +0.345 A 
ATOM     16  O   UNL     1      -1.743  -0.655   2.267  0.00  0.00    -0.245 OA
ATOM     17  N   UNL     1      -3.309  -1.228   0.697  0.00  0.00    -0.226 N 
ATOM     18  H   UNL     1      -4.046  -1.501   1.266  0.00  0.00    +0.194 HD
ATOM     19  N   UNL     1      -3.301  -1.220  -0.704  0.00  0.00    -0.145 NA
ATOM     20  C   UNL     1      -2.139  -0.784  -1.098  0.00  0.00    +0.193 A 
BRANCH  14  22
ATOM     21  C   UNL     1      -0.019   1.526   0.010  0.00  0.00    +0.027 C 
ATOM     22  C   UNL     1       0.002  -0.004   0.002  0.00  0.00    +0.125 C 
ENDBRANCH  14  22
ENDBRANCH  13  20
ENDBRANCH   1  13
TORSDOF 5
