REMARK  Name = ZINC56155515
REMARK  12 active torsions:
REMARK  status: ('A' for Active; 'I' for Inactive)
REMARK    1  A    between atoms: C_1  and  C_2
REMARK    2  A    between atoms: C_2  and  C_4
REMARK    3  A    between atoms: C_2  and  N_13
REMARK    4  A    between atoms: N_9  and  C_10
REMARK    5  A    between atoms: C_10  and  C_11
REMARK    6  A    between atoms: C_10  and  C_12
REMARK    7  A    between atoms: N_13  and  C_14
REMARK    8  A    between atoms: C_17  and  O_20
REMARK    9  A    between atoms: O_20  and  C_21
REMARK   10  A    between atoms: C_21  and  C_22
REMARK   11  A    between atoms: C_22  and  O_24
REMARK   12  A    between atoms: O_24  and  C_25
REMARK                            x       y       z     vdW  Elec       q    Type
REMARK                         _______ _______ _______ _____ _____    ______ ____
ROOT
ATOM      1  N   UNL     1      -1.372  -0.511   0.012  0.00  0.00    -0.333 N 
ATOM      2  H   UNL     1      -1.794  -0.752   0.852  0.00  0.00    +0.147 HD
ENDROOT
BRANCH   1   3
ATOM      3  C   UNL     1      -2.077  -0.648  -1.189  0.00  0.00    +0.028 A 
ATOM      4  C   UNL     1      -1.472  -0.308  -2.392  0.00  0.00    +0.026 A 
ATOM      5  C   UNL     1      -2.167  -0.444  -3.577  0.00  0.00    +0.047 A 
ATOM      6  C   UNL     1      -3.470  -0.919  -3.566  0.00  0.00    +0.121 A 
ATOM      7  C   UNL     1      -4.076  -1.258  -2.365  0.00  0.00    +0.047 A 
ATOM      8  C   UNL     1      -3.380  -1.128  -1.179  0.00  0.00    +0.026 A 
BRANCH   6   9
ATOM      9  O   UNL     1      -4.155  -1.052  -4.734  0.00  0.00    -0.481 OA
BRANCH   9  10
ATOM     10  C   UNL     1      -5.493  -1.547  -4.649  0.00  0.00    +0.349 C 
BRANCH  10  11
ATOM     11  C   UNL     1      -6.088  -1.627  -6.031  0.00  0.00    +0.345 C 
ATOM     12  O   UNL     1      -5.434  -1.294  -6.990  0.00  0.00    -0.247 OA
BRANCH  11  13
ATOM     13  O   UNL     1      -7.345  -2.068  -6.196  0.00  0.00    -0.466 OA
ATOM     14  C   UNL     1      -7.845  -2.117  -7.534  0.00  0.00    +0.280 C 
ENDBRANCH  11  13
ENDBRANCH  10  11
ENDBRANCH   9  10
ENDBRANCH   6   9
ENDBRANCH   1   3
BRANCH   1  16
ATOM     15  C   UNL     1      -0.019   1.526   0.010  0.00  0.00    +0.038 C 
ATOM     16  C   UNL     1       0.002  -0.004   0.002  0.00  0.00    +0.154 C 
BRANCH  16  17
ATOM     17  C   UNL     1       0.731  -0.503   1.223  0.00  0.00    +0.240 C 
ATOM     18  O   UNL     1       0.159  -1.212   2.023  0.00  0.00    -0.273 OA
ATOM     19  N   UNL     1       2.019  -0.161   1.426  0.00  0.00    -0.239 N 
ATOM     20  C   UNL     1       2.671  -0.608   2.518  0.00  0.00    +0.306 C 
ATOM     21  O   UNL     1       2.097  -1.319   3.319  0.00  0.00    -0.252 OA
ATOM     22  N   UNL     1       3.958  -0.266   2.720  0.00  0.00    -0.297 N 
ATOM     23  H   UNL     1       2.476   0.406   0.786  0.00  0.00    +0.159 HD
ATOM     24  H   UNL     1       4.416   0.302   2.081  0.00  0.00    +0.151 HD
BRANCH  22  25
ATOM     25  C   UNL     1       4.667  -0.751   3.907  0.00  0.00    +0.068 C 
ATOM     26  C   UNL     1       5.234  -2.145   3.629  0.00  0.00    +0.027 C 
ATOM     27  C   UNL     1       5.811   0.207   4.245  0.00  0.00    +0.027 C 
ENDBRANCH  22  25
ENDBRANCH  16  17
ENDBRANCH   1  16
TORSDOF 8
