REMARK  Name = ZINC39640329
REMARK  8 active torsions:
REMARK  status: ('A' for Active; 'I' for Inactive)
REMARK    1  A    between atoms: C_6  and  C_30
REMARK    2  A    between atoms: C_7  and  N_9
REMARK    3  A    between atoms: C_10  and  C_12
REMARK    4  A    between atoms: C_12  and  O_13
REMARK    5  A    between atoms: O_13  and  C_14
REMARK    6  A    between atoms: C_14  and  C_16
REMARK    7  A    between atoms: C_16  and  N_17
REMARK    8  A    between atoms: C_18  and  C_20
REMARK                            x       y       z     vdW  Elec       q    Type
REMARK                         _______ _______ _______ _____ _____    ______ ____
ROOT
ATOM      1  C   UNL     1       3.067  -4.687   5.104  0.00  0.00    +0.328 C 
ENDROOT
BRANCH   1   3
ATOM      2  N   UNL     1       1.957  -3.299   3.385  0.00  0.00    -0.277 N 
ATOM      3  C   UNL     1       2.878  -3.388   4.364  0.00  0.00    +0.255 C 
ATOM      4  O   UNL     1       3.555  -2.423   4.650  0.00  0.00    -0.272 OA
ATOM      5  H   UNL     1       1.415  -4.071   3.156  0.00  0.00    +0.155 HD
BRANCH   2  12
ATOM      6  C   UNL     1      -0.019   1.526   0.010  0.00  0.00    +0.005 C 
ATOM      7  C   UNL     1       1.414   2.067  -0.000  0.00  0.00    +0.005 C 
ATOM      8  C   UNL     1       2.067   1.772   1.358  0.00  0.00    +0.043 C 
ATOM      9  C   UNL     1       1.810   0.337   1.702  0.00  0.00    -0.004 A 
ATOM     10  C   UNL     1       0.907  -0.486   1.127  0.00  0.00    -0.023 A 
ATOM     11  C   UNL     1       0.892  -1.829   1.677  0.00  0.00    +0.068 A 
ATOM     12  C   UNL     1       1.783  -2.104   2.703  0.00  0.00    +0.084 A 
ATOM     13  S   UNL     1       2.603  -0.656   2.932  0.00  0.00    -0.077 S 
ATOM     14  C   UNL     1       0.002  -0.004   0.002  0.00  0.00    +0.037 C 
BRANCH  11  15
ATOM     15  C   UNL     1      -0.027  -2.853   1.169  0.00  0.00    +0.244 C 
ATOM     16  O   UNL     1       0.315  -3.576   0.252  0.00  0.00    -0.270 OA
ATOM     17  N   UNL     1      -1.249  -2.994   1.719  0.00  0.00    -0.325 N 
ATOM     18  H   UNL     1      -1.521  -2.418   2.451  0.00  0.00    +0.145 HD
ATOM     19  H   UNL     1      -1.857  -3.671   1.383  0.00  0.00    +0.145 HD
ENDBRANCH  11  15
ENDBRANCH   2  12
ENDBRANCH   1   3
BRANCH   1  20
ATOM     20  O   UNL     1       4.093  -4.530   6.087  0.00  0.00    -0.454 OA
BRANCH  20  21
ATOM     21  C   UNL     1       4.386  -5.604   6.838  0.00  0.00    +0.325 C 
ATOM     22  O   UNL     1       3.791  -6.641   6.668  0.00  0.00    -0.249 OA
BRANCH  21  23
ATOM     23  C   UNL     1       5.457  -5.514   7.895  0.00  0.00    +0.224 C 
BRANCH  23  24
ATOM     24  N   UNL     1       5.585  -6.807   8.571  0.00  0.00    -0.304 N 
ATOM     25  C   UNL     1       6.488  -6.964   9.560  0.00  0.00    +0.220 C 
ATOM     26  O   UNL     1       7.193  -6.034   9.890  0.00  0.00    -0.275 OA
ATOM     27  H   UNL     1       5.021  -7.550   8.307  0.00  0.00    +0.149 HD
BRANCH  25  28
ATOM     28  C   UNL     1       6.620  -8.294  10.255  0.00  0.00    +0.048 C 
ATOM     29  C   UNL     1       5.287  -8.662  10.910  0.00  0.00    +0.019 C 
ATOM     30  C   UNL     1       5.421 -10.013  11.616  0.00  0.00    -0.009 C 
ATOM     31  C   UNL     1       6.508  -9.921  12.689  0.00  0.00    +0.007 C 
ATOM     32  C   UNL     1       7.841  -9.553  12.034  0.00  0.00    -0.009 C 
ATOM     33  C   UNL     1       7.707  -8.203  11.328  0.00  0.00    +0.019 C 
ATOM     34  C   UNL     1       8.222 -10.627  11.013  0.00  0.00    +0.007 C 
ATOM     35  C   UNL     1       7.135 -10.719   9.940  0.00  0.00    -0.009 C 
ATOM     36  C   UNL     1       5.802 -11.087  10.595  0.00  0.00    +0.007 C 
ATOM     37  C   UNL     1       7.000  -9.368   9.234  0.00  0.00    +0.019 C 
ENDBRANCH  25  28
ENDBRANCH  23  24
ENDBRANCH  21  23
ENDBRANCH  20  21
ENDBRANCH   1  20
TORSDOF 8
