REMARK  Name = ZINC27838089
REMARK  4 active torsions:
REMARK  status: ('A' for Active; 'I' for Inactive)
REMARK    1  A    between atoms: C_1  and  N_2
REMARK    2  A    between atoms: C_10  and  O_27
REMARK    3  A    between atoms: C_12  and  C_15
REMARK    4  A    between atoms: C_18  and  C_20
REMARK                            x       y       z     vdW  Elec       q    Type
REMARK                         _______ _______ _______ _____ _____    ______ ____
ROOT
ATOM      1  C   UNL     1      -6.926   6.796   3.461  0.00  0.00    -0.096 C 
ATOM      2  N   UNL     1      -5.622   6.833   2.784  0.00  0.00    +0.381 N 
ATOM      3  C   UNL     1      -5.088   8.201   2.746  0.00  0.00    -0.074 C 
ATOM      4  C   UNL     1      -3.599   8.175   2.391  0.00  0.00    +0.018 C 
ATOM      5  C   UNL     1      -3.426   7.342   1.125  0.00  0.00    -0.027 A 
ATOM      6  C   UNL     1      -4.410   6.499   0.731  0.00  0.00    -0.021 A 
ATOM      7  S   UNL     1      -3.800   5.751  -0.755  0.00  0.00    -0.080 S 
ATOM      8  C   UNL     1      -2.282   6.535  -0.844  0.00  0.00    +0.080 A 
ATOM      9  C   UNL     1      -2.252   7.380   0.274  0.00  0.00    +0.067 A 
ATOM     10  C   UNL     1      -1.039   8.218   0.460  0.00  0.00    +0.220 C 
ATOM     11  N   UNL     1       0.004   7.943  -0.273  0.00  0.00    -0.220 NA
ATOM     12  C   UNL     1       0.090   6.834  -1.214  0.00  0.00    +0.260 C 
ATOM     13  N   UNL     1      -1.238   6.459  -1.734  0.00  0.00    -0.311 N 
ATOM     14  C   UNL     1      -5.717   6.272   1.423  0.00  0.00    -0.036 C 
ATOM     15  H   UNL     1      -1.350   6.140  -2.781  0.00  0.00    +0.149 HD
ATOM     16  H   UNL     1      -4.926   6.212   3.367  0.00  0.00    -0.082 HD
ENDROOT
BRANCH  12  17
ATOM     17  C   UNL     1       0.700   5.644  -0.518  0.00  0.00    +0.148 A 
ATOM     18  C   UNL     1       1.575   5.696   0.505  0.00  0.00    +0.049 A 
ATOM     19  C   UNL     1       1.881   4.365   0.854  0.00  0.00    +0.050 A 
ATOM     20  C   UNL     1       1.176   3.567   0.009  0.00  0.00    +0.138 A 
ATOM     21  O   UNL     1       0.461   4.356  -0.815  0.00  0.00    -0.456 OA
BRANCH  20  22
ATOM     22  C   UNL     1       1.187   2.089   0.002  0.00  0.00    +0.052 A 
ATOM     23  C   UNL     1       2.398   1.397  -0.014  0.00  0.00    +0.014 A 
ATOM     24  C   UNL     1       2.402   0.017  -0.022  0.00  0.00    +0.001 A 
ATOM     25  C   UNL     1       1.208  -0.682  -0.014  0.00  0.00    +0.003 A 
ATOM     26  C   UNL     1       0.002  -0.004   0.002  0.00  0.00    +0.039 A 
ATOM     27  C   UNL     1      -0.017   1.378   0.010  0.00  0.00    +0.134 A 
ATOM     28  F   UNL     1      -1.195   2.039   0.019  0.00  0.00    -0.205 F 
ENDBRANCH  20  22
ENDBRANCH  12  17
BRANCH  10  29
ATOM     29  O   UNL     1      -1.018   9.230   1.357  0.00  0.00    -0.492 OA
ATOM     30  H   UNL     1      -0.110   9.839   1.479  0.00  0.00    +0.294 HD
ENDBRANCH  10  29
TORSDOF 3
