REMARK  Name = ZINC04171734
REMARK  7 active torsions:
REMARK  status: ('A' for Active; 'I' for Inactive)
REMARK    1  A    between atoms: C_4  and  N_7
REMARK    2  A    between atoms: C_8  and  C_22
REMARK    3  A    between atoms: C_10  and  C_12
REMARK    4  A    between atoms: C_13  and  C_14
REMARK    5  A    between atoms: C_17  and  O_21
REMARK    6  A    between atoms: C_19  and  O_20
REMARK    7  A    between atoms: C_27  and  O_28
REMARK                            x       y       z     vdW  Elec       q    Type
REMARK                         _______ _______ _______ _____ _____    ______ ____
ROOT
ATOM      1  N   UNL     1       3.611  -0.671  -0.064  0.00  0.00    -0.212 N 
ATOM      2  C   UNL     1       3.933  -1.785   0.651  0.00  0.00    +0.168 A 
ATOM      3  N   UNL     1       5.189  -2.085   0.391  0.00  0.00    -0.207 NA
ATOM      4  C   UNL     1       5.696  -1.197  -0.475  0.00  0.00    +0.175 A 
ATOM      5  N   UNL     1       4.763  -0.317  -0.785  0.00  0.00    -0.145 NA
ENDROOT
BRANCH   1   9
ATOM      6  C   UNL     1      -0.067   1.286  -0.116  0.00  0.00    +0.000 A 
ATOM      7  C   UNL     1       0.458   0.836   1.081  0.00  0.00    +0.002 A 
ATOM      8  C   UNL     1       1.677   0.187   1.102  0.00  0.00    +0.028 A 
ATOM      9  C   UNL     1       2.375  -0.014  -0.082  0.00  0.00    +0.068 A 
ATOM     10  C   UNL     1       1.845   0.439  -1.283  0.00  0.00    +0.028 A 
ATOM     11  C   UNL     1       0.625   1.087  -1.297  0.00  0.00    +0.002 A 
ENDBRANCH   1   9
BRANCH   2  12
ATOM     12  C   UNL     1       3.033  -2.526   1.560  0.00  0.00    +0.061 A 
ATOM     13  C   UNL     1       1.750  -2.879   1.141  0.00  0.00    +0.015 A 
ATOM     14  C   UNL     1       0.914  -3.570   1.992  0.00  0.00    +0.001 A 
ATOM     15  C   UNL     1       1.343  -3.916   3.263  0.00  0.00    +0.004 A 
ATOM     16  C   UNL     1       2.611  -3.572   3.689  0.00  0.00    +0.046 A 
ATOM     17  C   UNL     1       3.465  -2.882   2.842  0.00  0.00    +0.128 A 
BRANCH  17  18
ATOM     18  O   UNL     1       4.714  -2.549   3.258  0.00  0.00    -0.506 OA
ATOM     19  H   UNL     1       4.766  -1.688   3.695  0.00  0.00    +0.292 HD
ENDBRANCH  17  18
ENDBRANCH   2  12
BRANCH   4  20
ATOM     20  C   UNL     1       7.072  -1.205  -1.002  0.00  0.00    +0.050 C 
ATOM     21  C   UNL     1       7.465  -0.258  -1.869  0.00  0.00    +0.015 C 
BRANCH  21  22
ATOM     22  C   UNL     1       8.840  -0.266  -2.396  0.00  0.00    +0.017 A 
ATOM     23  C   UNL     1       9.737  -1.263  -2.000  0.00  0.00    +0.015 A 
ATOM     24  C   UNL     1      11.022  -1.267  -2.495  0.00  0.00    +0.046 A 
ATOM     25  C   UNL     1      11.432  -0.284  -3.388  0.00  0.00    +0.120 A 
ATOM     26  C   UNL     1      10.549   0.709  -3.788  0.00  0.00    +0.091 A 
ATOM     27  C   UNL     1       9.254   0.722  -3.301  0.00  0.00    +0.127 A 
BRANCH  27  28
ATOM     28  O   UNL     1       8.387   1.690  -3.696  0.00  0.00    -0.506 OA
ATOM     29  H   UNL     1       8.398   2.479  -3.136  0.00  0.00    +0.292 HD
ENDBRANCH  27  28
BRANCH  25  30
ATOM     30  O   UNL     1      12.701  -0.296  -3.872  0.00  0.00    -0.507 OA
ATOM     31  H   UNL     1      12.807  -0.804  -4.687  0.00  0.00    +0.292 HD
ENDBRANCH  25  30
ENDBRANCH  21  22
ENDBRANCH   4  20
TORSDOF 7
