REMARK  Name = ZINC16139107
REMARK  8 active torsions:
REMARK  status: ('A' for Active; 'I' for Inactive)
REMARK    1  A    between atoms: C_1  and  C_2
REMARK    2  A    between atoms: N_4  and  C_5
REMARK    3  A    between atoms: C_5  and  N_7
REMARK    4  A    between atoms: N_7  and  C_8
REMARK    5  A    between atoms: C_11  and  N_14
REMARK    6  A    between atoms: C_15  and  C_17
REMARK    7  A    between atoms: C_18  and  C_19
REMARK    8  A    between atoms: C_23  and  N_25
REMARK                            x       y       z     vdW  Elec       q    Type
REMARK                         _______ _______ _______ _____ _____    ______ ____
ROOT
ATOM      1  N   UNL     1       1.511  -2.090   0.175  0.00  0.00    -0.282 N 
ATOM      2  C   UNL     1       0.585  -2.742  -0.555  0.00  0.00    +0.241 C 
ATOM      3  O   UNL     1      -0.172  -2.118  -1.276  0.00  0.00    -0.270 OA
ATOM      4  H   UNL     1       2.166  -2.590   0.687  0.00  0.00    +0.155 HD
ENDROOT
BRANCH   1   8
ATOM      5  C   UNL     1       1.562   2.079   0.233  0.00  0.00    +0.033 A 
ATOM      6  C   UNL     1       0.354   1.401   0.134  0.00  0.00    +0.025 A 
ATOM      7  C   UNL     1       0.337   0.021   0.115  0.00  0.00    +0.025 A 
ATOM      8  C   UNL     1       1.528  -0.690   0.195  0.00  0.00    +0.034 A 
ATOM      9  C   UNL     1       2.736  -0.012   0.294  0.00  0.00    +0.025 A 
ATOM     10  C   UNL     1       2.753   1.369   0.313  0.00  0.00    +0.025 A 
BRANCH   5  11
ATOM     11  N   UNL     1       1.580   3.479   0.252  0.00  0.00    -0.297 N 
ATOM     12  H   UNL     1       1.000   3.979  -0.343  0.00  0.00    +0.154 HD
BRANCH  11  13
ATOM     13  C   UNL     1       2.402   4.131   1.097  0.00  0.00    +0.141 C 
ATOM     14  S   UNL     1       3.320   3.254   2.246  0.00  0.00    -0.018 S 
BRANCH  13  18
ATOM     15  C   UNL     1       3.435   7.628   1.818  0.00  0.00    +0.109 C 
ATOM     16  C   UNL     1       3.324   6.127   1.884  0.00  0.00    +0.215 C 
ATOM     17  O   UNL     1       3.974   5.505   2.697  0.00  0.00    -0.276 OA
ATOM     18  N   UNL     1       2.502   5.474   1.039  0.00  0.00    -0.268 N 
ATOM     19  H   UNL     1       1.982   5.971   0.388  0.00  0.00    +0.156 HD
ENDBRANCH  13  18
ENDBRANCH  11  13
ENDBRANCH   5  11
ENDBRANCH   1   8
BRANCH   2  20
ATOM     20  C   UNL     1       0.489  -4.200  -0.481  0.00  0.00    +0.068 C 
ATOM     21  C   UNL     1      -0.438  -4.853  -1.212  0.00  0.00    +0.013 C 
BRANCH  21  22
ATOM     22  C   UNL     1      -0.535  -6.319  -1.138  0.00  0.00    -0.023 A 
ATOM     23  C   UNL     1       0.333  -7.040  -0.310  0.00  0.00    +0.009 A 
ATOM     24  C   UNL     1       0.237  -8.413  -0.246  0.00  0.00    +0.023 A 
ATOM     25  C   UNL     1      -0.716  -9.080  -0.998  0.00  0.00    +0.071 A 
ATOM     26  C   UNL     1      -1.579  -8.373  -1.820  0.00  0.00    +0.145 A 
ATOM     27  C   UNL     1      -1.498  -6.999  -1.889  0.00  0.00    +0.042 A 
ATOM     28 CL   UNL     1      -0.829 -10.810  -0.912  0.00  0.00    -0.081 Cl
BRANCH  26  29
ATOM     29  N   UNL     1      -2.594  -9.095  -2.620  0.00  0.00    +0.058 N 
ATOM     30  O   UNL     1      -3.353  -8.475  -3.343  0.00  0.00    -0.126 OA
ATOM     31  O   UNL     1      -2.669 -10.309  -2.556  0.00  0.00    -0.126 OA
ENDBRANCH  26  29
ENDBRANCH  21  22
ENDBRANCH   2  20
TORSDOF 7
