REMARK  Name = ZINC66929016
REMARK  4 active torsions:
REMARK  status: ('A' for Active; 'I' for Inactive)
REMARK    1  A    between atoms: C_10  and  C_11
REMARK    2  A    between atoms: C_10  and  O_24
REMARK    3  A    between atoms: C_11  and  N_12
REMARK    4  A    between atoms: C_13  and  C_15
REMARK                            x       y       z     vdW  Elec       q    Type
REMARK                         _______ _______ _______ _____ _____    ______ ____
ROOT
ATOM      1  C   UNL     1       4.689   0.049   0.901  0.00  0.00    +0.144 C 
ENDROOT
BRANCH   1  11
ATOM      2  C   UNL     1       3.501  -4.769   1.163  0.00  0.00    +0.000 A 
ATOM      3  C   UNL     1       3.495  -3.749   2.096  0.00  0.00    +0.000 A 
ATOM      4  C   UNL     1       3.578  -2.438   1.677  0.00  0.00    +0.007 A 
ATOM      5  C   UNL     1       3.670  -2.133   0.325  0.00  0.00    -0.011 A 
ATOM      6  C   UNL     1       3.682  -3.149  -0.604  0.00  0.00    -0.041 A 
ATOM      7  C   UNL     1       3.594  -4.469  -0.180  0.00  0.00    +0.004 A 
ATOM      8  C   UNL     1       3.796  -2.893  -2.084  0.00  0.00    +0.035 C 
ATOM      9  C   UNL     1       3.451  -1.440  -2.406  0.00  0.00    +0.008 C 
ATOM     10  C   UNL     1       4.277  -0.532  -1.488  0.00  0.00    +0.041 C 
ATOM     11  C   UNL     1       3.750  -0.679  -0.063  0.00  0.00    +0.107 C 
BRANCH  11  12
ATOM     12  O   UNL     1       2.447  -0.097   0.020  0.00  0.00    -0.382 OA
ATOM     13  H   UNL     1       2.054  -0.138   0.902  0.00  0.00    +0.211 HD
ENDBRANCH  11  12
ENDBRANCH   1  11
BRANCH   1  14
ATOM     14  N   UNL     1       4.837   1.444   0.478  0.00  0.00    -0.308 N 
ATOM     15  C   UNL     1       5.710   2.251   1.112  0.00  0.00    +0.244 C 
ATOM     16  O   UNL     1       6.375   1.822   2.035  0.00  0.00    -0.270 OA
ATOM     17  H   UNL     1       4.306   1.786  -0.259  0.00  0.00    +0.149 HD
BRANCH  15  18
ATOM     18  C   UNL     1       5.859   3.659   0.685  0.00  0.00    +0.037 A 
ATOM     19  C   UNL     1       5.093   4.156  -0.371  0.00  0.00    +0.013 A 
ATOM     20  C   UNL     1       5.236   5.471  -0.765  0.00  0.00    +0.007 A 
ATOM     21  C   UNL     1       6.136   6.295  -0.116  0.00  0.00    -0.017 A 
ATOM     22  C   UNL     1       6.900   5.806   0.934  0.00  0.00    -0.016 A 
ATOM     23  C   UNL     1       6.763   4.498   1.340  0.00  0.00    +0.019 A 
ATOM     24  C   UNL     1       7.771   6.942   1.420  0.00  0.00    +0.195 C 
ATOM     25  O   UNL     1       7.775   7.918   0.362  0.00  0.00    -0.371 OA
ATOM     26  C   UNL     1       6.513   7.745  -0.308  0.00  0.00    +0.195 C 
ENDBRANCH  15  18
ENDBRANCH   1  14
TORSDOF 4
