REMARK  Name = ZINC09912617
REMARK  5 active torsions:
REMARK  status: ('A' for Active; 'I' for Inactive)
REMARK    1  A    between atoms: C_8  and  C_30
REMARK    2  A    between atoms: C_11  and  C_12
REMARK    3  A    between atoms: C_11  and  N_53
REMARK    4  A    between atoms: C_15  and  C_25
REMARK    5  A    between atoms: C_18  and  C_20
REMARK                            x       y       z     vdW  Elec       q    Type
REMARK                         _______ _______ _______ _____ _____    ______ ____
ROOT
ATOM      1  C   UNL     1       2.172   0.042   1.150  0.00  0.00    +0.022 C 
ENDROOT
BRANCH   1  11
ATOM      2  C   UNL     1       4.058   5.714  -1.212  0.00  0.00    +0.000 A 
ATOM      3  C   UNL     1       4.948   5.322  -0.229  0.00  0.00    +0.000 A 
ATOM      4  C   UNL     1       4.723   4.158   0.478  0.00  0.00    +0.002 A 
ATOM      5  C   UNL     1       3.609   3.377   0.207  0.00  0.00    -0.061 A 
ATOM      6  C   UNL     1       2.724   3.767  -0.775  0.00  0.00    -0.047 A 
ATOM      7  C   UNL     1       2.949   4.938  -1.483  0.00  0.00    +0.004 A 
ATOM      8  C   UNL     1       1.505   2.946  -1.112  0.00  0.00    +0.029 C 
ATOM      9  C   UNL     1       1.213   1.958   0.017  0.00  0.00    +0.024 C 
ATOM     10  C   UNL     1       3.405   2.118   1.008  0.00  0.00    -0.041 C 
ATOM     11  N   UNL     1       2.462   1.226   0.311  0.00  0.00    +0.396 N 
ATOM     12  H   UNL     1       2.884   0.915  -0.571  0.00  0.00    -0.080 HD
BRANCH   9  13
ATOM     13  C   UNL     1       0.152   0.983  -0.425  0.00  0.00    +0.197 C 
ATOM     14  O   UNL     1       0.464  -0.012  -1.045  0.00  0.00    -0.278 OA
ATOM     15  N   UNL     1      -1.143   1.219  -0.136  0.00  0.00    -0.331 N 
ATOM     16  H   UNL     1      -1.826   0.594  -0.424  0.00  0.00    +0.145 HD
ATOM     17  H   UNL     1      -1.392   2.015   0.359  0.00  0.00    +0.145 HD
ENDBRANCH   9  13
ENDBRANCH   1  11
BRANCH   1  18
ATOM     18  C   UNL     1       3.466  -0.654   1.486  0.00  0.00    +0.219 C 
ATOM     19  O   UNL     1       4.503  -0.284   0.978  0.00  0.00    -0.276 OA
ATOM     20  N   UNL     1       3.470  -1.689   2.350  0.00  0.00    -0.184 N 
ATOM     21  C   UNL     1       4.657  -2.453   2.763  0.00  0.00    +0.172 C 
ATOM     22  C   UNL     1       4.092  -3.499   3.745  0.00  0.00    +0.090 C 
ATOM     23  C   UNL     1       2.610  -3.203   3.779  0.00  0.00    +0.075 C 
ATOM     24  N   UNL     1       2.352  -2.204   3.002  0.00  0.00    -0.180 NA
BRANCH  23  25
ATOM     25  C   UNL     1       1.619  -3.932   4.578  0.00  0.00    +0.035 A 
ATOM     26  C   UNL     1       0.253  -3.727   4.674  0.00  0.00    +0.017 A 
ATOM     27  C   UNL     1      -0.475  -4.553   5.497  0.00  0.00    +0.008 A 
ATOM     28  C   UNL     1       0.163  -5.530   6.193  0.00  0.00    +0.046 A 
ATOM     29  S   UNL     1       1.860  -5.311   5.686  0.00  0.00    -0.095 S 
ENDBRANCH  23  25
BRANCH  21  30
ATOM     30  C   UNL     1       5.292  -3.130   1.576  0.00  0.00    +0.128 A 
ATOM     31  C   UNL     1       6.613  -3.261   1.358  0.00  0.00    +0.046 A 
ATOM     32  C   UNL     1       6.759  -3.957   0.136  0.00  0.00    +0.041 A 
ATOM     33  C   UNL     1       5.519  -4.203  -0.324  0.00  0.00    +0.195 A 
ATOM     34  O   UNL     1       4.634  -3.700   0.552  0.00  0.00    -0.466 OA
ENDBRANCH  21  30
ENDBRANCH   1  18
TORSDOF 5
