REMARK  Name = ZINC04209458
REMARK  5 active torsions:
REMARK  status: ('A' for Active; 'I' for Inactive)
REMARK    1  A    between atoms: C_3  and  C_6
REMARK    2  A    between atoms: N_7  and  N_8
REMARK    3  A    between atoms: C_9  and  C_11
REMARK    4  A    between atoms: N_13  and  C_14
REMARK    5  A    between atoms: C_15  and  C_23
REMARK                            x       y       z     vdW  Elec       q    Type
REMARK                         _______ _______ _______ _____ _____    ______ ____
ROOT
ATOM      1  C   UNL     1      -2.297   7.270  -2.868  0.00  0.00    +0.305 C 
ATOM      2  O   UNL     1      -2.281   6.397  -3.712  0.00  0.00    -0.265 OA
ATOM      3  N   UNL     1      -1.978   6.979  -1.591  0.00  0.00    -0.271 N 
ATOM      4  H   UNL     1      -1.990   7.676  -0.917  0.00  0.00    +0.156 HD
ENDROOT
BRANCH   3   5
ATOM      5  C   UNL     1      -1.633   5.684  -1.242  0.00  0.00    +0.090 A 
ATOM      6  C   UNL     1      -1.276   5.182   0.004  0.00  0.00    +0.084 A 
ATOM      7  C   UNL     1      -0.956   3.769   0.100  0.00  0.00    -0.018 A 
ATOM      8  C   UNL     1      -1.036   3.058  -1.048  0.00  0.00    -0.004 A 
ATOM      9  S   UNL     1      -1.533   4.234  -2.277  0.00  0.00    -0.077 S 
ATOM     10  C   UNL     1      -0.762   1.598  -1.231  0.00  0.00    +0.043 C 
ATOM     11  C   UNL     1      -0.013   1.086   0.008  0.00  0.00    +0.005 C 
ATOM     12  C   UNL     1      -0.736   1.583   1.263  0.00  0.00    +0.005 C 
ATOM     13  C   UNL     1      -0.551   3.093   1.407  0.00  0.00    +0.037 C 
BRANCH   6  14
ATOM     14  C   UNL     1      -1.225   6.032   1.156  0.00  0.00    +0.102 C 
ATOM     15  N   UNL     1      -1.184   6.706   2.070  0.00  0.00    -0.191 NA
ENDBRANCH   6  14
ENDBRANCH   3   5
BRANCH   1  17
ATOM     16  N   UNL     1      -2.987   8.954  -4.520  0.00  0.00    -0.199 N 
ATOM     17  C   UNL     1      -2.668   8.663  -3.243  0.00  0.00    +0.318 C 
ATOM     18  O   UNL     1      -2.684   9.536  -2.399  0.00  0.00    -0.263 OA
ATOM     19  H   UNL     1      -2.974   8.257  -5.194  0.00  0.00    +0.178 HD
BRANCH  16  21
ATOM     20  C   UNL     1      -3.644  10.546  -6.107  0.00  0.00    +0.176 C 
ATOM     21  N   UNL     1      -3.336  10.264  -4.873  0.00  0.00    -0.184 NA
BRANCH  20  24
ATOM     22  C   UNL     1      -4.623  13.721  -7.621  0.00  0.00    +0.042 A 
ATOM     23  C   UNL     1      -4.352  12.345  -7.727  0.00  0.00    +0.051 A 
ATOM     24  C   UNL     1      -4.009  11.915  -6.476  0.00  0.00    +0.147 A 
ATOM     25  O   UNL     1      -4.071  12.971  -5.640  0.00  0.00    -0.462 OA
ATOM     26  C   UNL     1      -4.436  14.064  -6.330  0.00  0.00    +0.196 A 
ENDBRANCH  20  24
ENDBRANCH  16  21
ENDBRANCH   1  17
TORSDOF 5
