REMARK  Name = ZINC20759819
REMARK  1 active torsions:
REMARK  status: ('A' for Active; 'I' for Inactive)
REMARK    1  A    between atoms: C_5  and  C_6
REMARK                            x       y       z     vdW  Elec       q    Type
REMARK                         _______ _______ _______ _____ _____    ______ ____
ROOT
ATOM      1  C   UNL     1      -1.172  -0.881   0.009  0.00  0.00    +0.282 C 
ATOM      2  O   UNL     1      -0.202  -0.159  -0.133  0.00  0.00    -0.267 OA
ATOM      3  N   UNL     1      -1.011  -2.216   0.102  0.00  0.00    -0.295 N 
ATOM      4  C   UNL     1       0.333  -2.802   0.203  0.00  0.00    +0.110 C 
ATOM      5  C   UNL     1       0.493  -3.859  -0.895  0.00  0.00    +0.047 C 
ATOM      6  C   UNL     1      -0.647  -4.873  -0.792  0.00  0.00    +0.064 C 
ATOM      7  C   UNL     1      -1.988  -4.166  -0.992  0.00  0.00    +0.047 C 
ATOM      8  C   UNL     1      -2.175  -3.112   0.110  0.00  0.00    +0.110 C 
ATOM      9  C   UNL     1      -0.473  -5.941  -1.837  0.00  0.00    +0.057 A 
ATOM     10  C   UNL     1      -0.011  -7.184  -1.570  0.00  0.00    +0.039 A 
ATOM     11  N   UNL     1       0.016  -7.870  -2.713  0.00  0.00    -0.349 N 
ATOM     12  C   UNL     1      -0.410  -7.102  -3.683  0.00  0.00    +0.171 A 
ATOM     13  N   UNL     1      -0.724  -5.888  -3.172  0.00  0.00    -0.348 N 
ATOM     14  H   UNL     1      -1.064  -5.125  -3.665  0.00  0.00    +0.166 HD
ATOM     15  C   UNL     1       0.386  -7.633  -0.185  0.00  0.00    +0.070 C 
ATOM     16  C   UNL     1       0.554  -6.382   0.687  0.00  0.00    +0.088 C 
ATOM     17  N   UNL     1      -0.620  -5.511   0.535  0.00  0.00    -0.305 NA
ATOM     18  H   UNL     1      -0.654  -4.819   1.269  0.00  0.00    +0.123 HD
ATOM     19  H   UNL     1       0.305  -8.790  -2.810  0.00  0.00    +0.166 HD
ENDROOT
BRANCH   1  24
ATOM     20  C   UNL     1      -2.835   1.010  -0.146  0.00  0.00    +0.056 A 
ATOM     21  C   UNL     1      -4.223   1.122   0.026  0.00  0.00    +0.058 A 
ATOM     22  C   UNL     1      -4.685  -0.109   0.343  0.00  0.00    +0.171 A 
ATOM     23  O   UNL     1      -3.653  -0.962   0.374  0.00  0.00    -0.444 OA
ATOM     24  C   UNL     1      -2.515  -0.299   0.078  0.00  0.00    +0.191 A 
ATOM     25 BR   UNL     1      -6.491  -0.552   0.688  0.00  0.00    -0.008 Br
ENDBRANCH   1  24
TORSDOF 1
