REMARK  Name = ZINC11984094
REMARK  9 active torsions:
REMARK  status: ('A' for Active; 'I' for Inactive)
REMARK    1  A    between atoms: C_1  and  C_2
REMARK    2  A    between atoms: C_2  and  O_3
REMARK    3  A    between atoms: O_3  and  C_4
REMARK    4  A    between atoms: C_7  and  C_10
REMARK    5  A    between atoms: C_10  and  C_12
REMARK    6  A    between atoms: C_10  and  N_13
REMARK    7  A    between atoms: C_14  and  C_16
REMARK    8  A    between atoms: C_19  and  C_25
REMARK    9  A    between atoms: N_21  and  C_24
REMARK                            x       y       z     vdW  Elec       q    Type
REMARK                         _______ _______ _______ _____ _____    ______ ____
ROOT
ATOM      1  N   UNL     1      -4.780   0.582   0.051  0.00  0.00    -0.304 N 
ATOM      2  C   UNL     1      -3.783  -0.325   0.036  0.00  0.00    +0.251 C 
ATOM      3  O   UNL     1      -4.043  -1.514   0.032  0.00  0.00    -0.270 OA
ATOM      4  H   UNL     1      -4.573   1.530   0.054  0.00  0.00    +0.150 HD
ENDROOT
BRANCH   2   5
ATOM      5  C   UNL     1      -2.387   0.120   0.025  0.00  0.00    +0.076 A 
ATOM      6  C   UNL     1      -1.252  -0.635   0.011  0.00  0.00    +0.032 A 
ATOM      7  C   UNL     1       0.002  -0.004   0.002  0.00  0.00    +0.031 A 
ATOM      8  C   UNL     1       1.392  -0.353  -0.013  0.00  0.00    +0.068 A 
ATOM      9  N   UNL     1       2.103   0.734  -0.014  0.00  0.00    -0.175 NA
ATOM     10  N   UNL     1       1.253   1.847   0.000  0.00  0.00    -0.260 N 
ATOM     11  C   UNL     1      -0.017   1.399   0.010  0.00  0.00    +0.107 A 
ATOM     12  S   UNL     1      -1.748   1.787   0.034  0.00  0.00    -0.064 S 
ATOM     13  C   UNL     1       1.671   3.251   0.003  0.00  0.00    +0.173 C 
ATOM     14  C   UNL     1       1.940  -1.757  -0.027  0.00  0.00    +0.068 C 
ENDBRANCH   2   5
BRANCH   1  15
ATOM     15  C   UNL     1      -6.176   0.137   0.062  0.00  0.00    +0.100 C 
ATOM     16  C   UNL     1      -6.610  -0.146   1.501  0.00  0.00    +0.033 C 
BRANCH  15  20
ATOM     17  C   UNL     1      -8.659   3.192  -1.601  0.00  0.00    +0.121 A 
ATOM     18  C   UNL     1      -8.903   1.859  -1.899  0.00  0.00    +0.046 A 
ATOM     19  C   UNL     1      -8.099   0.873  -1.360  0.00  0.00    +0.009 A 
ATOM     20  C   UNL     1      -7.051   1.214  -0.525  0.00  0.00    -0.027 A 
ATOM     21  C   UNL     1      -6.809   2.541  -0.222  0.00  0.00    +0.009 A 
ATOM     22  C   UNL     1      -7.607   3.531  -0.762  0.00  0.00    +0.046 A 
BRANCH  17  23
ATOM     23  O   UNL     1      -9.449   4.163  -2.129  0.00  0.00    -0.492 OA
BRANCH  23  25
ATOM     24  C   UNL     1     -10.129   6.458  -2.463  0.00  0.00    +0.048 C 
ATOM     25  C   UNL     1      -9.138   5.513  -1.779  0.00  0.00    +0.225 C 
ENDBRANCH  23  25
ENDBRANCH  17  23
ENDBRANCH  15  20
ENDBRANCH   1  15
TORSDOF 5
