REMARK  Name = ZINC32778729
REMARK  8 active torsions:
REMARK  status: ('A' for Active; 'I' for Inactive)
REMARK    1  A    between atoms: C_1  and  C_2
REMARK    2  A    between atoms: C_2  and  C_4
REMARK    3  A    between atoms: C_2  and  S_21
REMARK    4  A    between atoms: C_10  and  C_15
REMARK    5  A    between atoms: S_21  and  C_22
REMARK    6  A    between atoms: C_22  and  C_23
REMARK    7  A    between atoms: C_23  and  C_24
REMARK    8  A    between atoms: N_29  and  C_30
REMARK                            x       y       z     vdW  Elec       q    Type
REMARK                         _______ _______ _______ _____ _____    ______ ____
ROOT
ATOM      1  C   UNL     1       0.707  -0.490  -1.238  0.00  0.00    +0.124 A 
ATOM      2  N   UNL     1      -0.021  -0.808  -2.338  0.00  0.00    -0.309 N 
ATOM      3  H   UNL     1      -0.987  -0.718  -2.312  0.00  0.00    +0.170 HD
ATOM      4  C   UNL     1       0.570  -1.246  -3.466  0.00  0.00    +0.260 A 
ATOM      5  O   UNL     1      -0.098  -1.526  -4.446  0.00  0.00    -0.267 OA
ATOM      6  C   UNL     1       1.995  -1.375  -3.497  0.00  0.00    +0.080 A 
ATOM      7  C   UNL     1       2.858  -1.821  -4.584  0.00  0.00    +0.004 A 
ATOM      8  C   UNL     1       4.197  -1.862  -4.379  0.00  0.00    +0.056 A 
ATOM      9  S   UNL     1       4.374  -1.298  -2.697  0.00  0.00    -0.076 S 
ATOM     10  C   UNL     1       2.664  -1.024  -2.312  0.00  0.00    +0.116 A 
ATOM     11  N   UNL     1       2.009  -0.593  -1.237  0.00  0.00    -0.225 NA
ENDROOT
BRANCH   7  12
ATOM     12  C   UNL     1       2.282  -2.222  -5.889  0.00  0.00    -0.017 A 
ATOM     13  C   UNL     1       1.222  -3.127  -5.938  0.00  0.00    +0.008 A 
ATOM     14  C   UNL     1       0.689  -3.496  -7.156  0.00  0.00    +0.001 A 
ATOM     15  C   UNL     1       1.204  -2.971  -8.327  0.00  0.00    +0.000 A 
ATOM     16  C   UNL     1       2.256  -2.073  -8.286  0.00  0.00    +0.001 A 
ATOM     17  C   UNL     1       2.793  -1.692  -7.073  0.00  0.00    +0.008 A 
ENDBRANCH   7  12
BRANCH   1  19
ATOM     18  C   UNL     1      -0.019   1.526   0.010  0.00  0.00    +0.027 C 
ATOM     19  C   UNL     1       0.002  -0.004   0.002  0.00  0.00    +0.109 C 
BRANCH  19  20
ATOM     20  S   UNL     1       0.879  -0.605   1.472  0.00  0.00    -0.149 S 
BRANCH  20  21
ATOM     21  C   UNL     1      -0.166  -0.072   2.855  0.00  0.00    +0.079 C 
BRANCH  21  22
ATOM     22  C   UNL     1       0.467  -0.520   4.174  0.00  0.00    +0.107 C 
BRANCH  22  23
ATOM     23  C   UNL     1      -0.401  -0.077   5.324  0.00  0.00    +0.221 C 
ATOM     24  O   UNL     1      -1.425   0.537   5.109  0.00  0.00    -0.275 OA
ATOM     25  N   UNL     1      -0.040  -0.363   6.590  0.00  0.00    -0.240 N 
ATOM     26  C   UNL     1      -0.816   0.033   7.618  0.00  0.00    +0.306 C 
ATOM     27  O   UNL     1      -1.842   0.649   7.403  0.00  0.00    -0.252 OA
ATOM     28  N   UNL     1      -0.455  -0.253   8.885  0.00  0.00    -0.302 N 
ATOM     29  C   UNL     1      -1.299   0.178  10.002  0.00  0.00    +0.129 C 
ATOM     30  H   UNL     1       0.779  -0.854   6.762  0.00  0.00    +0.159 HD
ATOM     31  H   UNL     1       0.364  -0.744   9.056  0.00  0.00    +0.150 HD
ENDBRANCH  22  23
ENDBRANCH  21  22
ENDBRANCH  20  21
ENDBRANCH  19  20
ENDBRANCH   1  19
TORSDOF 6
