REMARK  Name = ZINC36329782
REMARK  11 active torsions:
REMARK  status: ('A' for Active; 'I' for Inactive)
REMARK    1  A    between atoms: C_1  and  C_2
REMARK    2  A    between atoms: C_2  and  C_3
REMARK    3  A    between atoms: C_2  and  C_4
REMARK    4  A    between atoms: C_4  and  C_5
REMARK    5  A    between atoms: C_5  and  C_7
REMARK    6  A    between atoms: C_5  and  N_23
REMARK    7  A    between atoms: N_9  and  C_10
REMARK    8  A    between atoms: C_10  and  C_11
REMARK    9  A    between atoms: C_11  and  C_13
REMARK   10  A    between atoms: C_11  and  O_22
REMARK   11  A    between atoms: C_16  and  N_19
REMARK                            x       y       z     vdW  Elec       q    Type
REMARK                         _______ _______ _______ _____ _____    ______ ____
ROOT
ATOM      1  C   UNL     1      -3.402  -0.992  -1.554  0.00  0.00    +0.234 C 
ATOM      2  O   UNL     1      -4.372  -0.308  -1.803  0.00  0.00    -0.274 OA
ATOM      3  N   UNL     1      -3.532  -2.328  -1.434  0.00  0.00    -0.311 N 
ATOM      4  H   UNL     1      -2.756  -2.875  -1.235  0.00  0.00    +0.149 HD
ENDROOT
BRANCH   1   5
ATOM      5  C   UNL     1      -2.050  -0.348  -1.381  0.00  0.00    +0.170 C 
BRANCH   5   6
ATOM      6  N   UNL     1      -2.173   1.101  -1.559  0.00  0.00    -0.230 N 
ATOM      7  C   UNL     1      -2.945   1.875  -0.773  0.00  0.00    +0.227 C 
ATOM      8  O   UNL     1      -3.463   1.548   0.273  0.00  0.00    -0.275 OA
ATOM      9  C   UNL     1      -3.047   3.252  -1.449  0.00  0.00    +0.091 C 
ATOM     10  C   UNL     1      -4.247   3.138  -2.392  0.00  0.00    +0.040 C 
ATOM     11  C   UNL     1      -4.084   3.912  -3.654  0.00  0.00    -0.030 C 
ATOM     12  C   UNL     1      -2.958   4.351  -4.110  0.00  0.00    -0.030 C 
ATOM     13  C   UNL     1      -1.657   4.176  -3.393  0.00  0.00    +0.040 C 
ATOM     14  C   UNL     1      -1.718   3.240  -2.221  0.00  0.00    +0.091 C 
ATOM     15  C   UNL     1      -1.517   1.783  -2.524  0.00  0.00    +0.227 C 
ATOM     16  O   UNL     1      -0.893   1.313  -3.451  0.00  0.00    -0.275 OA
ENDBRANCH   5   6
BRANCH   5  17
ATOM     17  C   UNL     1      -1.520  -0.646   0.024  0.00  0.00    +0.035 C 
BRANCH  17  19
ATOM     18  C   UNL     1       0.366  -0.247   1.612  0.00  0.00    +0.007 C 
ATOM     19  C   UNL     1      -0.110  -0.071   0.169  0.00  0.00    -0.015 C 
ATOM     20  C   UNL     1       0.841  -0.808  -0.776  0.00  0.00    +0.007 C 
ENDBRANCH  17  19
ENDBRANCH   5  17
ENDBRANCH   1   5
BRANCH   3  21
ATOM     21  C   UNL     1      -4.846  -2.954  -1.603  0.00  0.00    +0.140 C 
BRANCH  21  22
ATOM     22  C   UNL     1      -4.718  -4.467  -1.417  0.00  0.00    +0.162 C 
BRANCH  22  23
ATOM     23  C   UNL     1      -6.069  -5.111  -1.590  0.00  0.00    -0.018 A 
ATOM     24  C   UNL     1      -6.519  -5.444  -2.854  0.00  0.00    +0.008 A 
ATOM     25  C   UNL     1      -7.758  -6.034  -3.014  0.00  0.00    +0.033 A 
ATOM     26  C   UNL     1      -8.548  -6.293  -1.909  0.00  0.00    +0.126 A 
ATOM     27  C   UNL     1      -8.098  -5.961  -0.645  0.00  0.00    +0.033 A 
ATOM     28  C   UNL     1      -6.857  -5.374  -0.485  0.00  0.00    +0.008 A 
BRANCH  26  29
ATOM     29  N   UNL     1      -9.876  -6.924  -2.080  0.00  0.00    +0.056 N 
ATOM     30  O   UNL     1     -10.270  -7.214  -3.186  0.00  0.00    -0.126 OA
ATOM     31  O   UNL     1     -10.567  -7.150  -1.114  0.00  0.00    -0.126 OA
ENDBRANCH  26  29
ENDBRANCH  22  23
BRANCH  22  32
ATOM     32  O   UNL     1      -3.812  -4.992  -2.389  0.00  0.00    -0.386 OA
ATOM     33  H   UNL     1      -4.085  -4.839  -3.304  0.00  0.00    +0.210 HD
ENDBRANCH  22  32
ENDBRANCH  21  22
ENDBRANCH   3  21
TORSDOF 9
