REMARK  Name = ZINC04018103
REMARK  6 active torsions:
REMARK  status: ('A' for Active; 'I' for Inactive)
REMARK    1  A    between atoms: C_4  and  C_7
REMARK    2  A    between atoms: N_23  and  C1*_24
REMARK    3  A    between atoms: C2*_26  and  O2*_36
REMARK    4  A    between atoms: C3*_28  and  O3*_35
REMARK    5  A    between atoms: C4*_30  and  C5*_33
REMARK    6  A    between atoms: C5*_33  and  O5*_34
REMARK                            x       y       z     vdW  Elec       q    Type
REMARK                         _______ _______ _______ _____ _____    ______ ____
ROOT
ATOM      1  C   UNL     1       3.485   5.646   2.939  0.00  0.00    +0.038 C 
ATOM      2  C   UNL     1       3.052   4.287   3.549  0.00  0.00    +0.028 C 
ATOM      3  C   UNL     1       2.329   3.623   2.351  0.00  0.00    +0.108 C 
ATOM      4  N   UNL     1       3.112   4.029   1.164  0.00  0.00    -0.300 N 
ATOM      5  C   UNL     1       3.827   5.279   1.479  0.00  0.00    +0.116 C 
ATOM      6  C   UNL     1       2.293   4.191   0.063  0.00  0.00    +0.203 A 
ATOM      7  N   UNL     1       2.162   5.298  -0.624  0.00  0.00    -0.207 NA
ATOM      8  C   UNL     1       1.275   5.097  -1.631  0.00  0.00    +0.174 A 
ATOM      9  C   UNL     1       0.751   5.915  -2.661  0.00  0.00    +0.279 A 
ATOM     10  O   UNL     1       1.097   7.079  -2.773  0.00  0.00    -0.265 OA
ATOM     11  N   UNL     1      -0.142   5.371  -3.517  0.00  0.00    -0.312 N 
ATOM     12  H   UNL     1      -0.527   5.928  -4.253  0.00  0.00    +0.170 HD
ATOM     13  C   UNL     1      -0.518   4.074  -3.383  0.00  0.00    +0.201 A 
ATOM     14  N   UNL     1      -0.046   3.309  -2.439  0.00  0.00    -0.218 NA
ATOM     15  C   UNL     1       0.844   3.771  -1.550  0.00  0.00    +0.171 A 
ATOM     16  N   UNL     1       1.500   3.218  -0.479  0.00  0.00    -0.267 N 
ENDROOT
BRANCH   1  20
ATOM     17  C   UNL     1       6.921   7.190   4.953  0.00  0.00    +0.000 A 
ATOM     18  C   UNL     1       5.787   7.970   4.824  0.00  0.00    +0.000 A 
ATOM     19  C   UNL     1       4.675   7.470   4.173  0.00  0.00    +0.004 A 
ATOM     20  C   UNL     1       4.697   6.191   3.649  0.00  0.00    -0.043 A 
ATOM     21  C   UNL     1       5.830   5.410   3.782  0.00  0.00    +0.004 A 
ATOM     22  C   UNL     1       6.944   5.911   4.429  0.00  0.00    +0.000 A 
ENDBRANCH   1  20
BRANCH  16  23
ATOM     23  C1* UNL     1       1.370   1.839  -0.001  0.00  0.00    +0.255 C 
ATOM     24  C2* UNL     1       2.054   0.863  -0.983  0.00  0.00    +0.195 C 
ATOM     25  C3* UNL     1       1.133  -0.378  -0.981  0.00  0.00    +0.178 C 
ATOM     26  C4* UNL     1       0.002  -0.004   0.002  0.00  0.00    +0.177 C 
ATOM     27  O4* UNL     1      -0.018   1.440   0.010  0.00  0.00    -0.346 OA
BRANCH  25  28
ATOM     28  O3* UNL     1       0.605  -0.611  -2.288  0.00  0.00    -0.386 OA
ATOM     29  H3* UNL     1      -0.027  -1.342  -2.332  0.00  0.00    +0.210 HD
ENDBRANCH  25  28
BRANCH  24  30
ATOM     30  O2* UNL     1       2.125   1.432  -2.292  0.00  0.00    -0.385 OA
ATOM     31  H2* UNL     1       2.492   0.837  -2.960  0.00  0.00    +0.210 HD
ENDBRANCH  24  30
BRANCH  26  32
ATOM     32  C5* UNL     1      -1.337  -0.552  -0.494  0.00  0.00    +0.190 C 
BRANCH  32  33
ATOM     33  O5* UNL     1      -2.362  -0.233   0.450  0.00  0.00    -0.392 OA
ATOM     34  H5* UNL     1      -3.240  -0.550   0.199  0.00  0.00    +0.210 HD
ENDBRANCH  32  33
ENDBRANCH  26  32
ENDBRANCH  16  23
TORSDOF 6
