REMARK  Name = ZINC37516489
REMARK  5 active torsions:
REMARK  status: ('A' for Active; 'I' for Inactive)
REMARK    1  A    between atoms: C_3  and  S_8
REMARK    2  A    between atoms: C_6  and  N_7
REMARK    3  A    between atoms: S_8  and  C_9
REMARK    4  A    between atoms: C_9  and  C_10
REMARK    5  A    between atoms: C_13  and  N_17
REMARK                            x       y       z     vdW  Elec       q    Type
REMARK                         _______ _______ _______ _____ _____    ______ ____
ROOT
ATOM      1  C   UNL     1       5.173   1.027  -0.042  0.00  0.00    +0.110 C 
ENDROOT
BRANCH   1   2
ATOM      2  C   UNL     1       6.535   1.671  -0.052  0.00  0.00    -0.023 A 
ATOM      3  C   UNL     1       7.146   1.978  -1.254  0.00  0.00    +0.008 A 
ATOM      4  C   UNL     1       8.396   2.569  -1.263  0.00  0.00    +0.033 A 
ATOM      5  C   UNL     1       9.035   2.854  -0.071  0.00  0.00    +0.127 A 
ATOM      6  C   UNL     1       8.425   2.547   1.131  0.00  0.00    +0.048 A 
ATOM      7  C   UNL     1       7.172   1.961   1.141  0.00  0.00    +0.024 A 
ATOM      8 BR   UNL     1       6.334   1.548   2.785  0.00  0.00    -0.050 Br
BRANCH   5   9
ATOM      9  N   UNL     1      10.373   3.486  -0.081  0.00  0.00    +0.056 N 
ATOM     10  O   UNL     1      10.907   3.754  -1.133  0.00  0.00    -0.126 OA
ATOM     11  O   UNL     1      10.932   3.736   0.961  0.00  0.00    -0.126 OA
ENDBRANCH   5   9
ENDBRANCH   1   2
BRANCH   1  12
ATOM     12  S   UNL     1       3.896   2.315  -0.023  0.00  0.00    -0.120 S 
BRANCH  12  15
ATOM     13  C   UNL     1      -0.017   1.385   0.010  0.00  0.00    +0.024 A 
ATOM     14  C   UNL     1       1.169   2.091   0.002  0.00  0.00    +0.016 A 
ATOM     15  C   UNL     1       2.382   1.413  -0.013  0.00  0.00    +0.008 A 
ATOM     16  C   UNL     1       2.400   0.024  -0.021  0.00  0.00    +0.016 A 
ATOM     17  C   UNL     1       1.214  -0.682  -0.013  0.00  0.00    +0.024 A 
ATOM     18  C   UNL     1       0.002  -0.004   0.002  0.00  0.00    +0.025 A 
BRANCH  18  19
ATOM     19  N   UNL     1      -1.201  -0.720   0.010  0.00  0.00    -0.358 N 
ATOM     20  H   UNL     1      -2.047  -0.247   0.020  0.00  0.00    +0.142 HD
ATOM     21  H   UNL     1      -1.188  -1.690   0.004  0.00  0.00    +0.142 HD
ENDBRANCH  18  19
ENDBRANCH  12  15
ENDBRANCH   1  12
TORSDOF 5
