REMARK  Name = ZINC51450133
REMARK  11 active torsions:
REMARK  status: ('A' for Active; 'I' for Inactive)
REMARK    1  A    between atoms: C_1  and  C_2
REMARK    2  A    between atoms: N_5  and  C_11
REMARK    3  A    between atoms: C_7  and  C_10
REMARK    4  A    between atoms: C_11  and  C_12
REMARK    5  A    between atoms: C_12  and  N_13
REMARK    6  A    between atoms: C_14  and  C_16
REMARK    7  A    between atoms: C_18  and  C_25
REMARK    8  A    between atoms: N_19  and  C_21
REMARK    9  A    between atoms: C_21  and  C_22
REMARK   10  A    between atoms: C_21  and  C_23
REMARK   11  A    between atoms: C_21  and  C_24
REMARK                            x       y       z     vdW  Elec       q    Type
REMARK                         _______ _______ _______ _____ _____    ______ ____
ROOT
ATOM      1  N   UNL     1      -4.051  -4.627  -0.177  0.00  0.00    -0.309 N 
ATOM      2  C   UNL     1      -4.234  -5.954  -0.327  0.00  0.00    +0.264 C 
ATOM      3  O   UNL     1      -3.274  -6.692  -0.428  0.00  0.00    -0.268 OA
ATOM      4  H   UNL     1      -4.817  -4.038  -0.097  0.00  0.00    +0.149 HD
ENDROOT
BRANCH   2   5
ATOM      5  C   UNL     1      -5.602  -6.510  -0.370  0.00  0.00    +0.147 A 
ATOM      6  C   UNL     1      -5.952  -7.873  -0.517  0.00  0.00    +0.058 A 
ATOM      7  C   UNL     1      -7.305  -7.903  -0.501  0.00  0.00    +0.044 A 
ATOM      8  N   UNL     1      -7.731  -6.630  -0.354  0.00  0.00    -0.262 N 
ATOM      9  N   UNL     1      -6.728  -5.832  -0.274  0.00  0.00    -0.166 NA
BRANCH   8  10
ATOM     10  C   UNL     1      -9.136  -6.220  -0.289  0.00  0.00    +0.056 C 
ATOM     11  C   UNL     1      -9.813  -6.902   0.901  0.00  0.00    +0.036 C 
ATOM     12  C   UNL     1      -9.216  -4.701  -0.120  0.00  0.00    +0.036 C 
ATOM     13  C   UNL     1      -9.847  -6.626  -1.582  0.00  0.00    +0.036 C 
ENDBRANCH   8  10
BRANCH   7  14
ATOM     14  C   UNL     1      -8.174  -9.128  -0.625  0.00  0.00    +0.038 C 
ATOM     15  C   UNL     1      -7.648 -10.432  -0.021  0.00  0.00    +0.010 C 
ATOM     16  C   UNL     1      -7.683 -10.252  -1.540  0.00  0.00    +0.010 C 
ENDBRANCH   7  14
ENDBRANCH   2   5
BRANCH   1  17
ATOM     17  C   UNL     1      -2.695  -4.075  -0.135  0.00  0.00    +0.120 C 
BRANCH  17  18
ATOM     18  C   UNL     1      -2.768  -2.557   0.042  0.00  0.00    +0.103 C 
BRANCH  18  22
ATOM     19  C   UNL     1      -0.019   1.526   0.010  0.00  0.00    +0.039 C 
ATOM     20  C   UNL     1       0.002  -0.004   0.002  0.00  0.00    +0.130 C 
ATOM     21  C   UNL     1      -1.434  -0.535   0.015  0.00  0.00    +0.115 C 
ATOM     22  N   UNL     1      -1.407  -2.003   0.085  0.00  0.00    -0.296 NA
ATOM     23  C   UNL     1      -0.692  -2.455   1.287  0.00  0.00    +0.115 C 
ATOM     24  C   UNL     1       0.736  -1.905   1.261  0.00  0.00    +0.130 C 
ATOM     25  O   UNL     1       0.692  -0.479   1.161  0.00  0.00    -0.371 OA
ATOM     26  C   UNL     1       1.483  -2.478   0.055  0.00  0.00    +0.039 C 
ENDBRANCH  18  22
ENDBRANCH  17  18
ENDBRANCH   1  17
TORSDOF 6
