REMARK  Name = ZINC06306033
REMARK  10 active torsions:
REMARK  status: ('A' for Active; 'I' for Inactive)
REMARK    1  A    between atoms: C_1  and  C_2
REMARK    2  A    between atoms: C_2  and  C_3
REMARK    3  A    between atoms: C_2  and  C_4
REMARK    4  A    between atoms: C_2  and  C_5
REMARK    5  A    between atoms: C_7  and  C_16
REMARK    6  A    between atoms: C_9  and  C_12
REMARK    7  A    between atoms: C_10  and  O_11
REMARK    8  A    between atoms: C_12  and  C_13
REMARK    9  A    between atoms: C_12  and  C_14
REMARK   10  A    between atoms: C_12  and  C_15
REMARK                            x       y       z     vdW  Elec       q    Type
REMARK                         _______ _______ _______ _____ _____    ______ ____
ROOT
ATOM      1  C   UNL     1      -4.762  -0.690   0.332  0.00  0.00    +0.000 A 
ATOM      2  C   UNL     1      -3.490  -1.205   0.226  0.00  0.00    +0.015 A 
ATOM      3  C   UNL     1      -2.393  -0.339   0.120  0.00  0.00    -0.023 A 
ATOM      4  C   UNL     1      -2.598   1.046   0.128  0.00  0.00    +0.015 A 
ATOM      5  C   UNL     1      -3.875   1.550   0.229  0.00  0.00    +0.000 A 
ATOM      6  C   UNL     1      -4.959   0.687   0.335  0.00  0.00    +0.124 A 
ENDROOT
BRANCH   3   7
ATOM      7  C   UNL     1      -1.034  -0.883   0.007  0.00  0.00    +0.028 C 
ATOM      8  C   UNL     1       0.007  -0.055  -0.270  0.00  0.00    +0.082 A 
ATOM      9  C   UNL     1       1.450  -0.338  -0.279  0.00  0.00    +0.288 A 
ATOM     10  O   UNL     1       1.875  -1.447  -0.013  0.00  0.00    -0.265 OA
ATOM     11  N   UNL     1       2.280   0.666  -0.590  0.00  0.00    -0.170 N 
ATOM     12  C   UNL     1       1.754   1.892  -0.881  0.00  0.00    +0.199 A 
ATOM     13  S   UNL     1      -0.003   1.674  -0.722  0.00  0.00    -0.044 S 
ATOM     14  N   UNL     1       2.719   2.726  -1.155  0.00  0.00    -0.208 NA
ATOM     15  C   UNL     1       3.889   2.094  -1.058  0.00  0.00    +0.246 A 
ATOM     16  N   UNL     1       3.683   0.853  -0.720  0.00  0.00    -0.150 NA
ENDBRANCH   3   7
BRANCH   1  18
ATOM     17  C   UNL     1      -5.454  -3.069   0.421  0.00  0.00    +0.015 C 
ATOM     18  C   UNL     1      -5.942  -1.619   0.447  0.00  0.00    -0.009 C 
ATOM     19  C   UNL     1      -6.676  -1.352   1.763  0.00  0.00    +0.015 C 
ATOM     20  C   UNL     1      -6.895  -1.380  -0.726  0.00  0.00    +0.015 C 
ENDBRANCH   1  18
BRANCH   5  21
ATOM     21  C   UNL     1      -4.097   3.041   0.233  0.00  0.00    -0.009 C 
ATOM     22  C   UNL     1      -2.751   3.757   0.106  0.00  0.00    +0.015 C 
ATOM     23  C   UNL     1      -4.993   3.425  -0.946  0.00  0.00    +0.015 C 
ATOM     24  C   UNL     1      -4.773   3.452   1.542  0.00  0.00    +0.015 C 
ENDBRANCH   5  21
BRANCH   6  25
ATOM     25  O   UNL     1      -6.216   1.189   0.439  0.00  0.00    -0.506 OA
ATOM     26  H   UNL     1      -6.503   1.344   1.349  0.00  0.00    +0.292 HD
ENDBRANCH   6  25
TORSDOF 4
