REMARK  Name = ZINC15924292
REMARK  5 active torsions:
REMARK  status: ('A' for Active; 'I' for Inactive)
REMARK    1  A    between atoms: C_1  and  O_2
REMARK    2  A    between atoms: O_2  and  C_3
REMARK    3  A    between atoms: C_3  and  C_4
REMARK    4  A    between atoms: C_8  and  N_10
REMARK    5  A    between atoms: N_13  and  C_14
REMARK                            x       y       z     vdW  Elec       q    Type
REMARK                         _______ _______ _______ _____ _____    ______ ____
ROOT
ATOM      1  N   UNL     1      -1.793  -4.681   0.917  0.00  0.00    -0.179 NA
ATOM      2  C   UNL     1      -2.833  -3.942   1.262  0.00  0.00    +0.203 C 
ATOM      3  N   UNL     1      -2.673  -2.607   1.504  0.00  0.00    -0.369 N 
ATOM      4  N   UNL     1      -4.070  -4.514   1.378  0.00  0.00    -0.326 N 
ATOM      5  H   UNL     1      -2.077  -2.082   0.947  0.00  0.00    +0.159 HD
ATOM      6  H   UNL     1      -3.155  -2.185   2.231  0.00  0.00    +0.159 HD
ATOM      7  H   UNL     1      -4.839  -3.965   1.597  0.00  0.00    +0.169 HD
ENDROOT
BRANCH   1  12
ATOM      8  C   UNL     1       0.829  -2.381   1.468  0.00  0.00    +0.076 A 
ATOM      9  C   UNL     1       1.916  -3.065   1.002  0.00  0.00    +0.096 A 
ATOM     10  C   UNL     1       1.738  -4.358   0.483  0.00  0.00    +0.253 A 
ATOM     11  N   UNL     1       0.495  -4.885   0.461  0.00  0.00    -0.291 N 
ATOM     12  C   UNL     1      -0.559  -4.155   0.941  0.00  0.00    +0.234 A 
ATOM     13  N   UNL     1      -0.377  -2.938   1.433  0.00  0.00    -0.215 NA
ATOM     14  O   UNL     1       2.689  -4.994   0.060  0.00  0.00    -0.268 OA
ATOM     15  H   UNL     1       0.349  -5.776   0.107  0.00  0.00    +0.172 HD
BRANCH   8  16
ATOM     16  C   UNL     1       0.999  -0.993   2.029  0.00  0.00    +0.215 C 
BRANCH  16  18
ATOM     17  C   UNL     1       0.407   1.298   1.647  0.00  0.00    +0.194 C 
ATOM     18  O   UNL     1       0.308  -0.056   1.200  0.00  0.00    -0.377 OA
ENDBRANCH  16  18
ENDBRANCH   8  16
ENDBRANCH   1  12
BRANCH   4  19
ATOM     19  C   UNL     1      -4.225  -5.891   1.182  0.00  0.00    +0.043 A 
ATOM     20  C   UNL     1      -3.238  -6.770   1.608  0.00  0.00    +0.027 A 
ATOM     21  C   UNL     1      -3.393  -8.128   1.414  0.00  0.00    +0.023 A 
ATOM     22  C   UNL     1      -4.531  -8.614   0.795  0.00  0.00    +0.059 A 
ATOM     23  C   UNL     1      -5.517  -7.740   0.368  0.00  0.00    +0.061 A 
ATOM     24  C   UNL     1      -5.369  -6.380   0.565  0.00  0.00    +0.047 A 
ATOM     25 CL   UNL     1      -6.943  -8.354  -0.410  0.00  0.00    -0.082 Cl
ATOM     26 CL   UNL     1      -4.723 -10.323   0.552  0.00  0.00    -0.082 Cl
ENDBRANCH   4  19
TORSDOF 4
