REMARK  Name = ZINC64076448
REMARK  6 active torsions:
REMARK  status: ('A' for Active; 'I' for Inactive)
REMARK    1  A    between atoms: C_1  and  C_2
REMARK    2  A    between atoms: C_4  and  C_16
REMARK    3  A    between atoms: N_18  and  C_19
REMARK    4  A    between atoms: C_19  and  C_20
REMARK    5  A    between atoms: C_20  and  C_21
REMARK    6  A    between atoms: C_21  and  N_22
REMARK                            x       y       z     vdW  Elec       q    Type
REMARK                         _______ _______ _______ _____ _____    ______ ____
ROOT
ATOM      1  C   UNL     1       0.460  -0.296  -2.556  0.00  0.00    +0.243 C 
ATOM      2  O   UNL     1       1.168  -0.768  -3.428  0.00  0.00    -0.270 OA
ATOM      3  N   UNL     1      -0.622   0.434  -2.889  0.00  0.00    -0.311 N 
ATOM      4  H   UNL     1      -1.186   0.809  -2.194  0.00  0.00    +0.149 HD
ENDROOT
BRANCH   1   7
ATOM      5  C   UNL     1      -0.019   1.526   0.010  0.00  0.00    +0.035 C 
ATOM      6  C   UNL     1       0.002  -0.004   0.002  0.00  0.00    +0.129 C 
ATOM      7  C   UNL     1       0.774  -0.516  -1.195  0.00  0.00    +0.051 C 
ATOM      8  H   UNL     1       2.498  -1.693   1.179  0.00  0.00    +0.170 HD
ATOM      9  C   UNL     1       1.816  -1.222  -0.716  0.00  0.00    +0.098 C 
ATOM     10  N   UNL     1       1.830  -1.239   0.642  0.00  0.00    -0.269 N 
ATOM     11  N   UNL     1       0.747  -0.515   1.165  0.00  0.00    -0.228 N 
ATOM     12  C   UNL     1       0.439  -0.318   2.509  0.00  0.00    +0.161 A 
ATOM     13  C   UNL     1       1.252  -0.867   3.501  0.00  0.00    +0.052 A 
ATOM     14  C   UNL     1       0.905  -0.643   4.822  0.00  0.00    +0.077 A 
ATOM     15  C   UNL     1      -0.235   0.116   5.079  0.00  0.00    +0.289 A 
ATOM     16  O   UNL     1      -0.614   0.362   6.359  0.00  0.00    -0.264 OA
ATOM     17  N   UNL     1      -0.946   0.597   4.074  0.00  0.00    -0.105 NA
ATOM     18  N   UNL     1      -0.623   0.395   2.849  0.00  0.00    -0.129 NA
ENDBRANCH   1   7
BRANCH   3  19
ATOM     19  C   UNL     1      -0.948   0.662  -4.299  0.00  0.00    +0.106 C 
BRANCH  19  20
ATOM     20  C   UNL     1      -2.214   1.515  -4.399  0.00  0.00    +0.038 C 
BRANCH  20  21
ATOM     21  C   UNL     1      -2.553   1.753  -5.872  0.00  0.00    +0.112 C 
BRANCH  21  22
ATOM     22  N   UNL     1      -3.766   2.570  -5.968  0.00  0.00    -0.298 N 
ATOM     23  C   UNL     1      -5.011   1.934  -6.013  0.00  0.00    +0.048 A 
ATOM     24  C   UNL     1      -5.166   0.746  -6.710  0.00  0.00    +0.024 A 
ATOM     25  C   UNL     1      -6.402   0.125  -6.752  0.00  0.00    +0.002 A 
ATOM     26  C   UNL     1      -7.487   0.680  -6.102  0.00  0.00    +0.001 A 
ATOM     27  C   UNL     1      -7.344   1.867  -5.402  0.00  0.00    +0.017 A 
ATOM     28  C   UNL     1      -6.112   2.491  -5.357  0.00  0.00    +0.034 A 
ATOM     29  S   UNL     1      -5.898   4.005  -4.473  0.00  0.00    -0.086 S 
ATOM     30  C   UNL     1      -4.575   4.773  -5.356  0.00  0.00    +0.034 A 
ATOM     31  C   UNL     1      -3.645   3.963  -6.006  0.00  0.00    +0.048 A 
ATOM     32  C   UNL     1      -2.600   4.556  -6.697  0.00  0.00    +0.024 A 
ATOM     33  C   UNL     1      -2.489   5.935  -6.732  0.00  0.00    +0.002 A 
ATOM     34  C   UNL     1      -3.414   6.729  -6.082  0.00  0.00    +0.001 A 
ATOM     35  C   UNL     1      -4.459   6.149  -5.399  0.00  0.00    +0.017 A 
ENDBRANCH  21  22
ENDBRANCH  20  21
ENDBRANCH  19  20
ENDBRANCH   3  19
TORSDOF 5
