REMARK  Name = ZINC48786696
REMARK  4 active torsions:
REMARK  status: ('A' for Active; 'I' for Inactive)
REMARK    1  A    between atoms: C_3  and  C_8
REMARK    2  A    between atoms: C_8  and  O_9
REMARK    3  A    between atoms: O_9  and  C_10
REMARK    4  A    between atoms: C_13  and  C_17
REMARK                            x       y       z     vdW  Elec       q    Type
REMARK                         _______ _______ _______ _____ _____    ______ ____
ROOT
ATOM      1  C   UNL     1       5.252   3.109   1.492  0.00  0.00    +0.139 A 
ATOM      2  C   UNL     1       5.964   3.552   0.384  0.00  0.00    +0.048 A 
ATOM      3  C   UNL     1       7.138   4.251   0.553  0.00  0.00    +0.015 A 
ATOM      4  C   UNL     1       7.615   4.514   1.839  0.00  0.00    +0.014 A 
ATOM      5  C   UNL     1       6.897   4.068   2.951  0.00  0.00    +0.035 A 
ATOM      6  C   UNL     1       5.720   3.373   2.775  0.00  0.00    +0.083 A 
ATOM      7 CL   UNL     1       4.823   2.822   4.155  0.00  0.00    -0.080 Cl
ENDROOT
BRANCH   4   8
ATOM      8  C   UNL     1       8.875   5.263   2.023  0.00  0.00    +0.094 C 
ATOM      9  N   UNL     1       9.328   5.514   3.251  0.00  0.00    -0.387 N 
ATOM     10  N   UNL     1       9.559   5.689   0.962  0.00  0.00    -0.345 N 
ATOM     11  H   UNL     1      10.155   6.005   3.372  0.00  0.00    +0.157 HD
ATOM     12  H   UNL     1       9.229   5.506   0.068  0.00  0.00    +0.144 HD
ATOM     13  H   UNL     1      10.386   6.180   1.082  0.00  0.00    +0.144 HD
ATOM     14  H   UNL     1       8.830   5.204   4.024  0.00  0.00    +0.157 HD
ENDBRANCH   4   8
BRANCH   1  15
ATOM     15  O   UNL     1       4.094   2.420   1.322  0.00  0.00    -0.486 OA
BRANCH  15  16
ATOM     16  C   UNL     1       3.672   2.183  -0.022  0.00  0.00    +0.264 C 
BRANCH  16  19
ATOM     17  C   UNL     1      -0.017   1.378   0.010  0.00  0.00    +0.001 A 
ATOM     18  C   UNL     1       1.171   2.086   0.002  0.00  0.00    +0.007 A 
ATOM     19  C   UNL     1       2.378   1.411  -0.013  0.00  0.00    -0.009 A 
ATOM     20  C   UNL     1       2.397   0.029  -0.022  0.00  0.00    +0.022 A 
ATOM     21  C   UNL     1       1.210  -0.679  -0.014  0.00  0.00    +0.018 A 
ATOM     22  C   UNL     1       0.002  -0.004   0.002  0.00  0.00    +0.015 A 
ATOM     23 BR   UNL     1       1.236  -2.570  -0.025  0.00  0.00    -0.050 Br
ENDBRANCH  16  19
ENDBRANCH  15  16
ENDBRANCH   1  15
TORSDOF 4
