REMARK  Name = ZINC41301868
REMARK  11 active torsions:
REMARK  status: ('A' for Active; 'I' for Inactive)
REMARK    1  A    between atoms: C_1  and  C_2
REMARK    2  A    between atoms: C_2  and  N_3
REMARK    3  A    between atoms: N_3  and  C_4
REMARK    4  A    between atoms: N_3  and  C_6
REMARK    5  A    between atoms: C_4  and  C_5
REMARK    6  A    between atoms: C_6  and  C_7
REMARK    7  A    between atoms: C_7  and  N_8
REMARK    8  A    between atoms: C_12  and  N_27
REMARK    9  A    between atoms: C_13  and  N_15
REMARK   10  A    between atoms: N_15  and  C_16
REMARK   11  A    between atoms: C_17  and  C_24
REMARK                            x       y       z     vdW  Elec       q    Type
REMARK                         _______ _______ _______ _____ _____    ______ ____
ROOT
ATOM      1  N   UNL     1      -2.893  -4.092   0.191  0.00  0.00    -0.315 N 
ATOM      2  C   UNL     1      -4.077  -4.804   0.112  0.00  0.00    +0.219 A 
ATOM      3  N   UNL     1      -5.206  -4.154  -0.126  0.00  0.00    -0.198 NA
ATOM      4  C   UNL     1      -6.363  -4.805  -0.209  0.00  0.00    +0.154 A 
ATOM      5  C   UNL     1      -6.376  -6.187  -0.041  0.00  0.00    +0.205 A 
ATOM      6  C   UNL     1      -5.170  -6.835   0.208  0.00  0.00    +0.161 A 
ATOM      7  N   UNL     1      -4.050  -6.118   0.272  0.00  0.00    -0.197 NA
ATOM      8  N   UNL     1      -7.540  -4.117  -0.458  0.00  0.00    -0.341 N 
ATOM      9  H   UNL     1      -2.058  -4.556   0.361  0.00  0.00    +0.149 HD
ATOM     10  H   UNL     1      -7.524  -3.154  -0.574  0.00  0.00    +0.144 HD
ATOM     11  H   UNL     1      -8.380  -4.599  -0.517  0.00  0.00    +0.144 HD
ENDROOT
BRANCH   5  12
ATOM     12  N   UNL     1      -7.642  -6.949  -0.125  0.00  0.00    +0.063 N 
ATOM     13  O   UNL     1      -8.015  -7.387  -1.189  0.00  0.00    -0.126 OA
ATOM     14  O   UNL     1      -8.304  -7.134   0.870  0.00  0.00    -0.126 OA
ENDBRANCH   5  12
BRANCH   6  15
ATOM     15  N   UNL     1      -5.134  -8.212   0.382  0.00  0.00    -0.291 N 
ATOM     16  H   UNL     1      -5.954  -8.729   0.331  0.00  0.00    +0.154 HD
BRANCH  15  17
ATOM     17  C   UNL     1      -3.930  -8.847   0.629  0.00  0.00    +0.084 A 
ATOM     18  C   UNL     1      -3.704 -10.198   0.821  0.00  0.00    +0.068 A 
ATOM     19  C   UNL     1      -2.325 -10.618   1.068  0.00  0.00    -0.023 A 
ATOM     20  C   UNL     1      -1.438  -9.608   1.077  0.00  0.00    -0.004 A 
ATOM     21  S   UNL     1      -2.407  -8.156   0.757  0.00  0.00    -0.077 S 
ATOM     22  C   UNL     1      -0.038 -10.094   1.338  0.00  0.00    +0.043 C 
ATOM     23  C   UNL     1      -0.220 -11.513   1.922  0.00  0.00    +0.010 C 
ATOM     24  C   UNL     1      -1.580 -11.927   1.325  0.00  0.00    +0.037 C 
BRANCH  18  25
ATOM     25  C   UNL     1      -4.801 -11.168   0.780  0.00  0.00    +0.244 C 
ATOM     26  O   UNL     1      -5.109 -11.694  -0.274  0.00  0.00    -0.270 OA
ATOM     27  N   UNL     1      -5.470 -11.478   1.908  0.00  0.00    -0.325 N 
ATOM     28  H   UNL     1      -5.225 -11.059   2.748  0.00  0.00    +0.145 HD
ATOM     29  H   UNL     1      -6.196 -12.121   1.881  0.00  0.00    +0.145 HD
ENDBRANCH  18  25
ENDBRANCH  15  17
ENDBRANCH   6  15
BRANCH   1  30
ATOM     30  C   UNL     1      -2.900  -2.637   0.017  0.00  0.00    +0.086 C 
BRANCH  30  31
ATOM     31  C   UNL     1      -1.473  -2.100   0.150  0.00  0.00    -0.060 C 
BRANCH  31  32
ATOM     32  N   UNL     1      -1.462  -0.661  -0.144  0.00  0.00    +0.380 N 
ATOM     33  H   UNL     1      -1.871  -0.500  -1.053  0.00  0.00    -0.082 HD
BRANCH  32  35
ATOM     34  C   UNL     1      -2.333   1.534   0.503  0.00  0.00    -0.017 C 
ATOM     35  C   UNL     1      -2.240   0.053   0.876  0.00  0.00    -0.082 C 
ENDBRANCH  32  35
BRANCH  32  36
ATOM     36  C   UNL     1      -0.077  -0.171  -0.137  0.00  0.00    -0.082 C 
ATOM     37  C   UNL     1       0.692  -0.798  -1.301  0.00  0.00    -0.017 C 
ENDBRANCH  32  36
ENDBRANCH  31  32
ENDBRANCH  30  31
ENDBRANCH   1  30
TORSDOF 9
