REMARK  Name = ZINC65474285
REMARK  10 active torsions:
REMARK  status: ('A' for Active; 'I' for Inactive)
REMARK    1  A    between atoms: C_1  and  C_2
REMARK    2  A    between atoms: C_2  and  C_4
REMARK    3  A    between atoms: C_2  and  N_7
REMARK    4  A    between atoms: C_4  and  C_5
REMARK    5  A    between atoms: C_4  and  C_6
REMARK    6  A    between atoms: C_8  and  C_10
REMARK    7  A    between atoms: C_10  and  N_11
REMARK    8  A    between atoms: C_12  and  C_14
REMARK    9  A    between atoms: C_15  and  N_21
REMARK   10  A    between atoms: N_16  and  C_20
REMARK                            x       y       z     vdW  Elec       q    Type
REMARK                         _______ _______ _______ _____ _____    ______ ____
ROOT
ATOM      1  N   UNL     1      -3.978  -1.213  -2.505  0.00  0.00    -0.303 N 
ATOM      2  C   UNL     1      -5.231  -1.650  -2.741  0.00  0.00    +0.250 C 
ATOM      3  O   UNL     1      -5.936  -2.005  -1.815  0.00  0.00    -0.270 OA
ATOM      4  H   UNL     1      -3.416  -0.931  -3.244  0.00  0.00    +0.150 HD
ENDROOT
BRANCH   2   5
ATOM      5  C   UNL     1      -5.744  -1.699  -4.115  0.00  0.00    +0.110 A 
ATOM      6  C   UNL     1      -5.654  -2.774  -4.996  0.00  0.00    +0.127 A 
ATOM      7  N   UNL     1      -6.252  -2.398  -6.144  0.00  0.00    -0.252 N 
ATOM      8  N   UNL     1      -6.720  -1.088  -5.993  0.00  0.00    -0.162 NA
ATOM      9  C   UNL     1      -6.431  -0.664  -4.795  0.00  0.00    +0.142 A 
ATOM     10 BR   UNL     1      -6.851   1.038  -4.088  0.00  0.00    -0.026 Br
ATOM     11  C   UNL     1      -6.389  -3.221  -7.348  0.00  0.00    +0.174 C 
BRANCH   6  12
ATOM     12  N   UNL     1      -5.064  -3.995  -4.741  0.00  0.00    -0.343 N 
ATOM     13  H   UNL     1      -4.658  -4.167  -3.877  0.00  0.00    +0.144 HD
ATOM     14  H   UNL     1      -5.054  -4.682  -5.427  0.00  0.00    +0.144 HD
ENDBRANCH   6  12
ENDBRANCH   2   5
BRANCH   1  15
ATOM     15  C   UNL     1      -3.465  -1.164  -1.134  0.00  0.00    +0.200 C 
BRANCH  15  17
ATOM     16  N   UNL     1      -1.372  -0.511   0.012  0.00  0.00    -0.311 N 
ATOM     17  C   UNL     1      -2.051  -0.643  -1.145  0.00  0.00    +0.230 C 
ATOM     18  O   UNL     1      -1.524  -0.341  -2.194  0.00  0.00    -0.274 OA
ATOM     19  H   UNL     1      -1.794  -0.752   0.852  0.00  0.00    +0.149 HD
BRANCH  16  21
ATOM     20  C   UNL     1      -0.019   1.526   0.010  0.00  0.00    +0.028 C 
ATOM     21  C   UNL     1       0.002  -0.004   0.002  0.00  0.00    +0.072 C 
BRANCH  21  22
ATOM     22  C   UNL     1       0.742  -0.511   1.242  0.00  0.00    +0.003 C 
ATOM     23  C   UNL     1       0.763  -2.041   1.233  0.00  0.00    +0.009 C 
ATOM     24  C   UNL     1       2.178   0.019   1.231  0.00  0.00    +0.009 C 
ENDBRANCH  21  22
ENDBRANCH  16  21
ENDBRANCH  15  17
ENDBRANCH   1  15
TORSDOF 6
