REMARK  Name = ZINC61904222
REMARK  4 active torsions:
REMARK  status: ('A' for Active; 'I' for Inactive)
REMARK    1  A    between atoms: C_14  and  C_17
REMARK    2  A    between atoms: C_17  and  N_18
REMARK    3  A    between atoms: N_21  and  N_22
REMARK    4  A    between atoms: C_23  and  C_25
REMARK                            x       y       z     vdW  Elec       q    Type
REMARK                         _______ _______ _______ _____ _____    ______ ____
ROOT
ATOM      1  C   UNL     1      -0.062   1.328   0.017  0.00  0.00    +0.000 A 
ATOM      2  C   UNL     1       1.118   2.048   0.032  0.00  0.00    +0.000 A 
ATOM      3  C   UNL     1       2.326   1.382   0.015  0.00  0.00    +0.005 A 
ATOM      4  C   UNL     1       2.365  -0.006  -0.013  0.00  0.00    -0.027 A 
ATOM      5  C   UNL     1       1.191  -0.724  -0.018  0.00  0.00    -0.041 A 
ATOM      6  C   UNL     1      -0.024  -0.050  -0.008  0.00  0.00    +0.004 A 
ATOM      7  C   UNL     1       1.155  -2.230  -0.017  0.00  0.00    +0.054 C 
ATOM      8  C   UNL     1       2.482  -2.807  -0.506  0.00  0.00    +0.111 C 
ATOM      9  N   UNL     1       3.568  -2.109   0.202  0.00  0.00    -0.312 N 
ATOM     10  C   UNL     1       3.719  -0.671  -0.045  0.00  0.00    +0.141 C 
ATOM     11  C   UNL     1       4.417  -2.785   1.071  0.00  0.00    +0.099 A 
ATOM     12  C   UNL     1       4.168  -4.120   1.377  0.00  0.00    +0.042 A 
ATOM     13  C   UNL     1       5.021  -4.781   2.243  0.00  0.00    +0.010 A 
ATOM     14  C   UNL     1       6.097  -4.083   2.775  0.00  0.00    -0.014 A 
ATOM     15  C   UNL     1       6.284  -2.760   2.427  0.00  0.00    +0.089 A 
ATOM     16  N   UNL     1       5.457  -2.156   1.595  0.00  0.00    -0.349 N 
ATOM     17  H   UNL     1       5.613  -1.227   1.364  0.00  0.00    +0.167 HD
ENDROOT
BRANCH  14  18
ATOM     18  C   UNL     1       7.051  -4.763   3.723  0.00  0.00    +0.142 C 
BRANCH  18  19
ATOM     19  N   UNL     1       8.143  -5.375   2.961  0.00  0.00    -0.294 N 
ATOM     20  C   UNL     1       9.121  -6.042   3.603  0.00  0.00    +0.316 C 
ATOM     21  O   UNL     1       9.098  -6.137   4.815  0.00  0.00    -0.251 OA
ATOM     22  N   UNL     1      10.126  -6.605   2.903  0.00  0.00    -0.218 N 
ATOM     23  H   UNL     1       8.161  -5.299   1.994  0.00  0.00    +0.151 HD
ATOM     24  H   UNL     1      10.830  -7.086   3.365  0.00  0.00    +0.174 HD
BRANCH  22  25
ATOM     25  N   UNL     1      10.152  -6.497   1.506  0.00  0.00    -0.229 N 
ATOM     26  C   UNL     1      11.156  -7.060   0.805  0.00  0.00    +0.263 C 
ATOM     27  O   UNL     1      12.039  -7.662   1.385  0.00  0.00    -0.269 OA
ATOM     28  H   UNL     1       9.448  -6.016   1.044  0.00  0.00    +0.173 HD
BRANCH  26  29
ATOM     29  C   UNL     1      11.184  -6.945  -0.664  0.00  0.00    +0.076 A 
ATOM     30  C   UNL     1      12.193  -7.499  -1.579  0.00  0.00    +0.054 A 
ATOM     31  C   UNL     1      11.805  -7.143  -2.814  0.00  0.00    +0.195 A 
ATOM     32  O   UNL     1      10.669  -6.434  -2.730  0.00  0.00    -0.470 OA
ATOM     33  C   UNL     1      10.277  -6.309  -1.459  0.00  0.00    +0.208 A 
ENDBRANCH  26  29
ENDBRANCH  22  25
ENDBRANCH  18  19
ENDBRANCH  14  18
TORSDOF 4
