REMARK  Name = ZINC28115492
REMARK  7 active torsions:
REMARK  status: ('A' for Active; 'I' for Inactive)
REMARK    1  A    between atoms: C_1  and  C_2
REMARK    2  A    between atoms: C_3  and  C_27
REMARK    3  A    between atoms: C_9  and  O_13
REMARK    4  A    between atoms: O_13  and  C_14
REMARK    5  A    between atoms: C_16  and  O_26
REMARK    6  A    between atoms: C_18  and  O_25
REMARK    7  A    between atoms: C_20  and  O_24
REMARK                            x       y       z     vdW  Elec       q    Type
REMARK                         _______ _______ _______ _____ _____    ______ ____
ROOT
ATOM      1  C   UNL     1       0.876   7.435  -0.342  0.00  0.00    +0.087 C 
ATOM      2  C   UNL     1       1.011   5.946  -0.154  0.00  0.00    +0.115 A 
ATOM      3  C   UNL     1       2.252   5.418   0.011  0.00  0.00    +0.085 A 
ATOM      4  C   UNL     1       2.383   3.962   0.195  0.00  0.00    +0.202 A 
ATOM      5  O   UNL     1       3.470   3.432   0.346  0.00  0.00    -0.286 OA
ATOM      6  C   UNL     1       1.135   3.177   0.186  0.00  0.00    +0.065 A 
ATOM      7  C   UNL     1       1.150   1.792   0.354  0.00  0.00    +0.019 A 
ATOM      8  C   UNL     1      -0.025   1.095   0.342  0.00  0.00    +0.047 A 
ATOM      9  C   UNL     1      -1.235   1.760   0.158  0.00  0.00    +0.128 A 
ATOM     10  C   UNL     1      -1.266   3.135  -0.005  0.00  0.00    +0.092 A 
ATOM     11  C   UNL     1      -0.081   3.859   0.005  0.00  0.00    +0.142 A 
ATOM     12  O   UNL     1      -0.094   5.197  -0.155  0.00  0.00    -0.459 OA
ENDROOT
BRANCH   3  13
ATOM     13  C   UNL     1       3.450   6.289   0.005  0.00  0.00    +0.078 A 
ATOM     14  C   UNL     1       4.548   5.950  -0.785  0.00  0.00    +0.028 A 
ATOM     15  C   UNL     1       5.660   6.774  -0.779  0.00  0.00    +0.004 A 
ATOM     16  C   UNL     1       5.638   7.911   0.017  0.00  0.00    +0.020 A 
ATOM     17  C   UNL     1       4.517   8.187   0.776  0.00  0.00    +0.111 A 
ATOM     18  N   UNL     1       3.468   7.388   0.748  0.00  0.00    -0.255 NA
ENDBRANCH   3  13
BRANCH   9  19
ATOM     19  O   UNL     1      -2.395   1.055   0.142  0.00  0.00    -0.461 OA
BRANCH  19  20
ATOM     20  C   UNL     1      -2.296  -0.359   0.320  0.00  0.00    +0.339 C 
ATOM     21  C   UNL     1      -3.701  -0.964   0.398  0.00  0.00    +0.214 C 
ATOM     22  C   UNL     1      -3.587  -2.486   0.527  0.00  0.00    +0.180 C 
ATOM     23  C   UNL     1      -2.785  -3.030  -0.659  0.00  0.00    +0.171 C 
ATOM     24  C   UNL     1      -1.416  -2.346  -0.696  0.00  0.00    +0.198 C 
ATOM     25  O   UNL     1      -1.594  -0.931  -0.786  0.00  0.00    -0.337 OA
BRANCH  23  26
ATOM     26  O   UNL     1      -2.611  -4.440  -0.510  0.00  0.00    -0.387 OA
ATOM     27  H   UNL     1      -2.056  -5.009  -1.271  0.00  0.00    +0.210 HD
ENDBRANCH  23  26
BRANCH  22  28
ATOM     28  O   UNL     1      -2.918  -2.812   1.747  0.00  0.00    -0.386 OA
ATOM     29  H   UNL     1      -2.744  -3.865   2.014  0.00  0.00    +0.210 HD
ENDBRANCH  22  28
BRANCH  21  30
ATOM     30  O   UNL     1      -4.427  -0.638  -0.790  0.00  0.00    -0.383 OA
ATOM     31  H   UNL     1      -5.462  -0.989  -0.915  0.00  0.00    +0.210 HD
ENDBRANCH  21  30
ENDBRANCH  19  20
ENDBRANCH   9  19
TORSDOF 6
