REMARK  Name = ZINC07688351
REMARK  6 active torsions:
REMARK  status: ('A' for Active; 'I' for Inactive)
REMARK    1  A    between atoms: C_1  and  N_2
REMARK    2  A    between atoms: N_2  and  C_3
REMARK    3  A    between atoms: C_4  and  N_19
REMARK    4  A    between atoms: N_5  and  C_12
REMARK    5  A    between atoms: C_12  and  C_13
REMARK    6  A    between atoms: C_20  and  C_22
REMARK                            x       y       z     vdW  Elec       q    Type
REMARK                         _______ _______ _______ _____ _____    ______ ____
ROOT
ATOM      1  C   UNL     1       1.399   2.209   0.149  0.00  0.00    +0.140 A 
ATOM      2  C   UNL     1       2.670   1.708   0.346  0.00  0.00    +0.128 A 
ATOM      3  N   UNL     1       2.853   0.347   0.408  0.00  0.00    -0.276 N 
ATOM      4  C   UNL     1       1.806  -0.488   0.277  0.00  0.00    +0.331 A 
ATOM      5  O   UNL     1       1.990  -1.689   0.334  0.00  0.00    -0.246 OA
ATOM      6  N   UNL     1       0.561  -0.019   0.084  0.00  0.00    -0.273 N 
ATOM      7  H   UNL     1      -0.200  -0.661  -0.011  0.00  0.00    +0.173 HD
ATOM      8  C   UNL     1       0.327   1.306   0.016  0.00  0.00    +0.277 A 
ATOM      9  O   UNL     1      -0.806   1.721  -0.165  0.00  0.00    -0.266 OA
ENDROOT
BRANCH   1  11
ATOM     10  C   UNL     1       1.728   4.375  -1.033  0.00  0.00    +0.139 C 
ATOM     11  N   UNL     1       1.178   3.600   0.081  0.00  0.00    -0.261 N 
ATOM     12  C   UNL     1       0.461   4.216   1.042  0.00  0.00    +0.286 C 
ATOM     13  O   UNL     1       0.086   3.591   2.017  0.00  0.00    -0.266 OA
BRANCH  12  14
ATOM     14  C   UNL     1       0.132   5.642   0.912  0.00  0.00    +0.191 A 
ATOM     15  C   UNL     1      -0.473   6.395   1.867  0.00  0.00    +0.063 A 
ATOM     16  C   UNL     1      -0.598   7.739   1.305  0.00  0.00    +0.021 A 
ATOM     17  C   UNL     1      -1.120   8.947   1.775  0.00  0.00    +0.011 A 
ATOM     18  C   UNL     1      -1.083  10.056   0.979  0.00  0.00    +0.001 A 
ATOM     19  C   UNL     1      -0.529   9.991  -0.293  0.00  0.00    +0.004 A 
ATOM     20  C   UNL     1      -0.009   8.810  -0.775  0.00  0.00    +0.047 A 
ATOM     21  C   UNL     1      -0.036   7.667   0.017  0.00  0.00    +0.136 A 
ATOM     22  O   UNL     1       0.390   6.403  -0.172  0.00  0.00    -0.450 OA
ENDBRANCH  12  14
ENDBRANCH   1  11
BRANCH   2  23
ATOM     23  N   UNL     1       3.739   2.561   0.481  0.00  0.00    -0.343 N 
ATOM     24  H   UNL     1       4.618   2.208   0.690  0.00  0.00    +0.144 HD
ATOM     25  H   UNL     1       3.616   3.516   0.365  0.00  0.00    +0.144 HD
ENDBRANCH   2  23
BRANCH   3  26
ATOM     26  C   UNL     1       4.197  -0.198   0.618  0.00  0.00    +0.163 C 
BRANCH  26  27
ATOM     27  C   UNL     1       4.862  -0.421  -0.716  0.00  0.00    -0.028 A 
ATOM     28  C   UNL     1       4.728  -1.636  -1.361  0.00  0.00    +0.005 A 
ATOM     29  C   UNL     1       5.334  -1.838  -2.587  0.00  0.00    +0.000 A 
ATOM     30  C   UNL     1       6.084  -0.829  -3.162  0.00  0.00    +0.000 A 
ATOM     31  C   UNL     1       6.223   0.384  -2.514  0.00  0.00    +0.000 A 
ATOM     32  C   UNL     1       5.612   0.588  -1.291  0.00  0.00    +0.005 A 
ENDBRANCH  26  27
ENDBRANCH   3  26
TORSDOF 5
