REMARK  Name = ZINC20390606
REMARK  4 active torsions:
REMARK  status: ('A' for Active; 'I' for Inactive)
REMARK    1  A    between atoms: C_1  and  C_2
REMARK    2  A    between atoms: C_5  and  C_7
REMARK    3  A    between atoms: C_10  and  C_13
REMARK    4  A    between atoms: C_18  and  O_19
REMARK                            x       y       z     vdW  Elec       q    Type
REMARK                         _______ _______ _______ _____ _____    ______ ____
ROOT
ATOM      1  C   UNL     1      -3.638   2.603   3.116  0.00  0.00    +0.103 C 
ATOM      2  N   UNL     1      -3.889   3.000   4.318  0.00  0.00    -0.187 NA
ATOM      3  N   UNL     1      -5.232   3.291   4.551  0.00  0.00    -0.261 N 
ATOM      4  C   UNL     1      -5.995   3.042   3.318  0.00  0.00    +0.129 C 
ATOM      5  C   UNL     1      -4.922   2.568   2.318  0.00  0.00    +0.089 C 
ATOM      6  H   UNL     1      -5.603   3.604   5.391  0.00  0.00    +0.169 HD
ENDROOT
BRANCH   4   7
ATOM      7  C   UNL     1      -7.024   1.964   3.541  0.00  0.00    +0.017 A 
ATOM      8  C   UNL     1      -6.954   1.161   4.663  0.00  0.00    +0.024 A 
ATOM      9  C   UNL     1      -7.902   0.175   4.870  0.00  0.00    +0.018 A 
ATOM     10  C   UNL     1      -8.916  -0.016   3.949  0.00  0.00    +0.019 A 
ATOM     11  C   UNL     1      -8.988   0.781   2.824  0.00  0.00    +0.047 A 
ATOM     12  C   UNL     1      -8.041   1.774   2.616  0.00  0.00    +0.122 A 
ATOM     13 BR   UNL     1      -7.806  -0.917   6.411  0.00  0.00    -0.050 Br
BRANCH  12  14
ATOM     14  O   UNL     1      -8.109   2.559   1.509  0.00  0.00    -0.506 OA
ATOM     15  H   UNL     1      -8.916   2.408   0.776  0.00  0.00    +0.292 HD
ENDBRANCH  12  14
ENDBRANCH   4   7
BRANCH   1  20
ATOM     16  C   UNL     1      -0.013   1.086   0.008  0.00  0.00    +0.086 C 
ATOM     17  C   UNL     1      -0.718   1.572   1.248  0.00  0.00    +0.103 A 
ATOM     18  C   UNL     1      -0.132   1.835   2.433  0.00  0.00    +0.045 A 
ATOM     19  C   UNL     1      -1.146   2.262   3.311  0.00  0.00    +0.051 A 
ATOM     20  C   UNL     1      -2.313   2.236   2.604  0.00  0.00    +0.151 A 
ATOM     21  O   UNL     1      -2.034   1.820   1.353  0.00  0.00    -0.459 OA
ENDBRANCH   1  20
TORSDOF 3
