REMARK  Name = ZINC25991715
REMARK  7 active torsions:
REMARK  status: ('A' for Active; 'I' for Inactive)
REMARK    1  A    between atoms: C_1  and  C_2
REMARK    2  A    between atoms: C_2  and  C_3
REMARK    3  A    between atoms: C_2  and  C_4
REMARK    4  A    between atoms: C_2  and  C_5
REMARK    5  A    between atoms: N_7  and  C_8
REMARK    6  A    between atoms: C_8  and  C_9
REMARK    7  A    between atoms: N_11  and  N_12
REMARK                            x       y       z     vdW  Elec       q    Type
REMARK                         _______ _______ _______ _____ _____    ______ ____
ROOT
ATOM      1  C   UNL     1      -0.014   1.209   0.009  0.00  0.00    +0.247 C 
ATOM      2  O   UNL     1       0.002  -0.004   0.002  0.00  0.00    -0.273 OA
ATOM      3  N   UNL     1      -1.191   1.867   0.018  0.00  0.00    -0.222 N 
ATOM      4  H   UNL     1      -1.206   2.966   0.024  0.00  0.00    +0.174 HD
ENDROOT
BRANCH   3   5
ATOM      5  N   UNL     1      -2.394   1.150   0.020  0.00  0.00    -0.137 N 
ATOM      6  C   UNL     1      -3.188   1.004   1.101  0.00  0.00    +0.263 C 
ATOM      7  O   UNL     1      -3.004   1.451   2.212  0.00  0.00    -0.271 OA
ATOM      8  C   UNL     1      -4.356   0.166   0.633  0.00  0.00    +0.114 C 
ATOM      9  C   UNL     1      -5.660   0.943   0.780  0.00  0.00    +0.035 C 
ATOM     10  C   UNL     1      -6.826   0.089   0.276  0.00  0.00    +0.003 C 
ATOM     11  C   UNL     1      -6.893  -1.209   1.084  0.00  0.00    +0.000 C 
ATOM     12  C   UNL     1      -5.588  -1.988   0.906  0.00  0.00    +0.003 C 
ATOM     13  C   UNL     1      -4.417  -1.143   1.413  0.00  0.00    +0.035 C 
ATOM     14  N   UNL     1      -4.067  -0.091  -0.783  0.00  0.00    -0.284 N 
ATOM     15  C   UNL     1      -2.902   0.529  -1.052  0.00  0.00    +0.326 C 
ATOM     16  O   UNL     1      -2.370   0.523  -2.145  0.00  0.00    -0.251 OA
ATOM     17  H   UNL     1      -4.762  -0.693  -1.386  0.00  0.00    +0.151 HD
ENDBRANCH   3   5
BRANCH   1  18
ATOM     18  C   UNL     1       1.280   1.980   0.001  0.00  0.00    +0.201 C 
BRANCH  18  21
ATOM     19  C   UNL     1       3.671   1.510  -0.025  0.00  0.00    +0.219 C 
ATOM     20  O   UNL     1       3.876   2.705  -0.020  0.00  0.00    -0.275 OA
ATOM     21  N   UNL     1       2.407   1.043  -0.015  0.00  0.00    -0.306 N 
ATOM     22  H   UNL     1       2.220  -0.041  -0.019  0.00  0.00    +0.149 HD
BRANCH  19  24
ATOM     23  C   UNL     1       6.144   1.329  -0.050  0.00  0.00    +0.020 C 
ATOM     24  C   UNL     1       4.830   0.546  -0.041  0.00  0.00    +0.039 C 
ATOM     25  C   UNL     1       4.772  -0.341   1.204  0.00  0.00    +0.020 C 
ATOM     26  C   UNL     1       4.748  -0.328  -1.294  0.00  0.00    +0.020 C 
ENDBRANCH  19  24
ENDBRANCH  18  21
ENDBRANCH   1  18
TORSDOF 4
