REMARK  Name = ZINC42407238
REMARK  6 active torsions:
REMARK  status: ('A' for Active; 'I' for Inactive)
REMARK    1  A    between atoms: C_1  and  C_2
REMARK    2  A    between atoms: C_2  and  C_3
REMARK    3  A    between atoms: C_3  and  CA_4
REMARK    4  A    between atoms: CA_4  and  C_6
REMARK    5  A    between atoms: CA_4  and  N_9
REMARK    6  A    between atoms: C_17  and  C_19
REMARK                            x       y       z     vdW  Elec       q    Type
REMARK                         _______ _______ _______ _____ _____    ______ ____
ROOT
ATOM      1  N   UNL     1       2.965  -4.105  -1.402  0.00  0.00    -0.286 N 
ATOM      2  C   UNL     1       2.260  -4.779  -0.471  0.00  0.00    +0.303 C 
ATOM      3  O   UNL     1       1.254  -5.383  -0.789  0.00  0.00    -0.253 OA
ATOM      4  N   UNL     1       2.672  -4.784   0.812  0.00  0.00    -0.274 N 
ATOM      5  C   UNL     1       3.819  -3.969   1.234  0.00  0.00    +0.110 C 
ATOM      6  C   UNL     1       3.393  -3.091   2.415  0.00  0.00    +0.019 C 
ATOM      7  C   UNL     1       2.811  -3.977   3.520  0.00  0.00    +0.004 C 
ATOM      8  C   UNL     1       1.576  -4.709   2.991  0.00  0.00    +0.032 C 
ATOM      9  C   UNL     1       1.977  -5.600   1.818  0.00  0.00    +0.163 C 
ATOM     10  H   UNL     1       3.726  -3.565  -1.137  0.00  0.00    +0.151 HD
ENDROOT
BRANCH   9  11
ATOM     11  C   UNL     1       0.744  -6.213   1.206  0.00  0.00    +0.231 C 
ATOM     12  O   UNL     1      -0.080  -5.507   0.664  0.00  0.00    -0.274 OA
ATOM     13  N   UNL     1       0.556  -7.547   1.262  0.00  0.00    -0.328 N 
ATOM     14  H   UNL     1       1.215  -8.112   1.696  0.00  0.00    +0.145 HD
ATOM     15  H   UNL     1      -0.237  -7.942   0.869  0.00  0.00    +0.145 HD
ENDBRANCH   9  11
BRANCH   1  16
ATOM     16  CA  UNL     1       2.581  -4.188  -2.813  0.00  0.00    +0.187 C 
BRANCH  16  17
ATOM     17  C   UNL     1       3.207  -5.410  -3.433  0.00  0.00    +0.376 C 
ATOM     18  O   UNL     1       4.049  -6.042  -2.819  0.00  0.00    -0.244 OA
ATOM     19  OXT UNL     1       2.871  -5.768  -4.549  0.00  0.00    -0.244 OA
ENDBRANCH  16  17
BRANCH  16  20
ATOM     20  C   UNL     1       3.067  -2.937  -3.548  0.00  0.00    +0.034 C 
BRANCH  20  22
ATOM     21  C   UNL     1       2.824  -0.458  -3.737  0.00  0.00    +0.004 C 
ATOM     22  C   UNL     1       2.337  -1.708  -3.002  0.00  0.00    -0.001 C 
ENDBRANCH  20  22
ENDBRANCH  16  20
ENDBRANCH   1  16
TORSDOF 5
