REMARK  Name = ZINC52012423
REMARK  2 active torsions:
REMARK  status: ('A' for Active; 'I' for Inactive)
REMARK    1  A    between atoms: N_8  and  C_9
REMARK    2  A    between atoms: C_15  and  O_17
REMARK                            x       y       z     vdW  Elec       q    Type
REMARK                         _______ _______ _______ _____ _____    ______ ____
ROOT
ATOM      1  C   UNL     1      -0.017   1.379   0.010  0.00  0.00    +0.083 A 
ATOM      2  C   UNL     1       1.203   2.057   0.002  0.00  0.00    +0.124 A 
ATOM      3  N   UNL     1       2.331   1.354  -0.013  0.00  0.00    -0.221 NA
ATOM      4  C   UNL     1       2.303   0.036  -0.020  0.00  0.00    +0.224 A 
ATOM      5  N   UNL     1       1.169  -0.635  -0.013  0.00  0.00    -0.224 NA
ATOM      6  C   UNL     1       0.002  -0.004   0.002  0.00  0.00    +0.134 A 
ATOM      7 CL   UNL     1      -1.483  -0.903   0.012  0.00  0.00    -0.062 Cl
ATOM      8  N   UNL     1       1.237   3.442   0.008  0.00  0.00    -0.324 N 
ATOM      9  H   UNL     1       2.089   3.906   0.003  0.00  0.00    +0.148 HD
ENDROOT
BRANCH   8  10
ATOM     10  C   UNL     1      -0.013   4.206   0.024  0.00  0.00    +0.100 C 
ATOM     11  C   UNL     1      -0.527   4.372  -1.408  0.00  0.00    +0.025 C 
ATOM     12  C   UNL     1      -1.833   5.170  -1.391  0.00  0.00    +0.002 C 
ATOM     13  C   UNL     1      -1.581   6.548  -0.777  0.00  0.00    +0.003 C 
ATOM     14  C   UNL     1      -1.066   6.382   0.654  0.00  0.00    +0.033 C 
ATOM     15  C   UNL     1       0.239   5.585   0.638  0.00  0.00    +0.135 C 
BRANCH  15  16
ATOM     16  O   UNL     1       0.719   5.430   1.975  0.00  0.00    -0.390 OA
ATOM     17  H   UNL     1       0.901   6.265   2.427  0.00  0.00    +0.210 HD
ENDBRANCH  15  16
ENDBRANCH   8  10
TORSDOF 2
