REMARK  Name = ZINC13942221
REMARK  5 active torsions:
REMARK  status: ('A' for Active; 'I' for Inactive)
REMARK    1  A    between atoms: C_1  and  C_2
REMARK    2  A    between atoms: C_7  and  N_8
REMARK    3  A    between atoms: N_8  and  N_9
REMARK    4  A    between atoms: C_11  and  C_28
REMARK    5  A    between atoms: C_18  and  C_21
REMARK                            x       y       z     vdW  Elec       q    Type
REMARK                         _______ _______ _______ _____ _____    ______ ____
ROOT
ATOM      1  N   UNL     1       0.044  -0.671   3.527  0.00  0.00    -0.175 NA
ATOM      2  C   UNL     1       0.046  -0.020   4.676  0.00  0.00    +0.168 C 
ATOM      3  C   UNL     1       0.072  -0.591   6.031  0.00  0.00    +0.089 C 
ATOM      4  N   UNL     1       0.064   0.396   6.873  0.00  0.00    -0.173 NA
ATOM      5  N   UNL     1       0.034   1.626   6.216  0.00  0.00    -0.130 N 
ATOM      6  C   UNL     1       0.028   1.439   4.880  0.00  0.00    +0.294 C 
ATOM      7  O   UNL     1       0.008   2.300   4.019  0.00  0.00    -0.266 OA
ATOM      8  C   UNL     1       0.019   2.866   6.847  0.00  0.00    +0.189 A 
ATOM      9  N   UNL     1       0.036   3.147   8.136  0.00  0.00    -0.223 NA
ATOM     10  C   UNL     1       0.018   4.399   8.568  0.00  0.00    +0.080 A 
ATOM     11  C   UNL     1      -0.019   5.421   7.660  0.00  0.00    +0.077 A 
ATOM     12  S   UNL     1      -0.019   4.501   6.126  0.00  0.00    -0.058 S 
ATOM     13  C   UNL     1       0.103  -2.057   6.378  0.00  0.00    +0.070 C 
ENDROOT
BRANCH  10  14
ATOM     14  C   UNL     1       0.036   4.690  10.022  0.00  0.00    +0.001 A 
ATOM     15  C   UNL     1       0.010   6.009  10.472  0.00  0.00    +0.011 A 
ATOM     16  C   UNL     1       0.027   6.274  11.826  0.00  0.00    +0.016 A 
ATOM     17  C   UNL     1       0.069   5.233  12.737  0.00  0.00    +0.018 A 
ATOM     18  C   UNL     1       0.095   3.921  12.296  0.00  0.00    +0.016 A 
ATOM     19  C   UNL     1       0.073   3.645  10.944  0.00  0.00    +0.011 A 
ATOM     20 BR   UNL     1       0.092   5.604  14.591  0.00  0.00    -0.050 Br
ENDBRANCH  10  14
BRANCH   1  21
ATOM     21  N   UNL     1       0.025  -0.018   2.415  0.00  0.00    -0.237 N 
ATOM     22  H   UNL     1       0.011   0.952   2.422  0.00  0.00    +0.174 HD
BRANCH  21  29
ATOM     23  C   UNL     1      -0.018   1.503   0.010  0.00  0.00    +0.046 C 
ATOM     24  C   UNL     1       0.002  -0.004   0.002  0.00  0.00    -0.028 A 
ATOM     25  C   UNL     1       0.006  -0.689  -1.197  0.00  0.00    +0.005 A 
ATOM     26  C   UNL     1       0.025  -2.072  -1.206  0.00  0.00    +0.000 A 
ATOM     27  C   UNL     1       0.040  -2.774  -0.014  0.00  0.00    +0.002 A 
ATOM     28  C   UNL     1       0.036  -2.096   1.189  0.00  0.00    +0.025 A 
ATOM     29  C   UNL     1       0.023  -0.706   1.201  0.00  0.00    +0.051 A 
ENDBRANCH  21  29
ENDBRANCH   1  21
TORSDOF 3
