REMARK  Name = ZINC40586121
REMARK  4 active torsions:
REMARK  status: ('A' for Active; 'I' for Inactive)
REMARK    1  A    between atoms: C_1  and  C_2
REMARK    2  A    between atoms: C_7  and  N_8
REMARK    3  A    between atoms: C_10  and  N_24
REMARK    4  A    between atoms: C_11  and  N_15
REMARK                            x       y       z     vdW  Elec       q    Type
REMARK                         _______ _______ _______ _____ _____    ______ ____
ROOT
ATOM      1  N   UNL     1       0.253  -0.099   2.375  0.00  0.00    -0.282 N 
ATOM      2  C   UNL     1       0.159  -0.767   3.588  0.00  0.00    +0.160 A 
ATOM      3  C   UNL     1       0.055  -0.056   4.779  0.00  0.00    +0.206 A 
ATOM      4  C   UNL     1      -0.037  -0.772   5.969  0.00  0.00    +0.161 A 
ATOM      5  N   UNL     1      -0.022  -2.104   5.924  0.00  0.00    -0.218 NA
ATOM      6  C   UNL     1       0.078  -2.740   4.776  0.00  0.00    +0.225 A 
ATOM      7  N   UNL     1       0.162  -2.098   3.628  0.00  0.00    -0.218 NA
ATOM      8  H   UNL     1       0.251   0.870   2.354  0.00  0.00    +0.155 HD
ENDROOT
BRANCH   4   9
ATOM      9  N   UNL     1      -0.142  -0.110   7.183  0.00  0.00    -0.283 N 
ATOM     10  C   UNL     1      -0.286   1.340   7.339  0.00  0.00    +0.117 C 
ATOM     11  C   UNL     1      -0.362   1.577   8.856  0.00  0.00    +0.056 C 
ATOM     12  C   UNL     1      -0.251   0.196   9.462  0.00  0.00    -0.025 A 
ATOM     13  C   UNL     1      -0.133  -0.728   8.436  0.00  0.00    +0.038 A 
ATOM     14  C   UNL     1      -0.021  -2.083   8.753  0.00  0.00    +0.024 A 
ATOM     15  C   UNL     1      -0.033  -2.492  10.070  0.00  0.00    +0.002 A 
ATOM     16  C   UNL     1      -0.156  -1.563  11.086  0.00  0.00    +0.000 A 
ATOM     17  C   UNL     1      -0.258  -0.218  10.780  0.00  0.00    +0.005 A 
ENDBRANCH   4   9
BRANCH   1  24
ATOM     18  C   UNL     1       0.442   1.361  -0.060  0.00  0.00    +0.047 C 
ATOM     19  C   UNL     1       0.446  -0.145  -0.023  0.00  0.00    -0.010 A 
ATOM     20  C   UNL     1       0.548  -0.875  -1.194  0.00  0.00    +0.008 A 
ATOM     21  C   UNL     1       0.548  -2.261  -1.113  0.00  0.00    +0.020 A 
ATOM     22  C   UNL     1       0.446  -2.866   0.124  0.00  0.00    +0.113 A 
ATOM     23  N   UNL     1       0.349  -2.145   1.224  0.00  0.00    -0.240 NA
ATOM     24  C   UNL     1       0.351  -0.821   1.189  0.00  0.00    +0.127 A 
ENDBRANCH   1  24
BRANCH   3  25
ATOM     25  N   UNL     1       0.042   1.424   4.781  0.00  0.00    +0.063 N 
ATOM     26  O   UNL     1      -1.006   2.020   4.698  0.00  0.00    -0.126 OA
ATOM     27  O   UNL     1       1.081   2.037   4.867  0.00  0.00    -0.126 OA
ENDBRANCH   3  25
TORSDOF 3
