REMARK  Name = ZINC16047959
REMARK  6 active torsions:
REMARK  status: ('A' for Active; 'I' for Inactive)
REMARK    1  A    between atoms: C_6  and  S_7
REMARK    2  A    between atoms: S_7  and  C_10
REMARK    3  A    between atoms: C_10  and  C_11
REMARK    4  A    between atoms: C_11  and  C_12
REMARK    5  A    between atoms: N_14  and  C_15
REMARK    6  A    between atoms: C_16  and  C_25
REMARK                            x       y       z     vdW  Elec       q    Type
REMARK                         _______ _______ _______ _____ _____    ______ ____
ROOT
ATOM      1  C   UNL     1       6.606  -2.403   1.592  0.00  0.00    +0.219 C 
ATOM      2  O   UNL     1       6.903  -1.601   0.732  0.00  0.00    -0.275 OA
ATOM      3  N   UNL     1       5.328  -2.503   2.008  0.00  0.00    -0.279 N 
ATOM      4  H   UNL     1       5.090  -3.144   2.695  0.00  0.00    +0.155 HD
ENDROOT
BRANCH   3   5
ATOM      5  C   UNL     1       4.353  -1.688   1.453  0.00  0.00    +0.084 A 
ATOM      6  C   UNL     1       2.999  -1.642   1.746  0.00  0.00    +0.068 A 
ATOM      7  C   UNL     1       2.179  -0.684   1.016  0.00  0.00    -0.023 A 
ATOM      8  C   UNL     1       2.846   0.061   0.110  0.00  0.00    -0.004 A 
ATOM      9  S   UNL     1       4.530  -0.479   0.225  0.00  0.00    -0.077 S 
ATOM     10  C   UNL     1       2.288   1.105  -0.807  0.00  0.00    +0.043 C 
ATOM     11  C   UNL     1       1.406   2.068  -0.000  0.00  0.00    +0.005 C 
ATOM     12  C   UNL     1      -0.019   1.523   0.010  0.00  0.00    +0.001 C 
ATOM     13  C   UNL     1       0.002  -0.004   0.002  0.00  0.00    +0.005 C 
ATOM     14  C   UNL     1       0.683  -0.535   1.259  0.00  0.00    +0.037 C 
BRANCH   6  15
ATOM     15  C   UNL     1       2.412  -2.527   2.756  0.00  0.00    +0.244 C 
ATOM     16  O   UNL     1       1.983  -3.620   2.433  0.00  0.00    -0.270 OA
ATOM     17  N   UNL     1       2.346  -2.132   4.043  0.00  0.00    -0.325 N 
ATOM     18  H   UNL     1       2.688  -1.261   4.301  0.00  0.00    +0.145 HD
ATOM     19  H   UNL     1       1.958  -2.718   4.712  0.00  0.00    +0.145 HD
ENDBRANCH   6  15
ENDBRANCH   3   5
BRANCH   1  20
ATOM     20  C   UNL     1       7.665  -3.289   2.195  0.00  0.00    +0.119 C 
BRANCH  20  21
ATOM     21  C   UNL     1       9.018  -2.977   1.552  0.00  0.00    +0.181 C 
BRANCH  21  22
ATOM     22  S   UNL     1      10.293  -4.043   2.277  0.00  0.00    -0.003 S 
ATOM     23  O   UNL     1      10.506  -3.695   3.639  0.00  0.00    -0.169 OA
ATOM     24  O   UNL     1      10.073  -5.395   1.901  0.00  0.00    -0.169 OA
BRANCH  22  30
ATOM     25  C   UNL     1      12.163  -4.236   0.298  0.00  0.00    +0.028 A 
ATOM     26  C   UNL     1      13.330  -3.874  -0.348  0.00  0.00    +0.022 A 
ATOM     27  C   UNL     1      14.126  -2.870   0.173  0.00  0.00    +0.041 A 
ATOM     28  C   UNL     1      13.751  -2.224   1.337  0.00  0.00    +0.022 A 
ATOM     29  C   UNL     1      12.580  -2.583   1.979  0.00  0.00    +0.028 A 
ATOM     30  C   UNL     1      11.785  -3.586   1.458  0.00  0.00    +0.088 A 
ATOM     31 CL   UNL     1      15.596  -2.419  -0.634  0.00  0.00    -0.084 Cl
ENDBRANCH  22  30
ENDBRANCH  21  22
ENDBRANCH  20  21
ENDBRANCH   1  20
TORSDOF 6
