REMARK  Name = ZINC35843317
REMARK  5 active torsions:
REMARK  status: ('A' for Active; 'I' for Inactive)
REMARK    1  A    between atoms: C_1  and  C_2
REMARK    2  A    between atoms: C_5  and  N_11
REMARK    3  A    between atoms: C_7  and  N_8
REMARK    4  A    between atoms: C_29  and  C_37
REMARK    5  A    between atoms: C_31  and  C_36
REMARK                            x       y       z     vdW  Elec       q    Type
REMARK                         _______ _______ _______ _____ _____    ______ ____
ROOT
ATOM      1  N   UNL     1       0.557  -4.119  -0.096  0.00  0.00    -0.210 N 
ATOM      2  C   UNL     1       0.920  -4.855   0.996  0.00  0.00    +0.232 C 
ATOM      3  O   UNL     1       0.800  -4.544   2.161  0.00  0.00    -0.274 OA
ATOM      4  C   UNL     1       1.501  -6.133   0.451  0.00  0.00    +0.107 C 
ATOM      5  C   UNL     1       1.145  -7.461   1.116  0.00  0.00    +0.071 C 
ATOM      6  C   UNL     1      -0.254  -7.402   1.757  0.00  0.00    +0.021 C 
ATOM      7  C   UNL     1      -0.731  -8.871   1.612  0.00  0.00    +0.017 C 
ATOM      8  C   UNL     1      -0.136  -9.298   0.253  0.00  0.00    +0.086 C 
ATOM      9  N   UNL     1       1.024  -8.416  -0.033  0.00  0.00    -0.281 NA
ATOM     10  C   UNL     1       0.749  -7.613  -1.261  0.00  0.00    +0.138 C 
ATOM     11  C   UNL     1       0.516  -6.240  -0.783  0.00  0.00    +0.123 C 
ATOM     12  C   UNL     1       0.478  -4.871  -1.242  0.00  0.00    +0.233 C 
ATOM     13  O   UNL     1       0.398  -4.475  -2.385  0.00  0.00    -0.274 OA
ATOM     14  C   UNL     1       1.922  -7.720  -2.203  0.00  0.00    +0.004 A 
ATOM     15  C   UNL     1       3.245  -7.351  -2.106  0.00  0.00    +0.011 A 
ATOM     16  C   UNL     1       4.107  -7.582  -3.163  0.00  0.00    -0.050 A 
ATOM     17  C   UNL     1       3.636  -8.184  -4.316  0.00  0.00    +0.008 A 
ATOM     18  C   UNL     1       2.312  -8.556  -4.416  0.00  0.00    -0.029 A 
ATOM     19  C   UNL     1       1.438  -8.327  -3.356  0.00  0.00    +0.042 A 
ATOM     20  N   UNL     1       0.078  -8.610  -3.218  0.00  0.00    -0.283 N 
ATOM     21  C   UNL     1      -0.402  -8.226  -2.021  0.00  0.00    +0.243 C 
ATOM     22  O   UNL     1      -1.542  -8.348  -1.627  0.00  0.00    -0.273 OA
ATOM     23  C   UNL     1       1.809  -9.212  -5.676  0.00  0.00    +0.045 C 
ATOM     24  C   UNL     1       5.555  -7.177  -3.059  0.00  0.00    +0.044 C 
ATOM     25  H   UNL     1      -0.459  -9.034  -3.905  0.00  0.00    +0.155 HD
ENDROOT
BRANCH   1  30
ATOM     26  C   UNL     1      -0.537   1.447   0.089  0.00  0.00    +0.046 C 
ATOM     27  C   UNL     1      -0.246  -0.031   0.040  0.00  0.00    -0.020 A 
ATOM     28  C   UNL     1      -0.348  -0.715  -1.158  0.00  0.00    +0.007 A 
ATOM     29  C   UNL     1      -0.083  -2.069  -1.206  0.00  0.00    +0.024 A 
ATOM     30  C   UNL     1       0.287  -2.744  -0.051  0.00  0.00    +0.046 A 
ATOM     31  C   UNL     1       0.389  -2.055   1.150  0.00  0.00    +0.057 A 
ATOM     32  C   UNL     1       0.127  -0.699   1.191  0.00  0.00    +0.131 A 
BRANCH  32  33
ATOM     33  N   UNL     1       0.241   0.038   2.469  0.00  0.00    +0.057 N 
ATOM     34  O   UNL     1       0.676   1.166   2.480  0.00  0.00    -0.126 OA
ATOM     35  O   UNL     1      -0.100  -0.488   3.503  0.00  0.00    -0.126 OA
ENDBRANCH  32  33
ENDBRANCH   1  30
TORSDOF 2
