REMARK  Name = ZINC39061142
REMARK  3 active torsions:
REMARK  status: ('A' for Active; 'I' for Inactive)
REMARK    1  A    between atoms: C_1  and  C_2
REMARK    2  A    between atoms: C_8  and  C_9
REMARK    3  A    between atoms: C_8  and  C_10
REMARK                            x       y       z     vdW  Elec       q    Type
REMARK                         _______ _______ _______ _____ _____    ______ ____
ROOT
ATOM      1  C   UNL     1      -0.019   1.526   0.010  0.00  0.00    +0.012 C 
ATOM      2  C   UNL     1       0.002  -0.004   0.002  0.00  0.00    +0.047 C 
ATOM      3  C   UNL     1      -1.433  -0.574   0.116  0.00  0.00    +0.237 C 
ATOM      4  O   UNL     1      -1.283  -1.716   0.988  0.00  0.00    -0.464 OA
ATOM      5  C   UNL     1      -0.425  -1.339   1.967  0.00  0.00    +0.320 C 
ATOM      6  O   UNL     1      -0.520  -1.579   3.147  0.00  0.00    -0.250 OA
ATOM      7  C   UNL     1       0.685  -0.552   1.278  0.00  0.00    +0.125 C 
ATOM      8  C   UNL     1       1.852  -1.471   0.910  0.00  0.00    +0.031 C 
ENDROOT
BRANCH   7   9
ATOM      9  C   UNL     1       1.157   0.580   2.154  0.00  0.00    +0.241 C 
ATOM     10  O   UNL     1       0.733   0.690   3.279  0.00  0.00    -0.300 OA
ENDBRANCH   7   9
TORSDOF 1
