REMARK  Name = ZINC43407033
REMARK  4 active torsions:
REMARK  status: ('A' for Active; 'I' for Inactive)
REMARK    1  A    between atoms: C_1  and  C_2
REMARK    2  A    between atoms: C_5  and  O_9
REMARK    3  A    between atoms: O_9  and  C_10
REMARK    4  A    between atoms: C_11  and  C_19
REMARK                            x       y       z     vdW  Elec       q    Type
REMARK                         _______ _______ _______ _____ _____    ______ ____
ROOT
ATOM      1  C   UNL     1      -0.168  -4.760  -1.220  0.00  0.00    +0.231 A 
ATOM      2  C   UNL     1      -0.138  -6.162  -1.263  0.00  0.00    +0.074 A 
ATOM      3  C   UNL     1      -0.114  -6.794  -2.510  0.00  0.00    +0.022 A 
ATOM      4  C   UNL     1      -0.120  -6.008  -3.651  0.00  0.00    -0.025 A 
ATOM      5  C   UNL     1      -0.150  -4.630  -3.531  0.00  0.00    +0.048 A 
ATOM      6  N   UNL     1      -0.178  -4.057  -2.338  0.00  0.00    -0.217 NA
ATOM      7  C   UNL     1      -0.151  -4.002  -4.910  0.00  0.00    +0.056 C 
ATOM      8  C   UNL     1       0.323  -5.118  -5.865  0.00  0.00    +0.011 C 
ATOM      9  C   UNL     1      -0.098  -6.398  -5.112  0.00  0.00    +0.037 C 
ENDROOT
BRANCH   2  10
ATOM     10  C   UNL     1      -0.133  -6.954  -0.017  0.00  0.00    +0.099 C 
ATOM     11  N   UNL     1      -1.072  -7.877   0.191  0.00  0.00    -0.387 N 
ATOM     12  N   UNL     1       0.811  -6.747   0.900  0.00  0.00    -0.344 N 
ATOM     13  H   UNL     1      -1.802  -7.976  -0.440  0.00  0.00    +0.157 HD
ATOM     14  H   UNL     1       1.495  -6.075   0.749  0.00  0.00    +0.144 HD
ATOM     15  H   UNL     1       0.815  -7.267   1.719  0.00  0.00    +0.144 HD
ATOM     16  H   UNL     1      -1.025  -8.449   0.973  0.00  0.00    +0.157 HD
ENDBRANCH   2  10
BRANCH   1  17
ATOM     17  O   UNL     1      -0.193  -4.124  -0.025  0.00  0.00    -0.436 OA
BRANCH  17  22
ATOM     18  C   UNL     1      -0.746   1.482  -0.026  0.00  0.00    +0.044 C 
ATOM     19  C   UNL     1      -0.598  -0.018  -0.025  0.00  0.00    -0.049 A 
ATOM     20  C   UNL     1       0.661  -0.587   0.023  0.00  0.00    +0.007 A 
ATOM     21  C   UNL     1       0.799  -1.962   0.024  0.00  0.00    +0.048 A 
ATOM     22  C   UNL     1      -0.326  -2.772  -0.025  0.00  0.00    +0.144 A 
ATOM     23  C   UNL     1      -1.589  -2.198  -0.073  0.00  0.00    +0.060 A 
ATOM     24  C   UNL     1      -1.722  -0.822  -0.068  0.00  0.00    +0.022 A 
ATOM     25 BR   UNL     1      -3.127  -3.297  -0.139  0.00  0.00    -0.046 Br
ENDBRANCH  17  22
ENDBRANCH   1  17
TORSDOF 3
