REMARK  Name = ZINC53618204
REMARK  5 active torsions:
REMARK  status: ('A' for Active; 'I' for Inactive)
REMARK    1  A    between atoms: C_4  and  C_7
REMARK    2  A    between atoms: C_10  and  C_13
REMARK    3  A    between atoms: N_18  and  N_19
REMARK    4  A    between atoms: C_20  and  C_21
REMARK    5  A    between atoms: C_25  and  N_27
REMARK                            x       y       z     vdW  Elec       q    Type
REMARK                         _______ _______ _______ _____ _____    ______ ____
ROOT
ATOM      1  C   UNL     1       7.402  -2.746  -0.087  0.00  0.00    +0.092 A 
ATOM      2  C   UNL     1       8.681  -2.158   0.014  0.00  0.00    +0.114 A 
ATOM      3  N   UNL     1       9.597  -3.163  -0.044  0.00  0.00    -0.332 N 
ATOM      4  H   UNL     1      10.561  -3.063   0.001  0.00  0.00    +0.168 HD
ATOM      5  C   UNL     1       8.913  -4.343  -0.176  0.00  0.00    +0.192 A 
ATOM      6  N   UNL     1       7.564  -4.065  -0.195  0.00  0.00    -0.202 N 
ATOM      7  N   UNL     1       9.459  -5.554  -0.267  0.00  0.00    -0.329 N 
ATOM      8  H   UNL     1      10.424  -5.654  -0.240  0.00  0.00    +0.145 HD
ATOM      9  H   UNL     1       8.893  -6.336  -0.359  0.00  0.00    +0.145 HD
ENDROOT
BRANCH   1  13
ATOM     10  C   UNL     1       3.697  -0.686  -0.037  0.00  0.00    -0.018 A 
ATOM     11  C   UNL     1       4.896   0.033  -0.040  0.00  0.00    +0.009 A 
ATOM     12  C   UNL     1       6.090  -0.629  -0.056  0.00  0.00    +0.010 A 
ATOM     13  C   UNL     1       6.113  -2.030  -0.069  0.00  0.00    +0.002 A 
ATOM     14  C   UNL     1       4.911  -2.748  -0.066  0.00  0.00    +0.010 A 
ATOM     15  C   UNL     1       3.719  -2.083  -0.045  0.00  0.00    +0.009 A 
BRANCH  10  19
ATOM     16  C   UNL     1      -0.017   1.380   0.010  0.00  0.00    +0.000 A 
ATOM     17  C   UNL     1       1.169   2.094   0.002  0.00  0.00    +0.001 A 
ATOM     18  C   UNL     1       2.377   1.429  -0.013  0.00  0.00    +0.008 A 
ATOM     19  C   UNL     1       2.403   0.034  -0.021  0.00  0.00    -0.018 A 
ATOM     20  C   UNL     1       1.204  -0.680  -0.013  0.00  0.00    +0.008 A 
ATOM     21  C   UNL     1       0.002  -0.004   0.002  0.00  0.00    +0.001 A 
ENDBRANCH  10  19
ENDBRANCH   1  13
BRANCH   6  22
ATOM     22  N   UNL     1       6.617  -4.935  -0.301  0.00  0.00    -0.171 NA
ATOM     23  C   UNL     1       6.171  -5.282  -1.495  0.00  0.00    +0.141 C 
BRANCH  23  24
ATOM     24  C   UNL     1       5.098  -6.268  -1.616  0.00  0.00    -0.003 A 
ATOM     25  C   UNL     1       4.534  -6.844  -0.464  0.00  0.00    +0.009 A 
ATOM     26  C   UNL     1       3.524  -7.771  -0.589  0.00  0.00    +0.003 A 
ATOM     27  C   UNL     1       3.063  -8.137  -1.845  0.00  0.00    +0.033 A 
ATOM     28  C   UNL     1       3.612  -7.574  -2.986  0.00  0.00    +0.127 A 
ATOM     29  C   UNL     1       4.619  -6.641  -2.884  0.00  0.00    +0.042 A 
BRANCH  28  30
ATOM     30  N   UNL     1       3.111  -7.974  -4.320  0.00  0.00    +0.056 N 
ATOM     31  O   UNL     1       2.144  -8.863  -4.421  0.00  0.00    -0.126 OA
ATOM     32  O   UNL     1       3.631  -7.441  -5.406  0.00  0.00    -0.126 OA
ENDBRANCH  28  30
ENDBRANCH  23  24
ENDBRANCH   6  22
TORSDOF 5
