REMARK  Name = ZINC37622465
REMARK  8 active torsions:
REMARK  status: ('A' for Active; 'I' for Inactive)
REMARK    1  A    between atoms: C_1  and  C_2
REMARK    2  A    between atoms: C_2  and  C_3
REMARK    3  A    between atoms: C_3  and  C_4
REMARK    4  A    between atoms: C_4  and  C_5
REMARK    5  A    between atoms: C_4  and  C_6
REMARK    6  A    between atoms: C_4  and  N_19
REMARK    7  A    between atoms: N_8  and  C_9
REMARK    8  A    between atoms: C_12  and  N_16
REMARK                            x       y       z     vdW  Elec       q    Type
REMARK                         _______ _______ _______ _____ _____    ______ ____
ROOT
ATOM      1  C   UNL     1      -2.826  -2.584   0.018  0.00  0.00    +0.206 C 
ATOM      2  O   UNL     1      -3.728  -1.901  -0.420  0.00  0.00    -0.277 OA
ATOM      3  N   UNL     1      -3.088  -3.813   0.504  0.00  0.00    -0.286 N 
ATOM      4  H   UNL     1      -2.359  -4.391   0.780  0.00  0.00    +0.155 HD
ENDROOT
BRANCH   3   5
ATOM      5  C   UNL     1      -4.411  -4.257   0.611  0.00  0.00    +0.048 A 
ATOM      6  C   UNL     1      -5.446  -3.338   0.725  0.00  0.00    +0.026 A 
ATOM      7  C   UNL     1      -6.750  -3.779   0.831  0.00  0.00    +0.034 A 
ATOM      8  C   UNL     1      -7.027  -5.134   0.823  0.00  0.00    +0.127 A 
ATOM      9  C   UNL     1      -5.999  -6.052   0.710  0.00  0.00    +0.049 A 
ATOM     10  C   UNL     1      -4.692  -5.618   0.598  0.00  0.00    +0.041 A 
ATOM     11 BR   UNL     1      -3.288  -6.873   0.435  0.00  0.00    -0.048 Br
BRANCH   8  12
ATOM     12  N   UNL     1      -8.427  -5.603   0.938  0.00  0.00    +0.056 N 
ATOM     13  O   UNL     1      -9.326  -4.801   1.037  0.00  0.00    -0.126 OA
ATOM     14  O   UNL     1      -8.670  -6.787   0.931  0.00  0.00    -0.126 OA
ENDBRANCH   8  12
ENDBRANCH   3   5
BRANCH   1  15
ATOM     15  C   UNL     1      -1.414  -2.058   0.019  0.00  0.00    +0.005 C 
ATOM     16  C   UNL     1      -0.687  -2.548  -1.235  0.00  0.00    -0.001 C 
BRANCH  15  17
ATOM     17  N   UNL     1      -0.711  -2.543   1.214  0.00  0.00    +0.387 N 
ATOM     18  H   UNL     1      -1.191  -2.220   2.041  0.00  0.00    -0.089 HD
ATOM     19  H   UNL     1      -0.695  -3.552   1.208  0.00  0.00    -0.089 HD
ATOM     20  H   UNL     1       0.234  -2.191   1.214  0.00  0.00    -0.089 HD
ENDBRANCH  15  17
BRANCH  15  21
ATOM     21  C   UNL     1      -1.440  -0.528   0.029  0.00  0.00    -0.004 C 
BRANCH  21  23
ATOM     22  C   UNL     1      -0.032   1.536   0.039  0.00  0.00    +0.004 C 
ATOM     23  C   UNL     1      -0.006   0.006   0.029  0.00  0.00    -0.004 C 
ENDBRANCH  21  23
ENDBRANCH  15  21
ENDBRANCH   1  15
TORSDOF 6
