REMARK  Name = ZINC39663241
REMARK  3 active torsions:
REMARK  status: ('A' for Active; 'I' for Inactive)
REMARK    1  A    between atoms: C_9  and  C_12
REMARK    2  A    between atoms: C_16  and  C_25
REMARK    3  A    between atoms: N_27  and  C_28
REMARK                            x       y       z     vdW  Elec       q    Type
REMARK                         _______ _______ _______ _____ _____    ______ ____
ROOT
ATOM      1  C   UNL     1       5.002  -2.677   0.016  0.00  0.00    +0.260 C 
ATOM      2  O   UNL     1       5.873  -2.050   0.581  0.00  0.00    -0.271 OA
ATOM      3  N   UNL     1       5.225  -3.951  -0.361  0.00  0.00    -0.297 N 
ATOM      4  C   UNL     1       4.294  -4.868  -1.061  0.00  0.00    +0.121 C 
ATOM      5  C   UNL     1       5.183  -5.634  -2.066  0.00  0.00    +0.100 C 
ATOM      6  C   UNL     1       6.600  -5.557  -1.475  0.00  0.00    -0.004 C 
ATOM      7  C   UNL     1       6.459  -4.751  -0.175  0.00  0.00    +0.115 C 
ATOM      8  C   UNL     1       7.125  -6.958  -1.175  0.00  0.00    -0.010 C 
ATOM      9  C   UNL     1       8.557  -6.859  -0.642  0.00  0.00    -0.082 C 
ATOM     10  N   UNL     1       9.408  -6.199  -1.640  0.00  0.00    +0.379 N 
ATOM     11  C   UNL     1       8.952  -4.821  -1.854  0.00  0.00    -0.082 C 
ATOM     12  C   UNL     1       7.536  -4.834  -2.438  0.00  0.00    -0.010 C 
ATOM     13  H   UNL     1      10.362  -6.190  -1.313  0.00  0.00    -0.086 HD
ATOM     14  H   UNL     1       9.358  -6.707  -2.510  0.00  0.00    -0.086 HD
ENDROOT
BRANCH   1  23
ATOM     15  C   UNL     1       0.083   1.315   0.426  0.00  0.00    +0.004 A 
ATOM     16  C   UNL     1       1.264   2.031   0.364  0.00  0.00    +0.004 A 
ATOM     17  C   UNL     1       2.473   1.367   0.269  0.00  0.00    +0.049 A 
ATOM     18  C   UNL     1       2.503  -0.019   0.236  0.00  0.00    +0.163 A 
ATOM     19  C   UNL     1       1.316  -0.739   0.296  0.00  0.00    +0.162 A 
ATOM     20  C   UNL     1       0.106  -0.066   0.392  0.00  0.00    +0.049 A 
ATOM     21  O   UNL     1       1.323  -2.099   0.256  0.00  0.00    -0.484 OA
ATOM     22  C   UNL     1       2.570  -2.745   0.534  0.00  0.00    +0.283 C 
ATOM     23  C   UNL     1       3.669  -2.031  -0.264  0.00  0.00    +0.296 C 
ATOM     24  O   UNL     1       3.701  -0.659   0.146  0.00  0.00    -0.473 OA
ENDBRANCH   1  23
BRANCH   5  25
ATOM     25  C   UNL     1       4.735  -7.068  -2.176  0.00  0.00    +0.218 C 
ATOM     26  O   UNL     1       4.249  -7.627  -1.215  0.00  0.00    -0.275 OA
ATOM     27  N   UNL     1       4.874  -7.731  -3.341  0.00  0.00    -0.314 N 
ATOM     28  H   UNL     1       5.262  -7.284  -4.109  0.00  0.00    +0.149 HD
BRANCH  27  29
ATOM     29  C   UNL     1       4.438  -9.126  -3.447  0.00  0.00    +0.059 C 
ATOM     30  C   UNL     1       5.557 -10.051  -2.965  0.00  0.00    -0.056 C 
ATOM     31  N   UNL     1       5.967 -10.949  -4.047  0.00  0.00    +0.381 N 
ATOM     32  C   UNL     1       4.847 -11.796  -4.465  0.00  0.00    -0.078 C 
ATOM     33  C   UNL     1       3.704 -10.929  -4.997  0.00  0.00    -0.014 C 
ATOM     34  C   UNL     1       4.117  -9.454  -4.912  0.00  0.00    +0.004 C 
ATOM     35  C   UNL     1       5.394  -9.263  -5.741  0.00  0.00    -0.014 C 
ATOM     36  C   UNL     1       6.487 -10.185  -5.183  0.00  0.00    -0.078 C 
ATOM     37  H   UNL     1       6.701 -11.550  -3.703  0.00  0.00    -0.082 HD
ENDBRANCH  27  29
ENDBRANCH   5  25
TORSDOF 3
