REMARK  Name = ZINC58456720
REMARK  4 active torsions:
REMARK  status: ('A' for Active; 'I' for Inactive)
REMARK    1  A    between atoms: C_3  and  C_12
REMARK    2  A    between atoms: C_5  and  O_7
REMARK    3  A    between atoms: O_7  and  C_8
REMARK    4  A    between atoms: C_8  and  C_9
REMARK                            x       y       z     vdW  Elec       q    Type
REMARK                         _______ _______ _______ _____ _____    ______ ____
ROOT
ATOM      1  C   UNL     1       0.176   1.149   0.960  0.00  0.00    +0.004 A 
ATOM      2  C   UNL     1       1.360   1.854   0.893  0.00  0.00    +0.013 A 
ATOM      3  C   UNL     1       2.386   1.416   0.053  0.00  0.00    +0.041 A 
ATOM      4  C   UNL     1       2.208   0.265  -0.715  0.00  0.00    +0.058 A 
ATOM      5  C   UNL     1       1.016  -0.435  -0.639  0.00  0.00    +0.122 A 
ATOM      6  C   UNL     1       0.001   0.009   0.198  0.00  0.00    +0.046 A 
ENDROOT
BRANCH   3   7
ATOM      7  C   UNL     1       3.656   2.169  -0.022  0.00  0.00    +0.251 C 
ATOM      8  O   UNL     1       4.717   1.575   0.002  0.00  0.00    -0.270 OA
ATOM      9  N   UNL     1       3.638   3.513  -0.117  0.00  0.00    -0.267 N 
ATOM     10  C   UNL     1       2.364   4.246  -0.096  0.00  0.00    +0.114 C 
ATOM     11  C   UNL     1       2.416   5.306  -1.204  0.00  0.00    +0.024 C 
ATOM     12  C   UNL     1       3.533   6.299  -0.887  0.00  0.00    +0.038 C 
ATOM     13  C   UNL     1       4.821   5.571  -0.606  0.00  0.00    -0.025 A 
ATOM     14  C   UNL     1       4.833   4.236  -0.231  0.00  0.00    +0.040 A 
ATOM     15  C   UNL     1       6.038   3.595   0.032  0.00  0.00    +0.025 A 
ATOM     16  C   UNL     1       7.228   4.288  -0.078  0.00  0.00    +0.022 A 
ATOM     17  C   UNL     1       7.218   5.621  -0.450  0.00  0.00    +0.041 A 
ATOM     18  C   UNL     1       6.018   6.259  -0.721  0.00  0.00    +0.025 A 
ATOM     19 CL   UNL     1       8.713   6.492  -0.589  0.00  0.00    -0.084 Cl
ENDBRANCH   3   7
BRANCH   5  20
ATOM     20  O   UNL     1       0.838  -1.557  -1.386  0.00  0.00    -0.483 OA
BRANCH  20  21
ATOM     21  C   UNL     1      -0.416  -2.229  -1.259  0.00  0.00    +0.324 C 
BRANCH  21  22
ATOM     22  C   UNL     1      -0.430  -3.441  -2.155  0.00  0.00    +0.248 C 
ATOM     23  O   UNL     1       0.539  -3.704  -2.835  0.00  0.00    -0.272 OA
ATOM     24  N   UNL     1      -1.519  -4.233  -2.200  0.00  0.00    -0.327 N 
ATOM     25  H   UNL     1      -2.295  -4.024  -1.656  0.00  0.00    +0.145 HD
ATOM     26  H   UNL     1      -1.528  -5.013  -2.776  0.00  0.00    +0.145 HD
ENDBRANCH  21  22
ENDBRANCH  20  21
ENDBRANCH   5  20
TORSDOF 4
