REMARK  Name = ZINC40254712
REMARK  4 active torsions:
REMARK  status: ('A' for Active; 'I' for Inactive)
REMARK    1  A    between atoms: C_6  and  C_7
REMARK    2  A    between atoms: C_7  and  C_9
REMARK    3  A    between atoms: C_7  and  O_17
REMARK    4  A    between atoms: C_12  and  N_14
REMARK                            x       y       z     vdW  Elec       q    Type
REMARK                         _______ _______ _______ _____ _____    ______ ____
ROOT
ATOM      1  C   UNL     1      -1.293  -0.774   0.010  0.00  0.00    +0.210 C 
ENDROOT
BRANCH   1   7
ATOM      2  C   UNL     1      -0.017   1.378   0.010  0.00  0.00    +0.009 A 
ATOM      3  C   UNL     1       1.170   2.087   0.002  0.00  0.00    +0.041 A 
ATOM      4  C   UNL     1       2.379   1.413  -0.013  0.00  0.00    +0.158 A 
ATOM      5  C   UNL     1       2.397   0.026  -0.021  0.00  0.00    +0.159 A 
ATOM      6  C   UNL     1       1.208  -0.680  -0.013  0.00  0.00    +0.048 A 
ATOM      7  C   UNL     1       0.002  -0.004   0.002  0.00  0.00    -0.009 A 
ATOM      8  F   UNL     1       3.576  -0.634  -0.036  0.00  0.00    -0.202 F 
ATOM      9  F   UNL     1       3.539   2.105  -0.021  0.00  0.00    -0.202 F 
ENDBRANCH   1   7
BRANCH   1  10
ATOM     10  C   UNL     1      -1.648  -1.145   1.427  0.00  0.00    +0.141 A 
ATOM     11  C   UNL     1      -2.540  -0.509   2.207  0.00  0.00    +0.050 A 
ATOM     12  C   UNL     1      -2.558  -1.187   3.447  0.00  0.00    +0.076 A 
ATOM     13  C   UNL     1      -1.675  -2.197   3.351  0.00  0.00    +0.280 A 
ATOM     14  O   UNL     1      -1.131  -2.171   2.124  0.00  0.00    -0.436 OA
BRANCH  13  15
ATOM     15  N   UNL     1      -1.361  -3.177   4.416  0.00  0.00    +0.093 N 
ATOM     16  O   UNL     1      -1.919  -3.106   5.486  0.00  0.00    -0.123 OA
ATOM     17  O   UNL     1      -0.546  -4.047   4.216  0.00  0.00    -0.123 OA
ENDBRANCH  13  15
ENDBRANCH   1  10
BRANCH   1  18
ATOM     18  O   UNL     1      -1.146  -1.962  -0.770  0.00  0.00    -0.379 OA
ATOM     19  H   UNL     1      -0.456  -2.560  -0.451  0.00  0.00    +0.211 HD
ENDBRANCH   1  18
TORSDOF 4
