REMARK  Name = ZINC08835232
REMARK  7 active torsions:
REMARK  status: ('A' for Active; 'I' for Inactive)
REMARK    1  A    between atoms: C_1  and  O_2
REMARK    2  A    between atoms: O_2  and  C_3
REMARK    3  A    between atoms: C_4  and  C_11
REMARK    4  A    between atoms: N_13  and  C_14
REMARK    5  A    between atoms: C_14  and  N_16
REMARK    6  A    between atoms: N_16  and  C_17
REMARK    7  A    between atoms: C_20  and  N_24
REMARK                            x       y       z     vdW  Elec       q    Type
REMARK                         _______ _______ _______ _____ _____    ______ ____
ROOT
ATOM      1  C   UNL     1      -1.095   2.038   0.499  0.00  0.00    +0.253 C 
ATOM      2  O   UNL     1      -2.120   1.432   0.739  0.00  0.00    -0.270 OA
ATOM      3  N   UNL     1       0.043   1.362   0.241  0.00  0.00    -0.263 N 
ATOM      4  H   UNL     1       0.860   1.845   0.045  0.00  0.00    +0.157 HD
ENDROOT
BRANCH   1   6
ATOM      5  C   UNL     1      -2.276   4.219   0.750  0.00  0.00    +0.150 A 
ATOM      6  C   UNL     1      -1.094   3.512   0.488  0.00  0.00    +0.081 A 
ATOM      7  C   UNL     1       0.083   4.213   0.212  0.00  0.00    +0.036 A 
ATOM      8  C   UNL     1       0.077   5.592   0.204  0.00  0.00    +0.043 A 
ATOM      9  C   UNL     1      -1.092   6.287   0.469  0.00  0.00    +0.043 A 
ATOM     10  C   UNL     1      -2.263   5.607   0.744  0.00  0.00    +0.085 A 
ATOM     11 CL   UNL     1      -3.722   6.489   1.074  0.00  0.00    -0.080 Cl
ATOM     12 CL   UNL     1       1.540   6.460  -0.140  0.00  0.00    -0.083 Cl
BRANCH   5  14
ATOM     13  C   UNL     1      -3.696   3.238   2.382  0.00  0.00    +0.277 C 
ATOM     14  O   UNL     1      -3.426   3.549   1.014  0.00  0.00    -0.493 OA
ENDBRANCH   5  14
ENDBRANCH   1   6
BRANCH   3  15
ATOM     15  C   UNL     1       0.042   0.014   0.250  0.00  0.00    +0.141 C 
ATOM     16  S   UNL     1      -1.401  -0.839   0.596  0.00  0.00    -0.018 S 
BRANCH  15  17
ATOM     17  N   UNL     1       1.178  -0.662  -0.013  0.00  0.00    -0.296 N 
ATOM     18  H   UNL     1       1.980  -0.181  -0.270  0.00  0.00    +0.154 HD
BRANCH  17  19
ATOM     19  C   UNL     1       1.200  -2.058   0.085  0.00  0.00    +0.047 A 
ATOM     20  C   UNL     1       0.193  -2.812  -0.501  0.00  0.00    +0.026 A 
ATOM     21  C   UNL     1       0.218  -4.190  -0.403  0.00  0.00    +0.034 A 
ATOM     22  C   UNL     1       1.245  -4.818   0.278  0.00  0.00    +0.127 A 
ATOM     23  C   UNL     1       2.250  -4.070   0.862  0.00  0.00    +0.049 A 
ATOM     24  C   UNL     1       2.234  -2.692   0.764  0.00  0.00    +0.041 A 
ATOM     25 BR   UNL     1       3.613  -1.669   1.557  0.00  0.00    -0.048 Br
BRANCH  22  26
ATOM     26  N   UNL     1       1.269  -6.295   0.380  0.00  0.00    +0.056 N 
ATOM     27  O   UNL     1       0.384  -6.955  -0.135  0.00  0.00    -0.126 OA
ATOM     28  O   UNL     1       2.173  -6.849   0.978  0.00  0.00    -0.126 OA
ENDBRANCH  22  26
ENDBRANCH  17  19
ENDBRANCH  15  17
ENDBRANCH   3  15
TORSDOF 6
