REMARK  Name = ZINC37566409
REMARK  4 active torsions:
REMARK  status: ('A' for Active; 'I' for Inactive)
REMARK    1  A    between atoms: C_8  and  C_10
REMARK    2  A    between atoms: C_10  and  N_11
REMARK    3  A    between atoms: N_11  and  C_12
REMARK    4  A    between atoms: C_17  and  N_18
REMARK                            x       y       z     vdW  Elec       q    Type
REMARK                         _______ _______ _______ _____ _____    ______ ____
ROOT
ATOM      1  N   UNL     1       5.167  -0.301   1.291  0.00  0.00    -0.341 N 
ATOM      2  H   UNL     1       5.372   0.211   0.493  0.00  0.00    +0.146 HD
ENDROOT
BRANCH   1   3
ATOM      3  C   UNL     1       6.171  -0.577   2.221  0.00  0.00    +0.058 A 
ATOM      4  C   UNL     1       5.856  -1.204   3.421  0.00  0.00    +0.025 A 
ATOM      5  C   UNL     1       6.851  -1.475   4.338  0.00  0.00    +0.002 A 
ATOM      6  C   UNL     1       8.161  -1.125   4.065  0.00  0.00    +0.002 A 
ATOM      7  C   UNL     1       8.478  -0.501   2.872  0.00  0.00    +0.034 A 
ATOM      8  C   UNL     1       7.488  -0.231   1.947  0.00  0.00    +0.147 A 
BRANCH   8   9
ATOM      9  N   UNL     1       7.829   0.431   0.669  0.00  0.00    +0.058 N 
ATOM     10  O   UNL     1       7.266   0.106  -0.350  0.00  0.00    -0.126 OA
ATOM     11  O   UNL     1       8.672   1.298   0.643  0.00  0.00    -0.126 OA
ENDBRANCH   8   9
ENDBRANCH   1   3
BRANCH   1  12
ATOM     12  C   UNL     1       3.803  -0.785   1.519  0.00  0.00    +0.110 C 
BRANCH  12  20
ATOM     13  C   UNL     1       0.235   2.776   0.868  0.00  0.00    +0.000 A 
ATOM     14  C   UNL     1       1.521   3.275   0.782  0.00  0.00    +0.000 A 
ATOM     15  C   UNL     1       2.583   2.408   0.610  0.00  0.00    +0.004 A 
ATOM     16  C   UNL     1       2.360   1.046   0.523  0.00  0.00    -0.039 A 
ATOM     17  C   UNL     1       1.075   0.540   0.609  0.00  0.00    -0.043 A 
ATOM     18  C   UNL     1       0.011   1.417   0.782  0.00  0.00    +0.004 A 
ATOM     19  C   UNL     1       1.486  -0.909   0.454  0.00  0.00    +0.045 C 
ATOM     20  C   UNL     1       2.906  -0.349   0.359  0.00  0.00    +0.041 C 
ENDBRANCH  12  20
ENDBRANCH   1  12
TORSDOF 4
