REMARK  Name = ZINC40267271
REMARK  3 active torsions:
REMARK  status: ('A' for Active; 'I' for Inactive)
REMARK    1  A    between atoms: C_4  and  C_7
REMARK    2  A    between atoms: C_7  and  C_9
REMARK    3  A    between atoms: C_9  and  N_10
REMARK                            x       y       z     vdW  Elec       q    Type
REMARK                         _______ _______ _______ _____ _____    ______ ____
ROOT
ATOM      1  N   UNL     1       5.105  -2.652  -0.063  0.00  0.00    -0.278 N 
ATOM      2  C   UNL     1       5.746  -2.858  -1.246  0.00  0.00    +0.096 A 
ATOM      3  C   UNL     1       7.068  -3.300  -1.291  0.00  0.00    +0.049 A 
ATOM      4  C   UNL     1       7.643  -3.485  -2.635  0.00  0.00    -0.025 A 
ATOM      5  C   UNL     1       6.846  -3.208  -3.679  0.00  0.00    -0.004 A 
ATOM      6  S   UNL     1       5.304  -2.698  -2.955  0.00  0.00    -0.075 S 
ATOM      7  C   UNL     1       7.540  -3.426  -4.997  0.00  0.00    +0.043 C 
ATOM      8  C   UNL     1       9.042  -3.473  -4.641  0.00  0.00    +0.010 C 
ATOM      9  C   UNL     1       9.002  -3.942  -3.173  0.00  0.00    +0.037 C 
ATOM     10  C   UNL     1       7.697  -3.519  -0.024  0.00  0.00    +0.132 A 
ATOM     11  N   UNL     1       7.024  -3.301   1.092  0.00  0.00    -0.178 NA
ATOM     12  C   UNL     1       5.763  -2.874   1.095  0.00  0.00    +0.351 A 
ATOM     13  O   UNL     1       5.193  -2.685   2.157  0.00  0.00    -0.244 OA
ATOM     14  N   UNL     1       8.998  -3.955   0.032  0.00  0.00    -0.342 N 
ATOM     15  H   UNL     1       9.492  -4.115  -0.788  0.00  0.00    +0.144 HD
ATOM     16  H   UNL     1       9.424  -4.103   0.891  0.00  0.00    +0.144 HD
ENDROOT
BRANCH   1  17
ATOM     17  C   UNL     1       3.716  -2.186  -0.046  0.00  0.00    +0.207 C 
BRANCH  17  18
ATOM     18  C   UNL     1       3.691  -0.679  -0.038  0.00  0.00    +0.183 C 
ATOM     19  O   UNL     1       4.731  -0.056  -0.045  0.00  0.00    -0.290 OA
BRANCH  18  23
ATOM     20  C   UNL     1      -0.017   1.380   0.010  0.00  0.00    +0.000 A 
ATOM     21  C   UNL     1       1.168   2.095   0.002  0.00  0.00    +0.001 A 
ATOM     22  C   UNL     1       2.377   1.433  -0.013  0.00  0.00    +0.011 A 
ATOM     23  C   UNL     1       2.405   0.035  -0.021  0.00  0.00    +0.019 A 
ATOM     24  C   UNL     1       1.203  -0.681  -0.013  0.00  0.00    +0.011 A 
ATOM     25  C   UNL     1       0.002  -0.004   0.002  0.00  0.00    +0.001 A 
ENDBRANCH  18  23
ENDBRANCH  17  18
ENDBRANCH   1  17
TORSDOF 3
