REMARK  Name = ZINC20094964
REMARK  3 active torsions:
REMARK  status: ('A' for Active; 'I' for Inactive)
REMARK    1  A    between atoms: C_1  and  C_2
REMARK    2  A    between atoms: C_3  and  C_19
REMARK    3  A    between atoms: C_4  and  N_18
REMARK                            x       y       z     vdW  Elec       q    Type
REMARK                         _______ _______ _______ _____ _____    ______ ____
ROOT
ATOM      1  C   UNL     1      -0.018   1.503   0.010  0.00  0.00    +0.046 C 
ATOM      2  C   UNL     1       0.002  -0.004   0.002  0.00  0.00    -0.017 A 
ATOM      3  C   UNL     1       0.006  -0.721  -1.201  0.00  0.00    +0.095 A 
ATOM      4  C   UNL     1       0.037  -2.128  -1.158  0.00  0.00    +0.135 A 
ATOM      5  N   UNL     1      -0.009  -2.774  -0.003  0.00  0.00    -0.224 NA
ATOM      6  C   UNL     1      -0.051  -2.124   1.153  0.00  0.00    +0.114 A 
ATOM      7  C   UNL     1       0.023  -0.730   1.191  0.00  0.00    +0.049 A 
ATOM      8  C   UNL     1       0.197  -0.041   2.481  0.00  0.00    +0.104 C 
ATOM      9  N   UNL     1       1.350  -0.194   3.193  0.00  0.00    -0.300 N 
ATOM     10  C   UNL     1       1.780  -1.395   3.775  0.00  0.00    +0.046 A 
ATOM     11  C   UNL     1       2.902  -1.248   4.603  0.00  0.00    +0.024 A 
ATOM     12  C   UNL     1       3.470  -2.327   5.240  0.00  0.00    +0.002 A 
ATOM     13  C   UNL     1       2.928  -3.587   5.060  0.00  0.00    +0.001 A 
ATOM     14  C   UNL     1       1.822  -3.741   4.256  0.00  0.00    +0.017 A 
ATOM     15  C   UNL     1       1.226  -2.647   3.612  0.00  0.00    +0.035 A 
ATOM     16  S   UNL     1      -0.220  -3.005   2.663  0.00  0.00    -0.067 S 
ATOM     17  N   UNL     1      -0.756   0.719   2.944  0.00  0.00    -0.386 N 
ATOM     18  H   UNL     1      -1.577   0.830   2.439  0.00  0.00    +0.157 HD
ATOM     19  H   UNL     1      -0.644   1.174   3.793  0.00  0.00    +0.157 HD
ATOM     20  H   UNL     1       1.915   0.586   3.304  0.00  0.00    +0.154 HD
ENDROOT
BRANCH   4  21
ATOM     21  N   UNL     1       0.117  -2.844  -2.336  0.00  0.00    -0.342 N 
ATOM     22  H   UNL     1       0.151  -2.377  -3.186  0.00  0.00    +0.144 HD
ATOM     23  H   UNL     1       0.139  -3.813  -2.314  0.00  0.00    +0.144 HD
ENDBRANCH   4  21
BRANCH   3  24
ATOM     24  C   UNL     1      -0.021  -0.032  -2.457  0.00  0.00    +0.103 C 
ATOM     25  N   UNL     1      -0.043   0.513  -3.453  0.00  0.00    -0.191 NA
ENDBRANCH   3  24
TORSDOF 2
