REMARK  Name = ZINC36268863
REMARK  4 active torsions:
REMARK  status: ('A' for Active; 'I' for Inactive)
REMARK    1  A    between atoms: C_4  and  S_18
REMARK    2  A    between atoms: C_5  and  N_7
REMARK    3  A    between atoms: N_7  and  C_8
REMARK    4  A    between atoms: S_18  and  N_21
REMARK                            x       y       z     vdW  Elec       q    Type
REMARK                         _______ _______ _______ _____ _____    ______ ____
ROOT
ATOM      1  N   UNL     1       1.238  -2.077  -0.021  0.00  0.00    -0.340 N 
ATOM      2  H   UNL     1       2.086  -2.549  -0.032  0.00  0.00    +0.146 HD
ENDROOT
BRANCH   1   3
ATOM      3  C   UNL     1      -0.019  -2.830  -0.012  0.00  0.00    +0.067 C 
ATOM      4  C   UNL     1      -0.535  -2.982  -1.446  0.00  0.00    +0.003 C 
ATOM      5  C   UNL     1      -1.826  -3.801  -1.439  0.00  0.00    -0.080 C 
ATOM      6  N   UNL     1      -1.556  -5.145  -0.909  0.00  0.00    +0.383 N 
ATOM      7  C   UNL     1      -1.062  -5.042   0.466  0.00  0.00    -0.067 C 
ATOM      8  C   UNL     1       0.221  -4.221   0.584  0.00  0.00    +0.010 C 
ATOM      9  C   UNL     1      -0.994  -6.390   1.196  0.00  0.00    -0.012 C 
ATOM     10  C   UNL     1      -1.516  -5.651   2.440  0.00  0.00    -0.003 C 
ATOM     11  C   UNL     1      -2.142  -4.629   1.475  0.00  0.00    -0.012 C 
ATOM     12  H   UNL     1      -2.407  -5.687  -0.921  0.00  0.00    -0.085 HD
ATOM     13  H   UNL     1      -0.861  -5.598  -1.483  0.00  0.00    -0.085 HD
ENDBRANCH   1   3
BRANCH   1  18
ATOM     14  C   UNL     1      -0.017   1.377   0.010  0.00  0.00    +0.002 A 
ATOM     15  C   UNL     1       1.171   2.086   0.002  0.00  0.00    +0.002 A 
ATOM     16  C   UNL     1       2.380   1.416  -0.013  0.00  0.00    +0.030 A 
ATOM     17  C   UNL     1       2.406   0.035  -0.021  0.00  0.00    +0.126 A 
ATOM     18  C   UNL     1       1.215  -0.681  -0.013  0.00  0.00    +0.054 A 
ATOM     19  C   UNL     1       0.002  -0.004   0.002  0.00  0.00    +0.025 A 
BRANCH  17  20
ATOM     20  S   UNL     1       3.947  -0.818  -0.042  0.00  0.00    +0.058 S 
ATOM     21  O   UNL     1       3.858  -1.793  -1.071  0.00  0.00    -0.153 OA
ATOM     22  O   UNL     1       4.962   0.176  -0.020  0.00  0.00    -0.153 OA
BRANCH  20  23
ATOM     23  N   UNL     1       4.067  -1.648   1.387  0.00  0.00    -0.203 NA
ATOM     24  H   UNL     1       3.351  -1.595   2.039  0.00  0.00    +0.144 HD
ATOM     25  H   UNL     1       4.852  -2.187   1.571  0.00  0.00    +0.144 HD
ENDBRANCH  20  23
ENDBRANCH  17  20
ENDBRANCH   1  18
TORSDOF 4
