REMARK  Name = ZINC61569591
REMARK  5 active torsions:
REMARK  status: ('A' for Active; 'I' for Inactive)
REMARK    1  A    between atoms: C_1  and  C_2
REMARK    2  A    between atoms: C_2  and  C_3
REMARK    3  A    between atoms: C_3  and  C_4
REMARK    4  A    between atoms: C_4  and  C_6
REMARK    5  A    between atoms: C_4  and  C_7
REMARK                            x       y       z     vdW  Elec       q    Type
REMARK                         _______ _______ _______ _____ _____    ______ ____
ROOT
ATOM      1  C   UNL     1       1.343  -2.522  -2.581  0.00  0.00    +0.164 C 
ATOM      2  C   UNL     1       2.820  -2.190  -2.648  0.00  0.00    +0.241 C 
ATOM      3  O   UNL     1       3.325  -1.087  -2.628  0.00  0.00    -0.273 OA
ATOM      4  N   UNL     1       3.457  -3.374  -2.734  0.00  0.00    -0.239 N 
ATOM      5  C   UNL     1       2.596  -4.399  -2.731  0.00  0.00    +0.307 C 
ATOM      6  O   UNL     1       2.932  -5.564  -2.800  0.00  0.00    -0.252 OA
ATOM      7  N   UNL     1       1.312  -3.993  -2.645  0.00  0.00    -0.288 N 
ATOM      8  H   UNL     1       4.420  -3.473  -2.792  0.00  0.00    +0.159 HD
ATOM      9  H   UNL     1       0.524  -4.558  -2.627  0.00  0.00    +0.151 HD
ENDROOT
BRANCH   1  10
ATOM     10  C   UNL     1       0.739  -2.027  -1.265  0.00  0.00    +0.015 C 
ATOM     11  C   UNL     1       1.584  -2.532  -0.094  0.00  0.00    +0.010 C 
BRANCH  10  12
ATOM     12  C   UNL     1       0.718  -0.497  -1.257  0.00  0.00    +0.005 C 
BRANCH  12  14
ATOM     13  C   UNL     1      -0.019   1.526   0.010  0.00  0.00    +0.004 C 
ATOM     14  C   UNL     1       0.002  -0.004   0.002  0.00  0.00    -0.003 C 
ENDBRANCH  12  14
ENDBRANCH  10  12
ENDBRANCH   1  10
TORSDOF 3
