REMARK  Name = ZINC61564418
REMARK  4 active torsions:
REMARK  status: ('A' for Active; 'I' for Inactive)
REMARK    1  A    between atoms: C_2  and  C_18
REMARK    2  A    between atoms: C_3  and  N_9
REMARK    3  A    between atoms: C_10  and  C_12
REMARK    4  A    between atoms: C_12  and  N_17
REMARK                            x       y       z     vdW  Elec       q    Type
REMARK                         _______ _______ _______ _____ _____    ______ ____
ROOT
ATOM      1  N   UNL     1       3.581   2.054  -0.010  0.00  0.00    -0.286 N 
ATOM      2  C   UNL     1       4.736   1.367  -0.111  0.00  0.00    +0.206 C 
ATOM      3  O   UNL     1       4.714   0.168  -0.289  0.00  0.00    -0.277 OA
ATOM      4  H   UNL     1       3.597   3.022   0.056  0.00  0.00    +0.155 HD
ENDROOT
BRANCH   1   7
ATOM      5  C   UNL     1       0.017   1.254  -0.591  0.00  0.00    +0.058 A 
ATOM      6  C   UNL     1       1.234   1.946  -0.607  0.00  0.00    +0.087 A 
ATOM      7  C   UNL     1       2.365   1.376   0.000  0.00  0.00    +0.050 A 
ATOM      8  C   UNL     1       2.266   0.133   0.609  0.00  0.00    +0.065 A 
ATOM      9  C   UNL     1       1.058  -0.540   0.618  0.00  0.00    +0.160 A 
ATOM     10  C   UNL     1      -0.064   0.021   0.018  0.00  0.00    +0.159 A 
ATOM     11  F   UNL     1      -1.239  -0.645   0.033  0.00  0.00    -0.202 F 
ATOM     12  F   UNL     1       0.968  -1.750   1.212  0.00  0.00    -0.202 F 
BRANCH   6  13
ATOM     13  C   UNL     1       1.328   3.262  -1.256  0.00  0.00    +0.388 C 
ATOM     14  O   UNL     1       0.366   3.715  -1.862  0.00  0.00    -0.241 OA
ATOM     15  O   UNL     1       2.368   3.904  -1.189  0.00  0.00    -0.241 OA
ENDBRANCH   6  13
ENDBRANCH   1   7
BRANCH   2  16
ATOM     16  C   UNL     1       6.054   2.088  -0.002  0.00  0.00    +0.007 C 
ATOM     17  C   UNL     1       6.533   2.557  -1.399  0.00  0.00    -0.004 C 
ATOM     18  C   UNL     1       7.162   1.272  -1.993  0.00  0.00    -0.001 C 
ATOM     19  C   UNL     1       7.864   0.604  -0.792  0.00  0.00    -0.001 C 
ATOM     20  C   UNL     1       7.160   1.123   0.473  0.00  0.00    -0.004 C 
BRANCH  16  21
ATOM     21  N   UNL     1       5.940   3.231   0.915  0.00  0.00    +0.388 N 
ATOM     22  H   UNL     1       5.680   2.901   1.832  0.00  0.00    -0.089 HD
ATOM     23  H   UNL     1       6.827   3.709   0.968  0.00  0.00    -0.089 HD
ATOM     24  H   UNL     1       5.234   3.866   0.574  0.00  0.00    -0.089 HD
ENDBRANCH  16  21
ENDBRANCH   2  16
TORSDOF 4
