REMARK  Name = ZINC39665776
REMARK  11 active torsions:
REMARK  status: ('A' for Active; 'I' for Inactive)
REMARK    1  A    between atoms: C_1  and  C_2
REMARK    2  A    between atoms: C_2  and  C_4
REMARK    3  A    between atoms: C_2  and  O_29
REMARK    4  A    between atoms: C_4  and  N_5
REMARK    5  A    between atoms: C_6  and  C_8
REMARK    6  A    between atoms: C_19  and  C_21
REMARK    7  A    between atoms: C_25  and  O_26
REMARK    8  A    between atoms: O_26  and  C_27
REMARK    9  A    between atoms: O_29  and  C_30
REMARK   10  A    between atoms: C_33  and  O_36
REMARK   11  A    between atoms: O_36  and  C_37
REMARK                            x       y       z     vdW  Elec       q    Type
REMARK                         _______ _______ _______ _____ _____    ______ ____
ROOT
ATOM      1  C   UNL     1       0.810  -4.086  -2.062  0.00  0.00    +0.100 C 
ATOM      2  C   UNL     1       1.390  -4.643  -0.743  0.00  0.00    +0.121 C 
ATOM      3  N   UNL     1       2.026  -5.926  -1.125  0.00  0.00    -0.296 N 
ATOM      4  C   UNL     1       2.659  -5.647  -2.437  0.00  0.00    +0.115 C 
ATOM      5  C   UNL     1       1.646  -4.747  -3.171  0.00  0.00    -0.004 C 
ATOM      6  C   UNL     1       2.379  -3.685  -3.985  0.00  0.00    -0.010 C 
ATOM      7  C   UNL     1       3.157  -4.361  -5.117  0.00  0.00    -0.082 C 
ATOM      8  N   UNL     1       2.227  -5.108  -5.974  0.00  0.00    +0.379 N 
ATOM      9  C   UNL     1       1.596  -6.188  -5.206  0.00  0.00    -0.082 C 
ATOM     10  C   UNL     1       0.752  -5.588  -4.077  0.00  0.00    -0.010 C 
ATOM     11  C   UNL     1       2.027  -7.085  -0.437  0.00  0.00    +0.251 C 
ATOM     12  O   UNL     1       1.371  -7.187   0.583  0.00  0.00    -0.270 OA
ATOM     13  H   UNL     1       1.515  -4.482  -6.320  0.00  0.00    -0.086 HD
ATOM     14  H   UNL     1       2.732  -5.502  -6.753  0.00  0.00    -0.086 HD
ENDROOT
BRANCH  11  15
ATOM     15  C   UNL     1       2.821  -8.225  -0.918  0.00  0.00    +0.087 A 
ATOM     16  C   UNL     1       3.932  -8.046  -1.713  0.00  0.00    +0.063 A 
ATOM     17  S   UNL     1       4.491  -9.602  -2.000  0.00  0.00    -0.081 S 
ATOM     18  C   UNL     1       3.285 -10.541  -1.087  0.00  0.00    +0.120 A 
ATOM     19  C   UNL     1       2.476  -9.586  -0.575  0.00  0.00    +0.158 A 
ATOM     20 CL   UNL     1       3.178 -12.263  -0.895  0.00  0.00    -0.072 Cl
BRANCH  19  21
ATOM     21  O   UNL     1       1.404  -9.887   0.208  0.00  0.00    -0.492 OA
ATOM     22  C   UNL     1       0.157 -10.105  -0.455  0.00  0.00    +0.277 C 
ENDBRANCH  19  21
ENDBRANCH  11  15
BRANCH   1  24
ATOM     23  N   UNL     1       0.064  -1.840  -2.780  0.00  0.00    -0.312 N 
ATOM     24  C   UNL     1       0.964  -2.588  -2.112  0.00  0.00    +0.218 C 
ATOM     25  O   UNL     1       1.897  -2.055  -1.550  0.00  0.00    -0.275 OA
ATOM     26  H   UNL     1      -0.683  -2.266  -3.230  0.00  0.00    +0.149 HD
BRANCH  23  27
ATOM     27  C   UNL     1       0.213  -0.383  -2.829  0.00  0.00    +0.148 C 
BRANCH  27  29
ATOM     28  C   UNL     1      -0.710   1.726  -3.800  0.00  0.00    +0.053 C 
ATOM     29  C   UNL     1      -0.932   0.220  -3.644  0.00  0.00    +0.187 C 
BRANCH  29  30
ATOM     30  O   UNL     1      -2.171  -0.011  -2.969  0.00  0.00    -0.488 OA
BRANCH  30  31
ATOM     31  C   UNL     1      -3.296  -0.025  -3.732  0.00  0.00    +0.121 A 
ATOM     32  C   UNL     1      -4.541  -0.138  -3.130  0.00  0.00    +0.049 A 
ATOM     33  C   UNL     1      -5.684  -0.152  -3.905  0.00  0.00    +0.049 A 
ATOM     34  C   UNL     1      -5.588  -0.052  -5.285  0.00  0.00    +0.120 A 
ATOM     35  C   UNL     1      -4.343   0.063  -5.887  0.00  0.00    +0.049 A 
ATOM     36  C   UNL     1      -3.200   0.081  -5.112  0.00  0.00    +0.049 A 
BRANCH  34  37
ATOM     37  O   UNL     1      -6.713  -0.066  -6.048  0.00  0.00    -0.495 OA
ATOM     38  C   UNL     1      -6.540   0.041  -7.463  0.00  0.00    +0.277 C 
ENDBRANCH  34  37
ENDBRANCH  30  31
ENDBRANCH  29  30
ENDBRANCH  27  29
ENDBRANCH  23  27
ENDBRANCH   1  24
TORSDOF 8
