REMARK  Name = ZINC35442523
REMARK  10 active torsions:
REMARK  status: ('A' for Active; 'I' for Inactive)
REMARK    1  A    between atoms: C_1  and  C_2
REMARK    2  A    between atoms: C_2  and  N_3
REMARK    3  A    between atoms: N_3  and  C_4
REMARK    4  A    between atoms: C_4  and  C_5
REMARK    5  A    between atoms: C_6  and  C_8
REMARK    6  A    between atoms: C_8  and  C_9
REMARK    7  A    between atoms: C_9  and  C_10
REMARK    8  A    between atoms: N_20  and  C_21
REMARK    9  A    between atoms: N_24  and  C_25
REMARK   10  A    between atoms: C_25  and  C_26
REMARK                            x       y       z     vdW  Elec       q    Type
REMARK                         _______ _______ _______ _____ _____    ______ ____
ROOT
ATOM      1  C   UNL     1      -5.277  -1.968   2.594  0.00  0.00    -0.051 C 
ATOM      2  C   UNL     1      -5.810  -2.250   3.978  0.00  0.00    +0.089 C 
ATOM      3  N   UNL     1      -6.979  -3.106   3.930  0.00  0.00    -0.318 N 
ATOM      4  C   UNL     1      -7.927  -3.117   3.028  0.00  0.00    +0.198 C 
ATOM      5  O   UNL     1      -8.675  -4.065   3.142  0.00  0.00    -0.278 OA
ATOM      6  C   UNL     1      -8.286  -2.242   1.917  0.00  0.00    +0.006 C 
ATOM      7  C   UNL     1      -7.143  -1.706   1.048  0.00  0.00    -0.076 C 
ATOM      8  N   UNL     1      -6.107  -1.087   1.826  0.00  0.00    +0.382 N 
ATOM      9  C   UNL     1      -5.245  -0.322   0.915  0.00  0.00    -0.095 C 
ATOM     10  C   UNL     1      -7.858  -0.598   0.224  0.00  0.00    -0.035 C 
ATOM     11  C   UNL     1      -9.082  -0.202   1.073  0.00  0.00    -0.079 C 
ATOM     12  N   UNL     1      -9.041  -1.033   2.296  0.00  0.00    +0.389 N 
ATOM     13  H   UNL     1      -7.069  -3.748   4.652  0.00  0.00    +0.149 HD
ATOM     14  H   UNL     1      -8.569  -0.546   3.043  0.00  0.00    -0.080 HD
ATOM     15  H   UNL     1      -6.545  -0.435   2.459  0.00  0.00    -0.081 HD
ENDROOT
BRANCH   1  16
ATOM     16  C   UNL     1      -3.888  -1.340   2.724  0.00  0.00    -0.005 C 
BRANCH  16  17
ATOM     17  C   UNL     1      -2.977  -2.277   3.521  0.00  0.00    +0.094 C 
BRANCH  17  19
ATOM     18  N   UNL     1      -0.597  -2.384   4.184  0.00  0.00    -0.302 N 
ATOM     19  C   UNL     1      -1.576  -1.722   3.536  0.00  0.00    +0.215 C 
ATOM     20  O   UNL     1      -1.330  -0.681   2.966  0.00  0.00    -0.276 OA
BRANCH  18  22
ATOM     21  C   UNL     1       1.542  -2.390   2.998  0.00  0.00    +0.024 C 
ATOM     22  C   UNL     1       0.766  -1.845   4.199  0.00  0.00    +0.104 C 
ENDBRANCH  18  22
BRANCH  18  23
ATOM     23  C   UNL     1      -0.894  -3.642   4.873  0.00  0.00    +0.104 C 
ATOM     24  C   UNL     1      -1.300  -3.348   6.319  0.00  0.00    +0.024 C 
ENDBRANCH  18  23
ENDBRANCH  17  19
ENDBRANCH  16  17
ENDBRANCH   1  16
BRANCH  12  25
ATOM     25  C   UNL     1     -10.407  -1.391   2.701  0.00  0.00    -0.042 C 
BRANCH  25  26
ATOM     26  C   UNL     1     -11.121  -0.161   3.200  0.00  0.00    -0.063 A 
ATOM     27  C   UNL     1     -11.056   0.180   4.539  0.00  0.00    +0.002 A 
ATOM     28  C   UNL     1     -11.711   1.307   4.998  0.00  0.00    +0.002 A 
ATOM     29  C   UNL     1     -12.431   2.095   4.119  0.00  0.00    +0.020 A 
ATOM     30  C   UNL     1     -12.496   1.754   2.780  0.00  0.00    +0.041 A 
ATOM     31  C   UNL     1     -11.836   0.628   2.320  0.00  0.00    +0.021 A 
ATOM     32 CL   UNL     1     -13.401   2.742   1.675  0.00  0.00    -0.084 Cl
ENDBRANCH  25  26
ENDBRANCH  12  25
TORSDOF 7
