REMARK  Name = ZINC57347268
REMARK  5 active torsions:
REMARK  status: ('A' for Active; 'I' for Inactive)
REMARK    1  A    between atoms: C_1  and  O_2
REMARK    2  A    between atoms: O_2  and  C_3
REMARK    3  A    between atoms: C_3  and  C_5
REMARK    4  A    between atoms: C_8  and  O_19
REMARK    5  A    between atoms: C_14  and  N_17
REMARK                            x       y       z     vdW  Elec       q    Type
REMARK                         _______ _______ _______ _____ _____    ______ ____
ROOT
ATOM      1  C   UNL     1      -1.244  -2.135   0.003  0.00  0.00    +0.284 C 
ATOM      2  C   UNL     1      -0.653  -2.682   1.309  0.00  0.00    +0.092 C 
ATOM      3  C   UNL     1      -0.628  -4.210   1.222  0.00  0.00    +0.152 C 
ATOM      4  C   UNL     1      -1.968  -4.715   0.751  0.00  0.00    +0.027 A 
ATOM      5  C   UNL     1      -2.289  -6.048   0.959  0.00  0.00    +0.048 A 
ATOM      6  C   UNL     1      -3.506  -6.550   0.538  0.00  0.00    +0.126 A 
ATOM      7  C   UNL     1      -4.415  -5.720  -0.096  0.00  0.00    +0.064 A 
ATOM      8  C   UNL     1      -4.101  -4.387  -0.306  0.00  0.00    +0.070 A 
ATOM      9  C   UNL     1      -2.871  -3.880   0.122  0.00  0.00    +0.148 A 
ATOM     10  O   UNL     1      -2.603  -2.564  -0.092  0.00  0.00    -0.475 OA
ATOM     11  F   UNL     1      -3.809  -7.850   0.746  0.00  0.00    -0.205 F 
ENDROOT
BRANCH   8  12
ATOM     12  N   UNL     1      -5.018  -3.546  -0.947  0.00  0.00    -0.355 N 
ATOM     13  H   UNL     1      -5.872  -3.897  -1.245  0.00  0.00    +0.142 HD
ATOM     14  H   UNL     1      -4.799  -2.613  -1.095  0.00  0.00    +0.142 HD
ENDBRANCH   8  12
BRANCH   1  15
ATOM     15  C   UNL     1      -1.185  -0.630   0.010  0.00  0.00    +0.348 C 
ATOM     16  O   UNL     1      -2.208   0.015   0.023  0.00  0.00    -0.247 OA
BRANCH  15  18
ATOM     17  C   UNL     1      -0.017   1.425   0.010  0.00  0.00    +0.280 C 
ATOM     18  O   UNL     1       0.002  -0.004   0.002  0.00  0.00    -0.465 OA
ENDBRANCH  15  18
ENDBRANCH   1  15
BRANCH   3  19
ATOM     19  O   UNL     1      -0.343  -4.755   2.512  0.00  0.00    -0.387 OA
ATOM     20  H   UNL     1      -0.311  -5.721   2.533  0.00  0.00    +0.210 HD
ENDBRANCH   3  19
TORSDOF 4
