REMARK  Name = ZINC22671006
REMARK  6 active torsions:
REMARK  status: ('A' for Active; 'I' for Inactive)
REMARK    1  A    between atoms: C_4  and  N_23
REMARK    2  A    between atoms: C_6  and  C_7
REMARK    3  A    between atoms: C_7  and  O_9
REMARK    4  A    between atoms: O_9  and  C_10
REMARK    5  A    between atoms: C_10  and  C_11
REMARK    6  A    between atoms: N_13  and  C_14
REMARK                            x       y       z     vdW  Elec       q    Type
REMARK                         _______ _______ _______ _____ _____    ______ ____
ROOT
ATOM      1  C   UNL     1       3.677   5.920  -0.507  0.00  0.00    +0.328 C 
ENDROOT
BRANCH   1   2
ATOM      2  C   UNL     1       2.370   5.180  -0.392  0.00  0.00    +0.255 C 
ATOM      3  O   UNL     1       1.328   5.744  -0.651  0.00  0.00    -0.272 OA
ATOM      4  N   UNL     1       2.358   3.890   0.001  0.00  0.00    -0.280 N 
ATOM      5  H   UNL     1       3.292   3.403   0.315  0.00  0.00    +0.155 HD
BRANCH   4   6
ATOM      6  C   UNL     1       1.156   3.172   0.008  0.00  0.00    +0.071 A 
ATOM      7  C   UNL     1       0.748   2.486  -1.129  0.00  0.00    +0.065 A 
ATOM      8  C   UNL     1      -0.439   1.777  -1.118  0.00  0.00    +0.042 A 
ATOM      9  C   UNL     1      -1.223   1.755   0.021  0.00  0.00    +0.044 A 
ATOM     10  C   UNL     1      -0.817   2.433   1.157  0.00  0.00    +0.042 A 
ATOM     11  C   UNL     1       0.369   3.143   1.153  0.00  0.00    +0.065 A 
ATOM     12 CL   UNL     1       0.875   3.999   2.576  0.00  0.00    -0.082 Cl
ATOM     13 CL   UNL     1      -2.716   0.870   0.028  0.00  0.00    -0.083 Cl
ATOM     14 CL   UNL     1       1.728   2.518  -2.561  0.00  0.00    -0.082 Cl
ENDBRANCH   4   6
ENDBRANCH   1   2
BRANCH   1  15
ATOM     15  O   UNL     1       3.425   7.282  -0.944  0.00  0.00    -0.452 OA
BRANCH  15  16
ATOM     16  C   UNL     1       4.497   8.083  -1.098  0.00  0.00    +0.340 C 
ATOM     17  O   UNL     1       5.612   7.656  -0.874  0.00  0.00    -0.245 OA
BRANCH  16  23
ATOM     18  C   UNL     1       3.038   9.973  -1.804  0.00  0.00    +0.016 A 
ATOM     19  C   UNL     1       2.876  11.281  -2.211  0.00  0.00    +0.018 A 
ATOM     20  C   UNL     1       3.980  12.102  -2.368  0.00  0.00    +0.048 A 
ATOM     21  C   UNL     1       5.252  11.617  -2.113  0.00  0.00    +0.141 A 
ATOM     22  C   UNL     1       5.427  10.314  -1.700  0.00  0.00    +0.048 A 
ATOM     23  C   UNL     1       4.317   9.481  -1.540  0.00  0.00    +0.061 A 
ATOM     24 BR   UNL     1       3.749  13.891  -2.934  0.00  0.00    -0.048 Br
BRANCH  21  25
ATOM     25  N   UNL     1       6.427  12.502  -2.284  0.00  0.00    +0.058 N 
ATOM     26  O   UNL     1       7.546  12.077  -2.060  0.00  0.00    -0.126 OA
ATOM     27  O   UNL     1       6.274  13.654  -2.649  0.00  0.00    -0.126 OA
ENDBRANCH  21  25
ENDBRANCH  16  23
ENDBRANCH  15  16
ENDBRANCH   1  15
TORSDOF 6
