REMARK  Name = ZINC38556404
REMARK  9 active torsions:
REMARK  status: ('A' for Active; 'I' for Inactive)
REMARK    1  A    between atoms: C_1  and  C_2
REMARK    2  A    between atoms: C_2  and  C_3
REMARK    3  A    between atoms: C_2  and  C_4
REMARK    4  A    between atoms: C_2  and  C_5
REMARK    5  A    between atoms: C_5  and  C_7
REMARK    6  A    between atoms: C_7  and  S_8
REMARK    7  A    between atoms: S_8  and  C_9
REMARK    8  A    between atoms: C_12  and  C_16
REMARK    9  A    between atoms: N_14  and  N_15
REMARK                            x       y       z     vdW  Elec       q    Type
REMARK                         _______ _______ _______ _____ _____    ______ ____
ROOT
ATOM      1  C   UNL     1       1.848  -3.983  -3.192  0.00  0.00    +0.189 C 
ATOM      2  N   UNL     1       1.362  -4.808  -2.328  0.00  0.00    -0.161 NA
ATOM      3  N   UNL     1       1.590  -6.138  -2.704  0.00  0.00    -0.243 N 
ATOM      4  C   UNL     1       2.320  -6.083  -3.983  0.00  0.00    +0.222 C 
ATOM      5  N   UNL     1       2.454  -4.642  -4.252  0.00  0.00    -0.223 N 
ATOM      6  H   UNL     1       1.321  -6.934  -2.220  0.00  0.00    +0.170 HD
ENDROOT
BRANCH   4   7
ATOM      7  C   UNL     1       1.512  -6.762  -5.091  0.00  0.00    +0.197 C 
ATOM      8  C   UNL     1       1.233  -8.210  -4.742  0.00  0.00    -0.017 C 
ATOM      9  C   UNL     1       1.831  -8.912  -5.702  0.00  0.00    +0.065 C 
ATOM     10  C   UNL     1       1.619 -10.396  -5.462  0.00  0.00    +0.057 C 
ATOM     11  C   UNL     1       1.173 -10.506  -3.987  0.00  0.00    +0.011 C 
ATOM     12  C   UNL     1       0.554  -9.111  -3.744  0.00  0.00    +0.035 C 
ATOM     13  N   UNL     1       2.435  -8.070  -6.584  0.00  0.00    -0.158 NA
ATOM     14  N   UNL     1       2.309  -6.869  -6.326  0.00  0.00    -0.176 NA
ENDBRANCH   4   7
BRANCH   5  15
ATOM     15  N   UNL     1       3.058  -4.066  -5.333  0.00  0.00    -0.250 NA
ATOM     16  H   UNL     1       3.016  -3.059  -5.277  0.00  0.00    +0.141 HD
ATOM     17  H   UNL     1       4.011  -4.383  -5.427  0.00  0.00    +0.141 HD
ENDBRANCH   5  15
BRANCH   1  18
ATOM     18  S   UNL     1       1.748  -2.230  -3.048  0.00  0.00    -0.080 S 
BRANCH  18  19
ATOM     19  C   UNL     1       0.863  -1.968  -1.486  0.00  0.00    +0.152 C 
BRANCH  19  20
ATOM     20  C   UNL     1       0.707  -0.490  -1.238  0.00  0.00    +0.149 C 
ATOM     21  O   UNL     1       1.148   0.305  -2.033  0.00  0.00    -0.296 OA
BRANCH  20  23
ATOM     22  C   UNL     1      -0.019   1.526   0.010  0.00  0.00    +0.018 C 
ATOM     23  C   UNL     1       0.002  -0.004   0.002  0.00  0.00    +0.021 C 
ATOM     24  C   UNL     1       0.742  -0.511   1.242  0.00  0.00    +0.018 C 
ATOM     25  C   UNL     1      -1.433  -0.534   0.013  0.00  0.00    +0.018 C 
ENDBRANCH  20  23
ENDBRANCH  19  20
ENDBRANCH  18  19
ENDBRANCH   1  18
TORSDOF 6
