REMARK  Name = ZINC39533674
REMARK  8 active torsions:
REMARK  status: ('A' for Active; 'I' for Inactive)
REMARK    1  A    between atoms: C_1  and  O_2
REMARK    2  A    between atoms: O_2  and  C_3
REMARK    3  A    between atoms: N_6  and  C_10
REMARK    4  A    between atoms: C_10  and  C_12
REMARK    5  A    between atoms: C_10  and  C_15
REMARK    6  A    between atoms: C_12  and  N_13
REMARK    7  A    between atoms: N_13  and  O_14
REMARK    8  A    between atoms: C_18  and  C_21
REMARK                            x       y       z     vdW  Elec       q    Type
REMARK                         _______ _______ _______ _____ _____    ______ ____
ROOT
ATOM      1  C   UNL     1       0.629  -4.063  -2.511  0.00  0.00    -0.021 C 
ENDROOT
BRANCH   1   4
ATOM      2  C   UNL     1       0.885  -0.346  -2.056  0.00  0.00    +0.169 C 
ATOM      3  C   UNL     1       0.515  -1.796  -1.736  0.00  0.00    -0.030 C 
ATOM      4  N   UNL     1       0.999  -2.674  -2.810  0.00  0.00    +0.388 N 
ATOM      5  C   UNL     1       2.461  -2.568  -2.909  0.00  0.00    -0.062 C 
ATOM      6  C   UNL     1       2.847  -1.124  -3.239  0.00  0.00    +0.065 C 
ATOM      7  N   UNL     1       2.344  -0.232  -2.185  0.00  0.00    -0.295 NA
ATOM      8  H   UNL     1       2.618   0.723  -2.358  0.00  0.00    +0.124 HD
ATOM      9  H   UNL     1       0.582  -2.395  -3.686  0.00  0.00    -0.081 HD
BRANCH   2  11
ATOM     10  C   UNL     1       0.417   1.893  -1.341  0.00  0.00    +0.196 C 
ATOM     11  O   UNL     1       0.431   0.505  -1.002  0.00  0.00    -0.367 OA
ENDBRANCH   2  11
ENDBRANCH   1   4
BRANCH   1  12
ATOM     12  C   UNL     1       1.255  -4.981  -3.530  0.00  0.00    -0.060 A 
ATOM     13  C   UNL     1       1.304  -4.603  -4.860  0.00  0.00    +0.002 A 
ATOM     14  C   UNL     1       1.876  -5.439  -5.797  0.00  0.00    +0.009 A 
ATOM     15  C   UNL     1       2.406  -6.665  -5.401  0.00  0.00    -0.018 A 
ATOM     16  C   UNL     1       2.355  -7.041  -4.060  0.00  0.00    +0.009 A 
ATOM     17  C   UNL     1       1.785  -6.194  -3.131  0.00  0.00    +0.002 A 
BRANCH  15  18
ATOM     18  C   UNL     1       3.023  -7.568  -6.404  0.00  0.00    -0.018 A 
ATOM     19  C   UNL     1       3.079  -7.191  -7.744  0.00  0.00    +0.008 A 
ATOM     20  C   UNL     1       3.654  -8.034  -8.673  0.00  0.00    +0.001 A 
ATOM     21  C   UNL     1       4.173  -9.253  -8.275  0.00  0.00    +0.000 A 
ATOM     22  C   UNL     1       4.120  -9.634  -6.947  0.00  0.00    +0.001 A 
ATOM     23  C   UNL     1       3.553  -8.795  -6.009  0.00  0.00    +0.008 A 
ENDBRANCH  15  18
ENDBRANCH   1  12
BRANCH   1  24
ATOM     24  C   UNL     1      -0.894  -4.208  -2.563  0.00  0.00    +0.100 C 
BRANCH  24  25
ATOM     25  N   UNL     1      -1.496  -3.444  -1.462  0.00  0.00    -0.205 NA
ATOM     26  H   UNL     1      -1.121  -3.736  -0.572  0.00  0.00    +0.153 HD
BRANCH  25  27
ATOM     27  O   UNL     1      -2.954  -3.559  -1.481  0.00  0.00    -0.315 OA
ATOM     28  H   UNL     1      -3.396  -3.071  -0.772  0.00  0.00    +0.236 HD
ENDBRANCH  25  27
ENDBRANCH  24  25
ENDBRANCH   1  24
TORSDOF 7
