REMARK  Name = ZINC49882417
REMARK  8 active torsions:
REMARK  status: ('A' for Active; 'I' for Inactive)
REMARK    1  A    between atoms: C_1  and  C_2
REMARK    2  A    between atoms: C_2  and  C_3
REMARK    3  A    between atoms: C_2  and  C_4
REMARK    4  A    between atoms: C_2  and  C_5
REMARK    5  A    between atoms: C_8  and  C_11
REMARK    6  A    between atoms: C_14  and  C_19
REMARK    7  A    between atoms: C_15  and  N_17
REMARK    8  A    between atoms: N_17  and  C_18
REMARK                            x       y       z     vdW  Elec       q    Type
REMARK                         _______ _______ _______ _____ _____    ______ ____
ROOT
ATOM      1  C   UNL     1       2.820  -1.775  -4.714  0.00  0.00    +0.048 A 
ATOM      2  C   UNL     1       2.006  -2.560  -5.533  0.00  0.00    +0.027 A 
ATOM      3  C   UNL     1       2.527  -3.095  -6.693  0.00  0.00    +0.020 A 
ATOM      4  C   UNL     1       3.868  -2.829  -7.009  0.00  0.00    +0.101 A 
ATOM      5  C   UNL     1       4.628  -2.029  -6.135  0.00  0.00    +0.111 A 
ATOM      6  N   UNL     1       4.084  -1.533  -5.036  0.00  0.00    -0.342 N 
ATOM      7  H   UNL     1       4.624  -0.981  -4.449  0.00  0.00    +0.167 HD
ENDROOT
BRANCH   1  11
ATOM      8  C   UNL     1       1.218  -0.124  -1.139  0.00  0.00    -0.042 A 
ATOM      9  C   UNL     1       0.420  -0.907  -1.954  0.00  0.00    +0.005 A 
ATOM     10  C   UNL     1       0.934  -1.446  -3.116  0.00  0.00    +0.010 A 
ATOM     11  C   UNL     1       2.261  -1.199  -3.468  0.00  0.00    -0.002 A 
ATOM     12  C   UNL     1       3.060  -0.409  -2.642  0.00  0.00    +0.010 A 
ATOM     13  C   UNL     1       2.533   0.128  -1.486  0.00  0.00    +0.005 A 
BRANCH   8  15
ATOM     14  C   UNL     1       0.731   1.988   0.066  0.00  0.00    +0.015 C 
ATOM     15  C   UNL     1       0.650   0.461   0.128  0.00  0.00    -0.013 C 
ATOM     16  C   UNL     1       1.453  -0.044   1.328  0.00  0.00    +0.015 C 
ATOM     17  C   UNL     1      -0.812   0.034   0.277  0.00  0.00    +0.015 C 
ENDBRANCH   8  15
ENDBRANCH   1  11
BRANCH   5  18
ATOM     18  N   UNL     1       5.950  -1.755  -6.429  0.00  0.00    -0.333 N 
ATOM     19  C   UNL     1       6.780  -1.029  -5.465  0.00  0.00    +0.127 C 
ATOM     20  H   UNL     1       6.328  -2.044  -7.274  0.00  0.00    +0.147 HD
ENDBRANCH   5  18
BRANCH   4  21
ATOM     21  C   UNL     1       4.469  -3.376  -8.232  0.00  0.00    +0.390 C 
ATOM     22  O   UNL     1       3.836  -4.158  -8.928  0.00  0.00    -0.240 OA
ATOM     23  O   UNL     1       5.604  -3.050  -8.555  0.00  0.00    -0.240 OA
ENDBRANCH   4  21
TORSDOF 4
