REMARK  Name = ZINC04183821
REMARK  10 active torsions:
REMARK  status: ('A' for Active; 'I' for Inactive)
REMARK    1  A    between atoms: C_1  and  C_2
REMARK    2  A    between atoms: C_2  and  O_3
REMARK    3  A    between atoms: O_3  and  C_4
REMARK    4  A    between atoms: C_7  and  N_10
REMARK    5  A    between atoms: C_11  and  C_13
REMARK    6  A    between atoms: N_15  and  C_16
REMARK    7  A    between atoms: C_18  and  C_23
REMARK    8  A    between atoms: C_18  and  C_24
REMARK    9  A    between atoms: C_19  and  C_21
REMARK   10  A    between atoms: C_19  and  C_22
REMARK                            x       y       z     vdW  Elec       q    Type
REMARK                         _______ _______ _______ _____ _____    ______ ____
ROOT
ATOM      1  C   UNL     1       0.119   5.703  -2.355  0.00  0.00    +0.300 C 
ATOM      2  O   UNL     1      -0.114   5.078  -3.369  0.00  0.00    -0.265 OA
ATOM      3  N   UNL     1       0.393   5.050  -1.208  0.00  0.00    -0.305 N 
ATOM      4  H   UNL     1       0.580   5.550  -0.398  0.00  0.00    +0.149 HD
ENDROOT
BRANCH   3   5
ATOM      5  C   UNL     1       0.409   3.582  -1.185  0.00  0.00    +0.071 C 
ATOM      6  C   UNL     1       1.308   3.107  -0.042  0.00  0.00    +0.009 C 
ATOM      7  C   UNL     1       1.338   1.580  -0.004  0.00  0.00    -0.072 C 
ATOM      8  C   UNL     1      -1.019   1.542  -0.865  0.00  0.00    -0.072 C 
ATOM      9  C   UNL     1      -1.007   3.067  -0.929  0.00  0.00    +0.009 C 
ATOM     10  C   UNL     1      -0.911   0.969  -2.284  0.00  0.00    -0.010 C 
ATOM     11  C   UNL     1      -2.393   1.112  -0.304  0.00  0.00    -0.010 C 
ATOM     12  C   UNL     1       2.049   1.162   1.302  0.00  0.00    -0.010 C 
ATOM     13  C   UNL     1       2.178   1.050  -1.170  0.00  0.00    -0.010 C 
ATOM     14  N   UNL     1      -0.006   0.942   0.043  0.00  0.00    +0.386 N 
ATOM     15  H   UNL     1      -0.358   1.014   1.005  0.00  0.00    -0.084 HD
ATOM     16  H   UNL     1       0.102  -0.047  -0.209  0.00  0.00    -0.084 HD
ENDBRANCH   3   5
BRANCH   1  18
ATOM     17  N   UNL     1      -0.171   7.849  -3.525  0.00  0.00    -0.278 N 
ATOM     18  C   UNL     1       0.103   7.196  -2.378  0.00  0.00    +0.303 C 
ATOM     19  O   UNL     1       0.337   7.822  -1.365  0.00  0.00    -0.265 OA
ATOM     20  H   UNL     1      -0.291   7.352  -4.349  0.00  0.00    +0.155 HD
BRANCH  17  24
ATOM     21  C   UNL     1      -0.498  12.004  -3.531  0.00  0.00    +0.121 A 
ATOM     22  C   UNL     1       0.418  11.382  -2.695  0.00  0.00    +0.047 A 
ATOM     23  C   UNL     1       0.527  10.006  -2.693  0.00  0.00    +0.027 A 
ATOM     24  C   UNL     1      -0.281   9.244  -3.527  0.00  0.00    +0.034 A 
ATOM     25  C   UNL     1      -1.195   9.867  -4.367  0.00  0.00    +0.027 A 
ATOM     26  C   UNL     1      -1.306  11.244  -4.364  0.00  0.00    +0.047 A 
BRANCH  21  27
ATOM     27  O   UNL     1      -0.605  13.359  -3.533  0.00  0.00    -0.492 OA
BRANCH  27  29
ATOM     28  C   UNL     1      -1.544  15.457  -4.282  0.00  0.00    +0.048 C 
ATOM     29  C   UNL     1      -1.569  13.933  -4.418  0.00  0.00    +0.225 C 
ENDBRANCH  27  29
ENDBRANCH  21  27
ENDBRANCH  17  24
ENDBRANCH   1  18
TORSDOF 5
