REMARK  Name = ZINC02892730
REMARK  7 active torsions:
REMARK  status: ('A' for Active; 'I' for Inactive)
REMARK    1  A    between atoms: N_4  and  C_7
REMARK    2  A    between atoms: C_7  and  C_8
REMARK    3  A    between atoms: C_8  and  N_9
REMARK    4  A    between atoms: N_9  and  C_10
REMARK    5  A    between atoms: N_17  and  C_20
REMARK    6  A    between atoms: C_20  and  C_21
REMARK    7  A    between atoms: C_21  and  C_22
REMARK                            x       y       z     vdW  Elec       q    Type
REMARK                         _______ _______ _______ _____ _____    ______ ____
ROOT
ATOM      1  C   UNL     1       4.043  -3.893  -3.379  0.00  0.00    +0.085 C 
ATOM      2  C   UNL     1       4.676  -4.407  -4.495  0.00  0.00    +0.113 C 
ATOM      3  C   UNL     1       4.841  -5.859  -4.685  0.00  0.00    +0.258 C 
ATOM      4  O   UNL     1       4.423  -6.649  -3.859  0.00  0.00    -0.270 OA
ATOM      5  N   UNL     1       5.469  -6.289  -5.799  0.00  0.00    -0.235 N 
ATOM      6  C   UNL     1       5.936  -5.430  -6.716  0.00  0.00    +0.315 C 
ATOM      7  O   UNL     1       6.492  -5.883  -7.697  0.00  0.00    -0.252 OA
ATOM      8  N   UNL     1       5.820  -4.099  -6.609  0.00  0.00    -0.221 N 
ATOM      9  C   UNL     1       5.210  -3.527  -5.550  0.00  0.00    +0.260 C 
ATOM     10  O   UNL     1       5.107  -2.318  -5.467  0.00  0.00    -0.269 OA
ATOM     11  H   UNL     1       5.587  -7.242  -5.939  0.00  0.00    +0.159 HD
ENDROOT
BRANCH   1  12
ATOM     12  N   UNL     1       3.756  -2.577  -3.313  0.00  0.00    -0.351 N 
ATOM     13  H   UNL     1       3.921  -2.006  -4.080  0.00  0.00    +0.145 HD
BRANCH  12  14
ATOM     14  C   UNL     1       3.196  -2.010  -2.084  0.00  0.00    +0.082 C 
BRANCH  14  15
ATOM     15  C   UNL     1       2.965  -0.510  -2.273  0.00  0.00    -0.060 C 
BRANCH  15  19
ATOM     16  C   UNL     1       0.410   1.534   0.457  0.00  0.00    -0.004 C 
ATOM     17  C   UNL     1       1.786   2.121   0.130  0.00  0.00    -0.019 C 
ATOM     18  C   UNL     1       2.295   1.516  -1.181  0.00  0.00    -0.079 C 
ATOM     19  N   UNL     1       2.404   0.059  -1.040  0.00  0.00    +0.381 N 
ATOM     20  C   UNL     1       1.077  -0.519  -0.797  0.00  0.00    -0.079 C 
ATOM     21  C   UNL     1       0.521   0.008   0.528  0.00  0.00    -0.019 C 
ATOM     22  H   UNL     1       3.011  -0.159  -0.265  0.00  0.00    -0.082 HD
ENDBRANCH  15  19
ENDBRANCH  14  15
ENDBRANCH  12  14
ENDBRANCH   1  12
BRANCH   8  23
ATOM     23  C   UNL     1       6.364  -3.246  -7.668  0.00  0.00    +0.122 C 
BRANCH  23  24
ATOM     24  C   UNL     1       5.290  -3.003  -8.730  0.00  0.00    +0.050 C 
BRANCH  24  25
ATOM     25  C   UNL     1       5.850  -2.125  -9.819  0.00  0.00    -0.072 C 
ATOM     26  C   UNL     1       6.333  -2.700 -10.874  0.00  0.00    -0.028 C 
ATOM     27  C   UNL     1       6.933  -1.962 -12.034  0.00  0.00    +0.027 C 
ATOM     28  C   UNL     1       6.515  -0.490 -11.994  0.00  0.00    +0.004 C 
ATOM     29  C   UNL     1       6.776   0.050 -10.583  0.00  0.00    +0.005 C 
ATOM     30  C   UNL     1       5.807  -0.639  -9.617  0.00  0.00    +0.030 C 
ENDBRANCH  24  25
ENDBRANCH  23  24
ENDBRANCH   8  23
TORSDOF 7
