REMARK  Name = ZINC65180616
REMARK  9 active torsions:
REMARK  status: ('A' for Active; 'I' for Inactive)
REMARK    1  A    between atoms: C_1  and  C_2
REMARK    2  A    between atoms: N_10  and  C_13
REMARK    3  A    between atoms: C_13  and  C_14
REMARK    4  A    between atoms: C_14  and  C_15
REMARK    5  A    between atoms: N_17  and  N_18
REMARK    6  A    between atoms: N_21  and  C_22
REMARK    7  A    between atoms: C_22  and  C_23
REMARK    8  A    between atoms: C_23  and  C_24
REMARK    9  A    between atoms: C_23  and  C_25
REMARK                            x       y       z     vdW  Elec       q    Type
REMARK                         _______ _______ _______ _____ _____    ______ ____
ROOT
ATOM      1  C   UNL     1      -1.348  -3.004   5.367  0.00  0.00    +0.119 C 
ENDROOT
BRANCH   1   2
ATOM      2  C   UNL     1      -1.325  -3.684   6.712  0.00  0.00    +0.231 C 
ATOM      3  O   UNL     1      -0.266  -3.943   7.243  0.00  0.00    -0.274 OA
ATOM      4  N   UNL     1      -2.482  -4.005   7.324  0.00  0.00    -0.233 N 
ATOM      5  H   UNL     1      -3.329  -3.798   6.899  0.00  0.00    +0.173 HD
BRANCH   4   6
ATOM      6  N   UNL     1      -2.461  -4.637   8.574  0.00  0.00    -0.218 N 
ATOM      7  C   UNL     1      -3.618  -4.957   9.187  0.00  0.00    +0.316 C 
ATOM      8  O   UNL     1      -3.600  -5.506  10.272  0.00  0.00    -0.251 OA
ATOM      9  N   UNL     1      -4.795  -4.670   8.596  0.00  0.00    -0.298 N 
ATOM     10  H   UNL     1      -1.614  -4.843   8.999  0.00  0.00    +0.174 HD
ATOM     11  H   UNL     1      -4.810  -4.233   7.731  0.00  0.00    +0.150 HD
BRANCH   9  12
ATOM     12  C   UNL     1      -6.053  -5.019   9.262  0.00  0.00    +0.108 C 
BRANCH  12  13
ATOM     13  C   UNL     1      -7.231  -4.587   8.386  0.00  0.00    -0.000 C 
ATOM     14  C   UNL     1      -7.223  -5.395   7.087  0.00  0.00    +0.009 C 
ATOM     15  C   UNL     1      -8.542  -4.837   9.134  0.00  0.00    +0.009 C 
ENDBRANCH  12  13
ENDBRANCH   9  12
ENDBRANCH   4   6
ENDBRANCH   1   2
BRANCH   1  16
ATOM     16  C   UNL     1       0.087  -2.754   4.898  0.00  0.00    +0.135 C 
BRANCH  16  26
ATOM     17  C   UNL     1      -0.018   1.503   0.010  0.00  0.00    +0.046 C 
ATOM     18  C   UNL     1       0.002  -0.004   0.002  0.00  0.00    -0.024 A 
ATOM     19  C   UNL     1       0.006  -0.689  -1.192  0.00  0.00    +0.005 A 
ATOM     20  C   UNL     1       0.025  -2.078  -1.216  0.00  0.00    +0.001 A 
ATOM     21  C   UNL     1       0.040  -2.798  -0.042  0.00  0.00    +0.015 A 
ATOM     22  C   UNL     1       0.037  -2.124   1.177  0.00  0.00    +0.065 A 
ATOM     23  C   UNL     1       0.023  -0.712   1.205  0.00  0.00    +0.081 A 
ATOM     24  N   UNL     1       0.025  -0.077   2.404  0.00  0.00    -0.237 NA
ATOM     25  C   UNL     1       0.045  -0.736   3.523  0.00  0.00    +0.202 A 
ATOM     26  N   UNL     1       0.065  -2.093   3.591  0.00  0.00    -0.298 N 
ATOM     27  C   UNL     1       0.053  -2.840   2.462  0.00  0.00    +0.262 A 
ATOM     28  O   UNL     1       0.069  -4.056   2.508  0.00  0.00    -0.267 OA
ENDBRANCH  16  26
ENDBRANCH   1  16
TORSDOF 6
