REMARK  Name = ZINC15968075
REMARK  7 active torsions:
REMARK  status: ('A' for Active; 'I' for Inactive)
REMARK    1  A    between atoms: C_1  and  C_2
REMARK    2  A    between atoms: C_2  and  C_3
REMARK    3  A    between atoms: C_14  and  C_17
REMARK    4  A    between atoms: C_17  and  C_18
REMARK    5  A    between atoms: N_23  and  C_26
REMARK    6  A    between atoms: C_26  and  C_27
REMARK    7  A    between atoms: C_27  and  C_28
REMARK                            x       y       z     vdW  Elec       q    Type
REMARK                         _______ _______ _______ _____ _____    ______ ____
ROOT
ATOM      1  C   UNL     1      -1.412  -0.526   0.013  0.00  0.00    -0.047 A 
ATOM      2  C   UNL     1      -2.053  -0.767   1.214  0.00  0.00    +0.005 A 
ATOM      3  C   UNL     1      -3.346  -1.245   1.230  0.00  0.00    +0.024 A 
ATOM      4  C   UNL     1      -4.019  -1.488   0.035  0.00  0.00    +0.039 A 
ATOM      5  C   UNL     1      -3.364  -1.241  -1.168  0.00  0.00    +0.004 A 
ATOM      6  C   UNL     1      -2.074  -0.759  -1.179  0.00  0.00    +0.011 A 
ATOM      7  C   UNL     1      -4.344  -1.597  -2.250  0.00  0.00    +0.136 C 
ATOM      8  C   UNL     1      -3.793  -2.696  -3.167  0.00  0.00    +0.122 C 
ATOM      9  C   UNL     1      -4.327  -2.329  -4.580  0.00  0.00    +0.107 C 
ATOM     10  C   UNL     1      -5.179  -1.061  -4.366  0.00  0.00    +0.076 C 
ATOM     11  N   UNL     1      -4.627  -0.443  -3.123  0.00  0.00    -0.295 NA
ATOM     12  C   UNL     1      -3.073  -1.984  -5.349  0.00  0.00    +0.227 C 
ATOM     13  O   UNL     1      -3.037  -1.626  -6.507  0.00  0.00    -0.275 OA
ATOM     14  N   UNL     1      -2.008  -2.134  -4.553  0.00  0.00    -0.241 N 
ATOM     15  C   UNL     1      -2.294  -2.544  -3.296  0.00  0.00    +0.228 C 
ATOM     16  O   UNL     1      -1.490  -2.754  -2.412  0.00  0.00    -0.275 OA
ATOM     17  C   UNL     1      -5.579  -2.055  -1.523  0.00  0.00    +0.243 C 
ATOM     18  O   UNL     1      -6.616  -2.434  -2.026  0.00  0.00    -0.273 OA
ATOM     19  N   UNL     1      -5.309  -1.963  -0.207  0.00  0.00    -0.283 N 
ATOM     20  H   UNL     1      -5.305   0.173  -2.699  0.00  0.00    +0.124 HD
ATOM     21  H   UNL     1      -5.939  -2.199   0.492  0.00  0.00    +0.155 HD
ENDROOT
BRANCH   1  23
ATOM     22  C   UNL     1      -0.019   1.526   0.010  0.00  0.00    +0.009 C 
ATOM     23  C   UNL     1       0.002  -0.004   0.002  0.00  0.00    +0.032 C 
ENDBRANCH   1  23
BRANCH  10  24
ATOM     24  C   UNL     1      -5.007  -0.099  -5.544  0.00  0.00    +0.115 C 
BRANCH  24  25
ATOM     25  C   UNL     1      -5.938   1.074  -5.374  0.00  0.00    +0.212 C 
ATOM     26  O   UNL     1      -6.667   1.135  -4.407  0.00  0.00    -0.276 OA
ATOM     27  N   UNL     1      -5.960   2.055  -6.298  0.00  0.00    -0.329 N 
ATOM     28  H   UNL     1      -5.377   2.006  -7.072  0.00  0.00    +0.145 HD
ATOM     29  H   UNL     1      -6.559   2.810  -6.189  0.00  0.00    +0.145 HD
ENDBRANCH  24  25
ENDBRANCH  10  24
BRANCH  14  30
ATOM     30  C   UNL     1      -0.638  -1.882  -5.007  0.00  0.00    +0.121 C 
BRANCH  30  31
ATOM     31  C   UNL     1      -0.276  -0.418  -4.749  0.00  0.00    +0.054 C 
BRANCH  31  32
ATOM     32  C   UNL     1       1.133  -0.159  -5.215  0.00  0.00    -0.046 A 
ATOM     33  C   UNL     1       2.193  -0.339  -4.346  0.00  0.00    +0.004 A 
ATOM     34  C   UNL     1       3.486  -0.101  -4.774  0.00  0.00    +0.000 A 
ATOM     35  C   UNL     1       3.719   0.316  -6.072  0.00  0.00    +0.000 A 
ATOM     36  C   UNL     1       2.659   0.495  -6.941  0.00  0.00    +0.000 A 
ATOM     37  C   UNL     1       1.367   0.253  -6.514  0.00  0.00    +0.004 A 
ENDBRANCH  31  32
ENDBRANCH  30  31
ENDBRANCH  14  30
TORSDOF 6
