REMARK  Name = ZINC00989922
REMARK  6 active torsions:
REMARK  status: ('A' for Active; 'I' for Inactive)
REMARK    1  A    between atoms: C_1  and  C_2
REMARK    2  A    between atoms: C_2  and  C_3
REMARK    3  A    between atoms: C_2  and  C_4
REMARK    4  A    between atoms: C_2  and  C_5
REMARK    5  A    between atoms: C_17  and  C_20
REMARK    6  A    between atoms: C_24  and  N_26
REMARK                            x       y       z     vdW  Elec       q    Type
REMARK                         _______ _______ _______ _____ _____    ______ ____
ROOT
ATOM      1  C   UNL     1      -0.720   5.726   7.036  0.00  0.00    -0.000 C 
ATOM      2  C   UNL     1       0.426   6.630   6.571  0.00  0.00    +0.009 C 
ATOM      3  C   UNL     1       0.949   6.153   5.216  0.00  0.00    +0.037 C 
ATOM      4  C   UNL     1      -0.226   6.027   4.252  0.00  0.00    -0.023 A 
ATOM      5  C   UNL     1      -1.494   5.954   4.712  0.00  0.00    -0.004 A 
ATOM      6  S   UNL     1      -2.502   5.821   3.259  0.00  0.00    -0.078 S 
ATOM      7  C   UNL     1      -1.268   5.862   2.073  0.00  0.00    +0.080 A 
ATOM      8  C   UNL     1      -0.077   5.976   2.806  0.00  0.00    +0.068 A 
ATOM      9  C   UNL     1       1.193   6.032   2.046  0.00  0.00    +0.248 C 
ATOM     10  O   UNL     1       2.255   6.244   2.601  0.00  0.00    -0.270 OA
ATOM     11  N   UNL     1       1.123   5.838   0.712  0.00  0.00    -0.289 N 
ATOM     12  C   UNL     1      -0.070   5.347   0.031  0.00  0.00    +0.190 C 
ATOM     13  N   UNL     1      -1.298   5.810   0.703  0.00  0.00    -0.316 N 
ATOM     14  C   UNL     1      -1.942   5.980   6.141  0.00  0.00    +0.046 C 
ATOM     15  H   UNL     1       1.908   6.035   0.178  0.00  0.00    +0.151 HD
ATOM     16  H   UNL     1      -2.088   6.065   0.201  0.00  0.00    +0.149 HD
ENDROOT
BRANCH  12  17
ATOM     17  C   UNL     1      -0.050   3.840   0.022  0.00  0.00    -0.007 A 
ATOM     18  C   UNL     1      -1.238   3.133   0.029  0.00  0.00    +0.007 A 
ATOM     19  C   UNL     1      -1.219   1.751   0.017  0.00  0.00    +0.003 A 
ATOM     20  C   UNL     1      -0.013   1.076   0.008  0.00  0.00    +0.033 A 
ATOM     21  C   UNL     1       1.175   1.783   0.000  0.00  0.00    +0.127 A 
ATOM     22  C   UNL     1       1.156   3.166   0.008  0.00  0.00    +0.039 A 
BRANCH  21  23
ATOM     23  N   UNL     1       2.467   1.060  -0.015  0.00  0.00    +0.056 N 
ATOM     24  O   UNL     1       2.483  -0.157  -0.022  0.00  0.00    -0.126 OA
ATOM     25  O   UNL     1       3.513   1.684  -0.022  0.00  0.00    -0.126 OA
ENDBRANCH  21  23
ENDBRANCH  12  17
BRANCH   1  27
ATOM     26  C   UNL     1      -2.229   5.159   8.944  0.00  0.00    +0.011 C 
ATOM     27  C   UNL     1      -1.072   6.050   8.489  0.00  0.00    -0.035 C 
ATOM     28  C   UNL     1       0.147   5.796   9.378  0.00  0.00    +0.011 C 
ATOM     29  C   UNL     1      -1.486   7.519   8.598  0.00  0.00    +0.011 C 
ENDBRANCH   1  27
TORSDOF 3
