REMARK  Name = ZINC49776666
REMARK  3 active torsions:
REMARK  status: ('A' for Active; 'I' for Inactive)
REMARK    1  A    between atoms: C_1  and  C_2
REMARK    2  A    between atoms: C_5  and  N_9
REMARK    3  A    between atoms: N_12  and  C_15
REMARK                            x       y       z     vdW  Elec       q    Type
REMARK                         _______ _______ _______ _____ _____    ______ ____
ROOT
ATOM      1  N   UNL     1      -1.240   1.467  -4.434  0.00  0.00    -0.272 NA
ATOM      2  C   UNL     1       0.205   1.724  -4.368  0.00  0.00    +0.105 C 
ATOM      3  C   UNL     1       0.793   1.677  -5.782  0.00  0.00    +0.120 C 
ATOM      4  N   UNL     1       0.416   0.398  -6.403  0.00  0.00    -0.326 N 
ATOM      5  C   UNL     1      -1.001   0.007  -6.385  0.00  0.00    +0.120 C 
ATOM      6  C   UNL     1      -1.519   0.119  -4.947  0.00  0.00    +0.105 C 
ENDROOT
BRANCH   1  10
ATOM      7  C   UNL     1      -0.013   1.086   0.008  0.00  0.00    +0.085 C 
ATOM      8  C   UNL     1      -0.742   1.585  -1.213  0.00  0.00    +0.102 C 
ATOM      9  N   UNL     1      -1.256   0.800  -2.106  0.00  0.00    -0.245 NA
ATOM     10  C   UNL     1      -1.871   1.672  -3.123  0.00  0.00    +0.238 C 
ATOM     11  C   UNL     1      -1.584   3.066  -2.598  0.00  0.00    +0.111 C 
ATOM     12  N   UNL     1      -0.927   2.882  -1.480  0.00  0.00    -0.333 N 
ATOM     13  N   UNL     1      -1.938   4.250  -3.163  0.00  0.00    -0.345 N 
ATOM     14  H   UNL     1      -2.431   4.261  -3.998  0.00  0.00    +0.143 HD
ATOM     15  H   UNL     1      -1.696   5.085  -2.731  0.00  0.00    +0.143 HD
ATOM     16  H   UNL     1      -0.609   3.602  -0.913  0.00  0.00    +0.168 HD
ENDBRANCH   1  10
BRANCH   4  17
ATOM     17  C   UNL     1       1.380  -0.423  -6.995  0.00  0.00    +0.048 A 
ATOM     18  C   UNL     1       2.023  -1.396  -6.241  0.00  0.00    +0.024 A 
ATOM     19  C   UNL     1       2.975  -2.207  -6.829  0.00  0.00    +0.002 A 
ATOM     20  C   UNL     1       3.287  -2.051  -8.167  0.00  0.00    +0.002 A 
ATOM     21  C   UNL     1       2.649  -1.084  -8.921  0.00  0.00    +0.022 A 
ATOM     22  C   UNL     1       1.692  -0.273  -8.341  0.00  0.00    +0.062 A 
ATOM     23 CL   UNL     1       0.886   0.937  -9.290  0.00  0.00    -0.082 Cl
ENDBRANCH   4  17
TORSDOF 2
