REMARK  Name = ZINC57643397
REMARK  9 active torsions:
REMARK  status: ('A' for Active; 'I' for Inactive)
REMARK    1  A    between atoms: C_1  and  C_2
REMARK    2  A    between atoms: C_9  and  C_14
REMARK    3  A    between atoms: C_14  and  N_15
REMARK    4  A    between atoms: N_15  and  C_16
REMARK    5  A    between atoms: N_15  and  C_28
REMARK    6  A    between atoms: C_16  and  C_17
REMARK    7  A    between atoms: N_21  and  C_22
REMARK    8  A    between atoms: C_22  and  C_23
REMARK    9  A    between atoms: C_28  and  C_29
REMARK                            x       y       z     vdW  Elec       q    Type
REMARK                         _______ _______ _______ _____ _____    ______ ____
ROOT
ATOM      1  N   UNL     1      -1.491  -4.934   3.839  0.00  0.00    -0.288 NA
ENDROOT
BRANCH   1   2
ATOM      2  C   UNL     1      -0.154  -4.524   3.388  0.00  0.00    +0.125 C 
BRANCH   2  11
ATOM      3  C   UNL     1      -0.727   1.604  -0.823  0.00  0.00    +0.044 C 
ATOM      4  C   UNL     1      -0.634   0.106  -0.688  0.00  0.00    -0.050 A 
ATOM      5  C   UNL     1      -0.647  -0.689  -1.826  0.00  0.00    +0.005 A 
ATOM      6  C   UNL     1      -0.563  -2.061  -1.727  0.00  0.00    +0.026 A 
ATOM      7  C   UNL     1      -0.463  -2.657  -0.474  0.00  0.00    +0.049 A 
ATOM      8  C   UNL     1      -0.450  -1.848   0.678  0.00  0.00    -0.001 A 
ATOM      9  C   UNL     1      -0.531  -0.457   0.552  0.00  0.00    +0.013 A 
ATOM     10  C   UNL     1      -0.344  -2.485   1.992  0.00  0.00    +0.020 A 
ATOM     11  C   UNL     1      -0.264  -3.837   2.051  0.00  0.00    +0.031 A 
ATOM     12  C   UNL     1      -0.281  -4.603   0.866  0.00  0.00    +0.254 A 
ATOM     13  O   UNL     1      -0.207  -5.817   0.942  0.00  0.00    -0.268 OA
ATOM     14  N   UNL     1      -0.377  -4.027  -0.345  0.00  0.00    -0.322 N 
ATOM     15  H   UNL     1      -0.387  -4.583  -1.139  0.00  0.00    +0.169 HD
ENDBRANCH   2  11
ENDBRANCH   1   2
BRANCH   1  16
ATOM     16  C   UNL     1      -1.459  -5.392   5.234  0.00  0.00    +0.162 C 
BRANCH  16  17
ATOM     17  C   UNL     1      -1.113  -4.234   6.135  0.00  0.00    +0.166 A 
ATOM     18  N   UNL     1       0.090  -3.836   6.471  0.00  0.00    -0.112 NA
ATOM     19  N   UNL     1      -0.031  -2.818   7.251  0.00  0.00    -0.023 NA
ATOM     20  N   UNL     1      -1.279  -2.556   7.421  0.00  0.00    -0.043 NA
ATOM     21  N   UNL     1      -1.978  -3.403   6.745  0.00  0.00    -0.221 N 
BRANCH  21  22
ATOM     22  C   UNL     1      -3.440  -3.454   6.660  0.00  0.00    +0.221 C 
BRANCH  22  23
ATOM     23  C   UNL     1      -3.975  -4.353   7.745  0.00  0.00    +0.126 A 
ATOM     24  C   UNL     1      -4.329  -3.966   8.984  0.00  0.00    +0.046 A 
ATOM     25  C   UNL     1      -4.773  -5.123   9.664  0.00  0.00    +0.041 A 
ATOM     26  C   UNL     1      -4.664  -6.148   8.800  0.00  0.00    +0.195 A 
ATOM     27  O   UNL     1      -4.186  -5.675   7.638  0.00  0.00    -0.466 OA
ENDBRANCH  22  23
ENDBRANCH  21  22
ENDBRANCH  16  17
ENDBRANCH   1  16
BRANCH   1  28
ATOM     28  C   UNL     1      -2.049  -5.969   2.958  0.00  0.00    +0.116 C 
BRANCH  28  29
ATOM     29  C   UNL     1      -3.559  -6.072   3.185  0.00  0.00    +0.132 C 
ATOM     30  C   UNL     1      -4.181  -7.103   2.209  0.00  0.00    +0.035 C 
ATOM     31  C   UNL     1      -5.456  -7.518   2.993  0.00  0.00    +0.031 C 
ATOM     32  C   UNL     1      -4.978  -7.444   4.459  0.00  0.00    +0.160 C 
ATOM     33  O   UNL     1      -3.832  -6.584   4.499  0.00  0.00    -0.375 OA
ENDBRANCH  28  29
ENDBRANCH   1  28
TORSDOF 8
