REMARK  Name = ZINC08429112
REMARK  8 active torsions:
REMARK  status: ('A' for Active; 'I' for Inactive)
REMARK    1  A    between atoms: C_1  and  C_2
REMARK    2  A    between atoms: C_2  and  C_23
REMARK    3  A    between atoms: N_5  and  C_9
REMARK    4  A    between atoms: C_9  and  C_10
REMARK    5  A    between atoms: C_10  and  C_12
REMARK    6  A    between atoms: C_23  and  C_24
REMARK    7  A    between atoms: C_29  and  O_30
REMARK    8  A    between atoms: O_30  and  C_31
REMARK                            x       y       z     vdW  Elec       q    Type
REMARK                         _______ _______ _______ _____ _____    ______ ____
ROOT
ATOM      1  C   UNL     1      -0.690  -0.545  -1.251  0.00  0.00    +0.042 C 
ATOM      2  C   UNL     1       0.002  -0.004   0.002  0.00  0.00    +0.114 C 
ATOM      3  C   UNL     1      -0.018   1.512   0.010  0.00  0.00    +0.247 C 
ATOM      4  O   UNL     1      -0.995   2.231   0.019  0.00  0.00    -0.273 OA
ATOM      5  N   UNL     1       1.274   1.894   0.000  0.00  0.00    -0.217 N 
ATOM      6  C   UNL     1       2.099   0.841  -0.013  0.00  0.00    +0.310 C 
ATOM      7  O   UNL     1       3.311   0.933  -0.025  0.00  0.00    -0.252 OA
ATOM      8  N   UNL     1       1.438  -0.331  -0.013  0.00  0.00    -0.285 N 
ATOM      9  H   UNL     1       1.831  -1.218  -0.022  0.00  0.00    +0.151 HD
ENDROOT
BRANCH   5  10
ATOM     10  C   UNL     1       1.720   3.289   0.002  0.00  0.00    +0.197 C 
BRANCH  10  11
ATOM     11  C   UNL     1       1.886   3.761   1.424  0.00  0.00    +0.181 C 
ATOM     12  O   UNL     1       1.655   3.006   2.345  0.00  0.00    -0.290 OA
BRANCH  11  13
ATOM     13  C   UNL     1       2.328   5.135   1.694  0.00  0.00    +0.019 A 
ATOM     14  C   UNL     1       2.601   6.007   0.633  0.00  0.00    +0.013 A 
ATOM     15  C   UNL     1       3.006   7.286   0.886  0.00  0.00    +0.024 A 
ATOM     16  C   UNL     1       3.162   7.726   2.198  0.00  0.00    +0.037 A 
ATOM     17  C   UNL     1       2.897   6.865   3.260  0.00  0.00    -0.025 A 
ATOM     18  C   UNL     1       2.483   5.576   3.015  0.00  0.00    +0.017 A 
ATOM     19  C   UNL     1       3.067   7.348   4.677  0.00  0.00    +0.046 C 
ATOM     20  C   UNL     1       4.230   8.339   4.742  0.00  0.00    +0.101 C 
ATOM     21  C   UNL     1       4.088   9.365   3.651  0.00  0.00    +0.218 C 
ATOM     22  O   UNL     1       4.435  10.509   3.856  0.00  0.00    -0.275 OA
ATOM     23  N   UNL     1       3.582   9.030   2.450  0.00  0.00    -0.285 N 
ATOM     24  H   UNL     1       3.508   9.702   1.755  0.00  0.00    +0.155 HD
ENDBRANCH  11  13
ENDBRANCH  10  11
ENDBRANCH   5  10
BRANCH   2  25
ATOM     25  C   UNL     1      -0.662  -0.558   1.264  0.00  0.00    +0.073 C 
BRANCH  25  26
ATOM     26  C   UNL     1      -0.520  -2.058   1.289  0.00  0.00    -0.003 A 
ATOM     27  C   UNL     1      -1.538  -2.858   0.807  0.00  0.00    +0.007 A 
ATOM     28  C   UNL     1      -1.406  -4.234   0.826  0.00  0.00    +0.000 A 
ATOM     29  C   UNL     1      -0.259  -4.814   1.336  0.00  0.00    +0.004 A 
ATOM     30  C   UNL     1       0.760  -4.019   1.824  0.00  0.00    +0.046 A 
ATOM     31  C   UNL     1       0.632  -2.638   1.802  0.00  0.00    +0.123 A 
BRANCH  31  32
ATOM     32  O   UNL     1       1.633  -1.853   2.281  0.00  0.00    -0.495 OA
ATOM     33  C   UNL     1       2.789  -2.518   2.794  0.00  0.00    +0.277 C 
ENDBRANCH  31  32
ENDBRANCH  25  26
ENDBRANCH   2  25
TORSDOF 6
