REMARK  Name = ZINC04889937
REMARK  9 active torsions:
REMARK  status: ('A' for Active; 'I' for Inactive)
REMARK    1  A    between atoms: C_1  and  C_2
REMARK    2  A    between atoms: C_12  and  C_14
REMARK    3  A    between atoms: C_14  and  C_16
REMARK    4  A    between atoms: C_14  and  S_17
REMARK    5  A    between atoms: S_17  and  C_18
REMARK    6  A    between atoms: C_21  and  C_24
REMARK    7  A    between atoms: N_22  and  N_23
REMARK    8  A    between atoms: C_27  and  O_30
REMARK    9  A    between atoms: O_30  and  C_31
REMARK                            x       y       z     vdW  Elec       q    Type
REMARK                         _______ _______ _______ _____ _____    ______ ____
ROOT
ATOM      1  C   UNL     1       4.676   6.404   1.004  0.00  0.00    +0.209 A 
ATOM      2  N   UNL     1       4.888   5.141   0.711  0.00  0.00    -0.121 NA
ATOM      3  N   UNL     1       6.102   4.822   0.985  0.00  0.00    -0.127 NA
ATOM      4  C   UNL     1       6.738   5.859   1.479  0.00  0.00    +0.182 A 
ATOM      5  N   UNL     1       5.844   6.904   1.508  0.00  0.00    -0.224 N 
ENDROOT
BRANCH   4   6
ATOM      6  C   UNL     1       8.148   5.896   1.922  0.00  0.00    +0.021 A 
ATOM      7  C   UNL     1       9.033   4.892   1.524  0.00  0.00    +0.015 A 
ATOM      8  C   UNL     1      10.348   4.934   1.935  0.00  0.00    +0.046 A 
ATOM      9  C   UNL     1      10.790   5.966   2.752  0.00  0.00    +0.120 A 
ATOM     10  C   UNL     1       9.912   6.963   3.154  0.00  0.00    +0.046 A 
ATOM     11  C   UNL     1       8.596   6.932   2.744  0.00  0.00    +0.015 A 
BRANCH   9  12
ATOM     12  O   UNL     1      12.087   6.000   3.158  0.00  0.00    -0.495 OA
ATOM     13  C   UNL     1      12.936   4.943   2.707  0.00  0.00    +0.277 C 
ENDBRANCH   9  12
ENDBRANCH   4   6
BRANCH   5  14
ATOM     14  N   UNL     1       6.076   8.177   1.946  0.00  0.00    -0.295 N 
ATOM     15  H   UNL     1       5.959   8.242   2.946  0.00  0.00    +0.163 HD
ATOM     16  H   UNL     1       6.993   8.494   1.668  0.00  0.00    +0.163 HD
ENDBRANCH   5  14
BRANCH   1  17
ATOM     17  S   UNL     1       3.166   7.287   0.796  0.00  0.00    -0.072 S 
BRANCH  17  18
ATOM     18  C   UNL     1       2.130   5.976   0.099  0.00  0.00    +0.137 C 
ATOM     19  C   UNL     1       2.677   5.568  -1.270  0.00  0.00    +0.029 C 
BRANCH  18  30
ATOM     20  C   UNL     1      -2.104   6.735   1.123  0.00  0.00    +0.029 C 
ATOM     21  C   UNL     1      -1.724   5.975  -0.150  0.00  0.00    +0.083 C 
ATOM     22  C   UNL     1      -2.486   4.641  -0.222  0.00  0.00    +0.059 C 
ATOM     23  C   UNL     1      -1.404   3.584  -0.225  0.00  0.00    -0.024 A 
ATOM     24  C   UNL     1      -1.483   2.206  -0.282  0.00  0.00    +0.005 A 
ATOM     25  C   UNL     1      -0.331   1.443  -0.268  0.00  0.00    +0.000 A 
ATOM     26  C   UNL     1       0.904   2.063  -0.206  0.00  0.00    +0.002 A 
ATOM     27  C   UNL     1       0.988   3.438  -0.154  0.00  0.00    +0.024 A 
ATOM     28  C   UNL     1      -0.172   4.215  -0.163  0.00  0.00    +0.040 A 
ATOM     29  N   UNL     1      -0.306   5.606  -0.118  0.00  0.00    -0.267 N 
ATOM     30  C   UNL     1       0.718   6.480  -0.054  0.00  0.00    +0.233 C 
ATOM     31  O   UNL     1       0.503   7.672  -0.120  0.00  0.00    -0.274 OA
ENDBRANCH  18  30
ENDBRANCH  17  18
ENDBRANCH   1  17
TORSDOF 6
