REMARK  Name = ZINC08327763
REMARK  13 active torsions:
REMARK  status: ('A' for Active; 'I' for Inactive)
REMARK    1  A    between atoms: C_1  and  C_2
REMARK    2  A    between atoms: C_3  and  C_25
REMARK    3  A    between atoms: C_4  and  C_24
REMARK    4  A    between atoms: C_7  and  C_8
REMARK    5  A    between atoms: C_8  and  O_10
REMARK    6  A    between atoms: O_10  and  C_11
REMARK    7  A    between atoms: C_11  and  C_13
REMARK    8  A    between atoms: C_11  and  C_14
REMARK    9  A    between atoms: N_19  and  C_20
REMARK   10  A    between atoms: C_20  and  C_21
REMARK   11  A    between atoms: C_20  and  C_22
REMARK   12  A    between atoms: C_20  and  C_23
REMARK   13  A    between atoms: C_25  and  C_27
REMARK                            x       y       z     vdW  Elec       q    Type
REMARK                         _______ _______ _______ _____ _____    ______ ____
ROOT
ATOM      1  O   UNL     1       2.777   0.007  -0.030  0.00  0.00    -0.448 OA
ENDROOT
BRANCH   1   2
ATOM      2  C   UNL     1       2.497   1.326  -0.013  0.00  0.00    +0.357 C 
ATOM      3  O   UNL     1       3.401   2.140  -0.010  0.00  0.00    -0.243 OA
BRANCH   2  10
ATOM      4  C   UNL     1       1.565   4.301   0.026  0.00  0.00    +0.047 C 
ATOM      5  C   UNL     1       0.686   3.078   0.019  0.00  0.00    -0.008 A 
ATOM      6  C   UNL     1      -0.729   3.057   0.029  0.00  0.00    +0.041 A 
ATOM      7  C   UNL     1      -1.115   1.725   0.011  0.00  0.00    +0.024 A 
ATOM      8  N   UNL     1      -0.011   0.966   0.001  0.00  0.00    -0.352 N 
ATOM      9  H   UNL     1       0.004  -0.004  -0.010  0.00  0.00    +0.166 HD
ATOM     10  C   UNL     1       1.102   1.780   0.002  0.00  0.00    +0.128 A 
ATOM     11  C   UNL     1      -2.534   1.218   0.008  0.00  0.00    +0.064 C 
BRANCH   6  12
ATOM     12  C   UNL     1      -1.619   4.223   0.049  0.00  0.00    +0.162 C 
ATOM     13  O   UNL     1      -1.925   4.769  -0.990  0.00  0.00    -0.292 OA
ATOM     14  C   UNL     1      -2.152   4.742   1.359  0.00  0.00    +0.091 C 
ENDBRANCH   6  12
ENDBRANCH   2  10
ENDBRANCH   1   2
BRANCH   1  15
ATOM     15  C   UNL     1       4.180  -0.369  -0.044  0.00  0.00    +0.259 C 
ATOM     16  C   UNL     1       4.663  -0.485  -1.491  0.00  0.00    +0.062 C 
BRANCH  15  17
ATOM     17  C   UNL     1       4.351  -1.695   0.651  0.00  0.00    +0.261 C 
ATOM     18  O   UNL     1       3.379  -2.310   1.032  0.00  0.00    -0.271 OA
ATOM     19  N   UNL     1       5.586  -2.197   0.849  0.00  0.00    -0.237 N 
ATOM     20  C   UNL     1       5.740  -3.384   1.470  0.00  0.00    +0.306 C 
ATOM     21  O   UNL     1       4.764  -4.000   1.852  0.00  0.00    -0.252 OA
ATOM     22  N   UNL     1       6.975  -3.886   1.668  0.00  0.00    -0.294 N 
ATOM     23  H   UNL     1       6.365  -1.705   0.544  0.00  0.00    +0.159 HD
ATOM     24  H   UNL     1       7.753  -3.394   1.363  0.00  0.00    +0.151 HD
BRANCH  22  25
ATOM     25  C   UNL     1       7.141  -5.175   2.343  0.00  0.00    +0.028 C 
ATOM     26  C   UNL     1       6.422  -6.265   1.546  0.00  0.00    +0.031 C 
ATOM     27  C   UNL     1       8.631  -5.512   2.439  0.00  0.00    +0.031 C 
ATOM     28  C   UNL     1       6.545  -5.095   3.750  0.00  0.00    +0.031 C 
ENDBRANCH  22  25
ENDBRANCH  15  17
ENDBRANCH   1  15
TORSDOF 6
