REMARK  Name = ZINC39061088
REMARK  3 active torsions:
REMARK  status: ('A' for Active; 'I' for Inactive)
REMARK    1  A    between atoms: C_1  and  O_2
REMARK    2  A    between atoms: O_2  and  C_3
REMARK    3  A    between atoms: C_8  and  C_11
REMARK                            x       y       z     vdW  Elec       q    Type
REMARK                         _______ _______ _______ _____ _____    ______ ____
ROOT
ATOM      1  C   UNL     1       0.652  -0.570  -1.138  0.00  0.00    +0.275 C 
ATOM      2  C   UNL     1       0.397  -2.050  -1.173  0.00  0.00    +0.029 C 
ATOM      3  C   UNL     1       1.296  -2.929  -0.842  0.00  0.00    -0.023 C 
ATOM      4  C   UNL     1       2.681  -2.542  -0.402  0.00  0.00    +0.066 C 
ATOM      5  C   UNL     1       2.703  -1.060  -0.019  0.00  0.00    +0.188 C 
ATOM      6  O   UNL     1       2.056  -0.318  -1.057  0.00  0.00    -0.337 OA
ENDROOT
BRANCH   1   8
ATOM      7  C   UNL     1      -0.017   1.425   0.010  0.00  0.00    +0.197 C 
ATOM      8  O   UNL     1       0.002  -0.004   0.002  0.00  0.00    -0.351 OA
ENDBRANCH   1   8
BRANCH   5   9
ATOM      9  C   UNL     1       4.128  -0.595   0.128  0.00  0.00    +0.255 C 
ATOM     10  O   UNL     1       4.547   0.298  -0.569  0.00  0.00    -0.298 OA
ENDBRANCH   5   9
TORSDOF 2
