REMARK  Name = ZINC50832513
REMARK  7 active torsions:
REMARK  status: ('A' for Active; 'I' for Inactive)
REMARK    1  A    between atoms: C_1  and  C_2
REMARK    2  A    between atoms: C_7  and  O_10
REMARK    3  A    between atoms: O_10  and  C_11
REMARK    4  A    between atoms: C_11  and  C_12
REMARK    5  A    between atoms: C_14  and  N_20
REMARK    6  A    between atoms: C_17  and  N_18
REMARK    7  A    between atoms: N_18  and  C_19
REMARK                            x       y       z     vdW  Elec       q    Type
REMARK                         _______ _______ _______ _____ _____    ______ ____
ROOT
ATOM      1  C   UNL     1      -2.171  -4.224   1.843  0.00  0.00    +0.001 A 
ATOM      2  C   UNL     1      -3.108  -3.416   1.228  0.00  0.00    +0.040 A 
ATOM      3  C   UNL     1      -4.434  -3.803   1.183  0.00  0.00    +0.127 A 
ATOM      4  C   UNL     1      -4.828  -5.000   1.754  0.00  0.00    +0.034 A 
ATOM      5  C   UNL     1      -3.897  -5.812   2.370  0.00  0.00    +0.025 A 
ATOM      6  C   UNL     1      -2.562  -5.429   2.412  0.00  0.00    +0.032 A 
ENDROOT
BRANCH   6   7
ATOM      7  N   UNL     1      -1.617  -6.251   3.030  0.00  0.00    -0.347 N 
ATOM      8  C   UNL     1      -2.031  -7.521   3.629  0.00  0.00    +0.125 C 
ATOM      9  H   UNL     1      -0.686  -5.980   3.061  0.00  0.00    +0.146 HD
ENDBRANCH   6   7
BRANCH   3  10
ATOM     10  N   UNL     1      -5.435  -2.935   0.524  0.00  0.00    +0.056 N 
ATOM     11  O   UNL     1      -5.093  -1.889   0.025  0.00  0.00    -0.126 OA
ATOM     12  O   UNL     1      -6.596  -3.273   0.484  0.00  0.00    -0.126 OA
ENDBRANCH   3  10
BRANCH   1  13
ATOM     13  C   UNL     1      -0.726  -3.801   1.891  0.00  0.00    +0.197 C 
BRANCH  13  14
ATOM     14  O   UNL     1      -0.578  -2.535   1.243  0.00  0.00    -0.372 OA
BRANCH  14  20
ATOM     15  C   UNL     1      -0.019   1.526   0.010  0.00  0.00    +0.007 C 
ATOM     16  C   UNL     1       0.002  -0.004   0.002  0.00  0.00    -0.012 C 
ATOM     17  C   UNL     1       0.718  -0.497  -1.257  0.00  0.00    +0.003 C 
ATOM     18  C   UNL     1       0.739  -2.027  -1.265  0.00  0.00    +0.003 C 
ATOM     19  C   UNL     1       1.479  -2.534  -0.026  0.00  0.00    +0.031 C 
ATOM     20  C   UNL     1       0.763  -2.041   1.233  0.00  0.00    +0.119 C 
ATOM     21  C   UNL     1       0.742  -0.511   1.242  0.00  0.00    +0.035 C 
ENDBRANCH  14  20
ENDBRANCH  13  14
ENDBRANCH   1  13
TORSDOF 5
