REMARK  Name = ZINC11663146
REMARK  9 active torsions:
REMARK  status: ('A' for Active; 'I' for Inactive)
REMARK    1  A    between atoms: C_1  and  C_2
REMARK    2  A    between atoms: C_4  and  C_27
REMARK    3  A    between atoms: C_6  and  C_8
REMARK    4  A    between atoms: C_13  and  N_68
REMARK    5  A    between atoms: C_18  and  C_21
REMARK    6  A    between atoms: N_23  and  C_24
REMARK    7  A    between atoms: C_27  and  C_28
REMARK    8  A    between atoms: C_28  and  C_29
REMARK    9  A    between atoms: C_28  and  C_30
REMARK                            x       y       z     vdW  Elec       q    Type
REMARK                         _______ _______ _______ _____ _____    ______ ____
ROOT
ATOM      1  C   UNL     1       1.792   2.892   0.934  0.00  0.00    +0.265 C 
ATOM      2  O   UNL     1       2.890   3.394   0.804  0.00  0.00    -0.268 OA
ATOM      3  N   UNL     1       1.444   1.828   0.184  0.00  0.00    -0.296 N 
ATOM      4  C   UNL     1       0.188   1.110   0.441  0.00  0.00    +0.106 C 
ATOM      5  C   UNL     1       0.500  -0.379   0.626  0.00  0.00    +0.004 C 
ATOM      6  C   UNL     1       1.279  -0.888  -0.589  0.00  0.00    -0.066 C 
ATOM      7  C   UNL     1       2.602  -0.127  -0.705  0.00  0.00    +0.004 C 
ATOM      8  C   UNL     1       2.313   1.364  -0.906  0.00  0.00    +0.106 C 
ENDROOT
BRANCH   1  14
ATOM      9  C   UNL     1      -2.699   3.006   2.832  0.00  0.00    +0.088 C 
ATOM     10  C   UNL     1      -1.281   3.517   2.826  0.00  0.00    +0.127 A 
ATOM     11  N   UNL     1      -0.932   4.446   3.695  0.00  0.00    -0.237 NA
ATOM     12  C   UNL     1       0.301   4.922   3.725  0.00  0.00    +0.046 A 
ATOM     13  C   UNL     1       1.238   4.428   2.829  0.00  0.00    +0.056 A 
ATOM     14  C   UNL     1       0.832   3.451   1.920  0.00  0.00    +0.129 A 
ATOM     15  N   UNL     1      -0.428   3.025   1.954  0.00  0.00    -0.228 NA
BRANCH  12  16
ATOM     16  C   UNL     1       0.685   5.983   4.725  0.00  0.00    +0.058 C 
BRANCH  16  17
ATOM     17  C   UNL     1      -0.261   7.178   4.590  0.00  0.00    -0.011 C 
ATOM     18  C   UNL     1      -1.679   6.752   4.977  0.00  0.00    +0.007 C 
ATOM     19  C   UNL     1       0.203   8.304   5.515  0.00  0.00    +0.007 C 
ENDBRANCH  16  17
ENDBRANCH  12  16
ENDBRANCH   1  14
BRANCH   6  25
ATOM     20  C   UNL     1       2.362  -2.574   0.768  0.00  0.00    -0.078 C 
ATOM     21  C   UNL     1       2.503  -4.083   0.982  0.00  0.00    -0.006 C 
ATOM     22  C   UNL     1       3.168  -4.708  -0.248  0.00  0.00    +0.071 C 
ATOM     23  C   UNL     1       2.329  -4.390  -1.488  0.00  0.00    -0.006 C 
ATOM     24  C   UNL     1       2.193  -2.872  -1.631  0.00  0.00    -0.078 C 
ATOM     25  N   UNL     1       1.524  -2.335  -0.426  0.00  0.00    +0.382 N 
ATOM     26  H   UNL     1       0.625  -2.814  -0.303  0.00  0.00    -0.081 HD
BRANCH  22  27
ATOM     27  C   UNL     1       3.255  -6.202  -0.068  0.00  0.00    +0.216 C 
ATOM     28  O   UNL     1       2.701  -6.941  -0.855  0.00  0.00    -0.276 OA
ATOM     29  N   UNL     1       3.949  -6.717   0.966  0.00  0.00    -0.312 N 
ATOM     30  H   UNL     1       4.392  -6.126   1.595  0.00  0.00    +0.149 HD
BRANCH  29  31
ATOM     31  C   UNL     1       4.034  -8.169   1.141  0.00  0.00    +0.073 C 
ATOM     32  C   UNL     1       3.849  -8.722   2.555  0.00  0.00    +0.024 C 
ATOM     33  C   UNL     1       5.237  -8.719   1.909  0.00  0.00    +0.024 C 
ENDBRANCH  29  31
ENDBRANCH  22  27
ENDBRANCH   6  25
TORSDOF 6
