REMARK  Name = ZINC15626004
REMARK  7 active torsions:
REMARK  status: ('A' for Active; 'I' for Inactive)
REMARK    1  A    between atoms: C_1  and  C_2
REMARK    2  A    between atoms: C_2  and  C_4
REMARK    3  A    between atoms: C_2  and  N_12
REMARK    4  A    between atoms: C_13  and  C_15
REMARK    5  A    between atoms: C_15  and  N_16
REMARK    6  A    between atoms: N_23  and  C_24
REMARK    7  A    between atoms: N_25  and  C_28
REMARK                            x       y       z     vdW  Elec       q    Type
REMARK                         _______ _______ _______ _____ _____    ______ ____
ROOT
ATOM      1  N   UNL     1      -0.011   0.966   0.007  0.00  0.00    -0.307 N 
ATOM      2  C   UNL     1      -1.187   1.624   0.017  0.00  0.00    +0.234 C 
ATOM      3  O   UNL     1      -1.204   2.837   0.023  0.00  0.00    -0.274 OA
ATOM      4  H   UNL     1       0.002  -0.004   0.002  0.00  0.00    +0.149 HD
ENDROOT
BRANCH   1   6
ATOM      5  C   UNL     1       1.635   2.077   1.435  0.00  0.00    +0.033 C 
ATOM      6  C   UNL     1       1.248   1.716  -0.001  0.00  0.00    +0.100 C 
BRANCH   6   7
ATOM      7  C   UNL     1       2.332   0.870  -0.616  0.00  0.00    -0.026 A 
ATOM      8  C   UNL     1       2.404  -0.480  -0.326  0.00  0.00    +0.007 A 
ATOM      9  C   UNL     1       3.395  -1.258  -0.894  0.00  0.00    +0.022 A 
ATOM     10  C   UNL     1       4.323  -0.684  -1.744  0.00  0.00    +0.059 A 
ATOM     11  C   UNL     1       4.255   0.668  -2.030  0.00  0.00    +0.060 A 
ATOM     12  C   UNL     1       3.259   1.445  -1.465  0.00  0.00    +0.027 A 
ATOM     13 CL   UNL     1       5.419   1.391  -3.096  0.00  0.00    -0.082 Cl
ATOM     14 CL   UNL     1       5.573  -1.660  -2.451  0.00  0.00    -0.082 Cl
ENDBRANCH   6   7
ENDBRANCH   1   6
BRANCH   2  15
ATOM     15  C   UNL     1      -2.482   0.853   0.018  0.00  0.00    +0.225 C 
BRANCH  15  16
ATOM     16  N   UNL     1      -3.608   1.789   0.029  0.00  0.00    -0.250 N 
ATOM     17  C   UNL     1      -4.125   2.221  -1.141  0.00  0.00    +0.283 A 
ATOM     18  O   UNL     1      -3.660   1.835  -2.199  0.00  0.00    -0.265 OA
ATOM     19  C   UNL     1      -5.210   3.123  -1.124  0.00  0.00    +0.151 A 
ATOM     20  C   UNL     1      -5.720   3.546   0.098  0.00  0.00    +0.168 A 
ATOM     21  N   UNL     1      -6.726   4.384  -0.163  0.00  0.00    -0.218 NA
ATOM     22  C   UNL     1      -6.875   4.510  -1.457  0.00  0.00    +0.202 A 
ATOM     23  N   UNL     1      -5.963   3.752  -2.095  0.00  0.00    -0.328 N 
ATOM     24  C   UNL     1      -5.800   3.620  -3.545  0.00  0.00    +0.150 C 
ATOM     25  N   UNL     1      -5.146   3.066   1.264  0.00  0.00    -0.280 N 
ATOM     26  C   UNL     1      -4.115   2.202   1.203  0.00  0.00    +0.334 A 
ATOM     27  O   UNL     1      -3.627   1.788   2.238  0.00  0.00    -0.246 OA
ATOM     28  C   UNL     1      -5.666   3.495   2.565  0.00  0.00    +0.155 C 
ENDBRANCH  15  16
ENDBRANCH   2  15
TORSDOF 4
