REMARK  Name = ZINC18200848
REMARK  8 active torsions:
REMARK  status: ('A' for Active; 'I' for Inactive)
REMARK    1  A    between atoms: C_1  and  O_2
REMARK    2  A    between atoms: O_2  and  C_3
REMARK    3  A    between atoms: C_5  and  C_13
REMARK    4  A    between atoms: C_7  and  O_11
REMARK    5  A    between atoms: C_8  and  O_9
REMARK    6  A    between atoms: O_9  and  C_10
REMARK    7  A    between atoms: O_11  and  C_12
REMARK    8  A    between atoms: C_18  and  C_23
REMARK                            x       y       z     vdW  Elec       q    Type
REMARK                         _______ _______ _______ _____ _____    ______ ____
ROOT
ATOM      1  C   UNL     1      -5.047   4.644   0.058  0.00  0.00    +0.176 C 
ATOM      2  C   UNL     1      -3.828   3.749   0.100  0.00  0.00    +0.041 C 
ATOM      3  C   UNL     1      -3.256   3.370   1.263  0.00  0.00    +0.020 C 
ATOM      4  C   UNL     1      -2.050   2.461   1.274  0.00  0.00    +0.060 C 
ATOM      5  C   UNL     1      -1.206   2.714   0.023  0.00  0.00    +0.039 C 
ATOM      6  C   UNL     1      -2.079   2.454  -1.209  0.00  0.00    +0.088 C 
ATOM      7  C   UNL     1      -3.302   3.326  -1.134  0.00  0.00    +0.164 C 
ATOM      8  O   UNL     1      -3.848   3.672  -2.163  0.00  0.00    -0.292 OA
ATOM      9  N   UNL     1      -3.738   3.793   2.478  0.00  0.00    -0.287 N 
ATOM     10  C   UNL     1      -4.636   4.848   2.492  0.00  0.00    +0.220 A 
ATOM     11  N   UNL     1      -5.257   5.263   1.360  0.00  0.00    -0.219 N 
ATOM     12  N   UNL     1      -6.075   6.332   1.723  0.00  0.00    -0.132 NA
ATOM     13  C   UNL     1      -5.919   6.505   3.018  0.00  0.00    +0.233 A 
ATOM     14  N   UNL     1      -5.044   5.599   3.478  0.00  0.00    -0.180 NA
ATOM     15  N   UNL     1      -6.561   7.475   3.789  0.00  0.00    -0.326 N 
ATOM     16  H   UNL     1      -3.456   3.367   3.303  0.00  0.00    +0.155 HD
ATOM     17  H   UNL     1      -7.182   8.093   3.372  0.00  0.00    +0.145 HD
ATOM     18  H   UNL     1      -6.386   7.532   4.741  0.00  0.00    +0.145 HD
ENDROOT
BRANCH   1  21
ATOM     19  C   UNL     1      -8.087   3.367  -1.790  0.00  0.00    +0.166 A 
ATOM     20  C   UNL     1      -6.973   4.120  -1.451  0.00  0.00    +0.055 A 
ATOM     21  C   UNL     1      -6.258   3.822  -0.306  0.00  0.00    -0.011 A 
ATOM     22  C   UNL     1      -6.645   2.771   0.502  0.00  0.00    +0.055 A 
ATOM     23  C   UNL     1      -7.761   2.016   0.173  0.00  0.00    +0.166 A 
ATOM     24  C   UNL     1      -8.484   2.312  -0.977  0.00  0.00    +0.204 A 
BRANCH  19  26
ATOM     25  C   UNL     1      -8.325   4.757  -3.705  0.00  0.00    +0.277 C 
ATOM     26  O   UNL     1      -8.790   3.659  -2.917  0.00  0.00    -0.491 OA
ENDBRANCH  19  26
BRANCH  24  27
ATOM     27  O   UNL     1      -9.576   1.569  -1.306  0.00  0.00    -0.488 OA
ATOM     28  C   UNL     1      -9.357   0.423  -2.131  0.00  0.00    +0.277 C 
ENDBRANCH  24  27
BRANCH  23  29
ATOM     29  O   UNL     1      -8.146   0.985   0.973  0.00  0.00    -0.491 OA
ATOM     30  C   UNL     1      -7.356   0.739   2.138  0.00  0.00    +0.277 C 
ENDBRANCH  23  29
ENDBRANCH   1  21
BRANCH   5  31
ATOM     31  C   UNL     1      -0.022   1.781   0.012  0.00  0.00    -0.006 A 
ATOM     32  C   UNL     1       1.300   2.079   0.001  0.00  0.00    +0.011 A 
ATOM     33  C   UNL     1       2.220   1.048  -0.013  0.00  0.00    +0.008 A 
ATOM     34  C   UNL     1       1.773  -0.232  -0.016  0.00  0.00    +0.045 A 
ATOM     35  S   UNL     1       0.002  -0.004   0.002  0.00  0.00    -0.101 S 
ENDBRANCH   5  31
TORSDOF 5
