REMARK  Name = ZINC49182887
REMARK  7 active torsions:
REMARK  status: ('A' for Active; 'I' for Inactive)
REMARK    1  A    between atoms: C_1  and  C_2
REMARK    2  A    between atoms: C_6  and  C_7
REMARK    3  A    between atoms: N_9  and  N_10
REMARK    4  A    between atoms: N_13  and  C_14
REMARK    5  A    between atoms: C_14  and  C_15
REMARK    6  A    between atoms: C_15  and  C_16
REMARK    7  A    between atoms: C_15  and  C_17
REMARK                            x       y       z     vdW  Elec       q    Type
REMARK                         _______ _______ _______ _____ _____    ______ ____
ROOT
ATOM      1  C   UNL     1       0.031  -0.395   2.495  0.00  0.00    +0.296 C 
ATOM      2  O   UNL     1       0.018   0.792   2.767  0.00  0.00    -0.265 OA
ATOM      3  N   UNL     1       0.053  -1.312   3.481  0.00  0.00    -0.227 N 
ATOM      4  H   UNL     1       0.064  -2.258   3.264  0.00  0.00    +0.173 HD
ENDROOT
BRANCH   1  10
ATOM      5  C   UNL     1      -0.018   1.503   0.010  0.00  0.00    +0.048 C 
ATOM      6  C   UNL     1       0.002  -0.004   0.002  0.00  0.00    +0.001 A 
ATOM      7  C   UNL     1       0.009  -0.835  -1.128  0.00  0.00    +0.061 A 
ATOM      8  C   UNL     1       0.028  -2.113  -0.683  0.00  0.00    +0.171 A 
ATOM      9  O   UNL     1       0.033  -2.102   0.656  0.00  0.00    -0.443 OA
ATOM     10  C   UNL     1       0.024  -0.825   1.094  0.00  0.00    +0.195 A 
ATOM     11 BR   UNL     1       0.044  -3.658  -1.772  0.00  0.00    -0.008 Br
ENDBRANCH   1  10
BRANCH   3  12
ATOM     12  N   UNL     1       0.060  -0.901   4.821  0.00  0.00    -0.218 N 
ATOM     13  C   UNL     1       0.082  -1.819   5.807  0.00  0.00    +0.316 C 
ATOM     14  O   UNL     1       0.088  -1.462   6.970  0.00  0.00    -0.251 OA
ATOM     15  N   UNL     1       0.097  -3.132   5.506  0.00  0.00    -0.298 N 
ATOM     16  H   UNL     1       0.049   0.044   5.038  0.00  0.00    +0.174 HD
ATOM     17  H   UNL     1       0.092  -3.417   4.579  0.00  0.00    +0.150 HD
BRANCH  15  18
ATOM     18  C   UNL     1       0.121  -4.130   6.578  0.00  0.00    +0.108 C 
BRANCH  18  19
ATOM     19  C   UNL     1       0.134  -5.533   5.969  0.00  0.00    -0.000 C 
ATOM     20  C   UNL     1       1.437  -5.741   5.195  0.00  0.00    +0.009 C 
ATOM     21  C   UNL     1       0.033  -6.575   7.086  0.00  0.00    +0.009 C 
ENDBRANCH  18  19
ENDBRANCH  15  18
ENDBRANCH   3  12
TORSDOF 4
