REMARK  Name = ZINC39659018
REMARK  6 active torsions:
REMARK  status: ('A' for Active; 'I' for Inactive)
REMARK    1  A    between atoms: C_1  and  C_2
REMARK    2  A    between atoms: C_2  and  C_39
REMARK    3  A    between atoms: C_5  and  C_8
REMARK    4  A    between atoms: C_8  and  N_9
REMARK    5  A    between atoms: C_10  and  C_12
REMARK    6  A    between atoms: C_23  and  C_25
REMARK                            x       y       z     vdW  Elec       q    Type
REMARK                         _______ _______ _______ _____ _____    ______ ____
ROOT
ATOM      1  C   UNL     1       3.729  -1.267   5.438  0.00  0.00    +0.100 C 
ATOM      2  C   UNL     1       2.342  -0.948   6.037  0.00  0.00    +0.121 C 
ATOM      3  N   UNL     1       1.944  -2.188   6.743  0.00  0.00    -0.296 N 
ATOM      4  C   UNL     1       3.196  -2.674   7.370  0.00  0.00    +0.115 C 
ATOM      5  C   UNL     1       4.288  -2.398   6.317  0.00  0.00    -0.004 C 
ATOM      6  C   UNL     1       4.537  -3.647   5.477  0.00  0.00    -0.010 C 
ATOM      7  C   UNL     1       5.146  -4.739   6.362  0.00  0.00    -0.082 C 
ATOM      8  N   UNL     1       6.405  -4.256   6.942  0.00  0.00    +0.379 N 
ATOM      9  C   UNL     1       6.144  -3.110   7.822  0.00  0.00    -0.082 C 
ATOM     10  C   UNL     1       5.578  -1.950   6.999  0.00  0.00    -0.010 C 
ATOM     11  C   UNL     1       0.720  -2.749   6.802  0.00  0.00    +0.247 C 
ATOM     12  O   UNL     1       0.532  -3.728   7.498  0.00  0.00    -0.270 OA
ATOM     13  H   UNL     1       6.834  -4.997   7.475  0.00  0.00    -0.086 HD
ATOM     14  H   UNL     1       7.028  -3.974   6.200  0.00  0.00    -0.086 HD
ENDROOT
BRANCH  11  15
ATOM     15  C   UNL     1      -0.394  -2.175   6.019  0.00  0.00    +0.045 A 
ATOM     16  C   UNL     1      -0.670  -0.804   6.091  0.00  0.00    +0.014 A 
ATOM     17  C   UNL     1      -1.708  -0.266   5.362  0.00  0.00    +0.001 A 
ATOM     18  C   UNL     1      -2.490  -1.073   4.551  0.00  0.00    +0.012 A 
ATOM     19  C   UNL     1      -2.233  -2.437   4.466  0.00  0.00    +0.031 A 
ATOM     20  C   UNL     1      -1.175  -2.998   5.198  0.00  0.00    +0.006 A 
ATOM     21  C   UNL     1      -1.122  -4.455   4.919  0.00  0.00    -0.006 A 
ATOM     22  C   UNL     1      -0.282  -5.458   5.383  0.00  0.00    +0.009 A 
ATOM     23  C   UNL     1      -0.456  -6.764   4.951  0.00  0.00    +0.001 A 
ATOM     24  C   UNL     1      -1.462  -7.077   4.059  0.00  0.00    +0.001 A 
ATOM     25  C   UNL     1      -2.309  -6.088   3.586  0.00  0.00    +0.012 A 
ATOM     26  C   UNL     1      -2.146  -4.776   4.011  0.00  0.00    +0.030 A 
ATOM     27  C   UNL     1      -2.884  -3.527   3.701  0.00  0.00    +0.194 C 
ATOM     28  O   UNL     1      -3.834  -3.417   2.953  0.00  0.00    -0.287 OA
ENDBRANCH  11  15
BRANCH   1  30
ATOM     29  N   UNL     1       4.582  -1.502   3.128  0.00  0.00    -0.312 N 
ATOM     30  C   UNL     1       3.590  -1.732   4.011  0.00  0.00    +0.218 C 
ATOM     31  O   UNL     1       2.586  -2.314   3.658  0.00  0.00    -0.275 OA
ATOM     32  H   UNL     1       5.385  -1.037   3.410  0.00  0.00    +0.149 HD
BRANCH  29  33
ATOM     33  C   UNL     1       4.447  -1.954   1.741  0.00  0.00    +0.138 C 
BRANCH  33  38
ATOM     34  C   UNL     1       8.050   0.265  -0.014  0.00  0.00    +0.074 C 
ATOM     35  C   UNL     1       6.580   0.060  -0.387  0.00  0.00    +0.165 C 
ATOM     36  O   UNL     1       6.451  -1.103  -1.216  0.00  0.00    -0.347 OA
ATOM     37  C   UNL     1       5.596  -2.032  -0.520  0.00  0.00    +0.196 C 
ATOM     38  C   UNL     1       5.702  -1.570   0.955  0.00  0.00    +0.164 C 
ATOM     39  O   UNL     1       5.801  -0.133   0.806  0.00  0.00    -0.342 OA
ATOM     40  C   UNL     1       6.066   1.286  -1.144  0.00  0.00    +0.074 C 
ENDBRANCH  33  38
ENDBRANCH  29  33
ENDBRANCH   1  30
TORSDOF 4
