REMARK  Name = ZINC59040016
REMARK  12 active torsions:
REMARK  status: ('A' for Active; 'I' for Inactive)
REMARK    1  A    between atoms: C_1  and  C_2
REMARK    2  A    between atoms: C_5  and  N_9
REMARK    3  A    between atoms: C_7  and  C_8
REMARK    4  A    between atoms: C_10  and  C_12
REMARK    5  A    between atoms: C_12  and  S_13
REMARK    6  A    between atoms: S_13  and  C_14
REMARK    7  A    between atoms: N_19  and  N_20
REMARK    8  A    between atoms: C_21  and  C_22
REMARK    9  A    between atoms: C_24  and  O_32
REMARK   10  A    between atoms: C_25  and  O_31
REMARK   11  A    between atoms: C_27  and  N_28
REMARK   12  A    between atoms: O_32  and  C_33
REMARK                            x       y       z     vdW  Elec       q    Type
REMARK                         _______ _______ _______ _____ _____    ______ ____
ROOT
ATOM      1  C   UNL     1      -0.465  -8.681  -2.727  0.00  0.00    +0.211 A 
ATOM      2  N   UNL     1      -0.543  -9.554  -3.726  0.00  0.00    -0.186 NA
ATOM      3  C   UNL     1      -0.584 -10.770  -3.191  0.00  0.00    +0.232 A 
ATOM      4  N   UNL     1      -0.529 -10.615  -1.831  0.00  0.00    -0.245 N 
ATOM      5  N   UNL     1      -0.453  -9.354  -1.577  0.00  0.00    -0.144 NA
ATOM      6  N   UNL     1      -0.666 -11.939  -3.862  0.00  0.00    -0.205 N 
ATOM      7  H   UNL     1      -0.691 -12.778  -3.375  0.00  0.00    +0.177 HD
ATOM      8  H   UNL     1      -0.542 -11.330  -1.175  0.00  0.00    +0.192 HD
ENDROOT
BRANCH   6   9
ATOM      9  N   UNL     1      -0.712 -11.941  -5.151  0.00  0.00    -0.187 NA
ATOM     10  C   UNL     1      -0.792 -13.092  -5.812  0.00  0.00    +0.140 C 
BRANCH  10  11
ATOM     11  C   UNL     1      -0.842 -13.094  -7.217  0.00  0.00    +0.028 A 
ATOM     12  C   UNL     1      -0.692 -11.886  -7.934  0.00  0.00    +0.061 A 
ATOM     13  C   UNL     1      -0.742 -11.896  -9.296  0.00  0.00    +0.162 A 
ATOM     14  C   UNL     1      -0.941 -13.107  -9.986  0.00  0.00    +0.161 A 
ATOM     15  C   UNL     1      -1.089 -14.304  -9.280  0.00  0.00    +0.082 A 
ATOM     16  C   UNL     1      -1.036 -14.309  -7.920  0.00  0.00    +0.138 A 
BRANCH  16  17
ATOM     17  N   UNL     1      -1.187 -15.580  -7.176  0.00  0.00    +0.057 N 
ATOM     18  O   UNL     1      -1.478 -16.691  -7.823  0.00  0.00    -0.126 OA
ATOM     19  O   UNL     1      -1.031 -15.601  -5.869  0.00  0.00    -0.126 OA
ENDBRANCH  16  17
BRANCH  14  20
ATOM     20  O   UNL     1      -0.989 -13.111 -11.337  0.00  0.00    -0.503 OA
ATOM     21  H   UNL     1      -0.130 -13.239 -11.761  0.00  0.00    +0.292 HD
ENDBRANCH  14  20
BRANCH  13  22
ATOM     22  O   UNL     1      -0.599 -10.736  -9.989  0.00  0.00    -0.491 OA
ATOM     23  C   UNL     1      -0.401  -9.545  -9.226  0.00  0.00    +0.277 C 
ENDBRANCH  13  22
ENDBRANCH  10  11
ENDBRANCH   6   9
BRANCH   1  24
ATOM     24  S   UNL     1      -0.384  -6.929  -2.895  0.00  0.00    -0.075 S 
BRANCH  24  25
ATOM     25  C   UNL     1      -0.286  -6.328  -1.187  0.00  0.00    +0.173 C 
BRANCH  25  27
ATOM     26  N   UNL     1      -0.131  -4.152  -0.021  0.00  0.00    -0.285 N 
ATOM     27  C   UNL     1      -0.211  -4.823  -1.187  0.00  0.00    +0.227 C 
ATOM     28  O   UNL     1      -0.222  -4.215  -2.236  0.00  0.00    -0.275 OA
ATOM     29  H   UNL     1      -0.035  -4.638   0.813  0.00  0.00    +0.155 HD
BRANCH  26  34
ATOM     30  C   UNL     1      -0.357   1.517   0.013  0.00  0.00    +0.044 C 
ATOM     31  C   UNL     1      -0.297   0.011   0.004  0.00  0.00    -0.047 A 
ATOM     32  C   UNL     1      -0.892  -0.698  -1.024  0.00  0.00    +0.005 A 
ATOM     33  C   UNL     1      -0.839  -2.077  -1.035  0.00  0.00    +0.023 A 
ATOM     34  C   UNL     1      -0.186  -2.754  -0.013  0.00  0.00    +0.034 A 
ATOM     35  C   UNL     1       0.411  -2.040   1.018  0.00  0.00    +0.027 A 
ATOM     36  C   UNL     1       0.358  -0.659   1.020  0.00  0.00    -0.046 A 
ATOM     37  C   UNL     1       1.011   0.117   2.135  0.00  0.00    +0.044 C 
ENDBRANCH  26  34
ENDBRANCH  25  27
ENDBRANCH  24  25
ENDBRANCH   1  24
TORSDOF 9
