REMARK  Name = ZINC06821131
REMARK  10 active torsions:
REMARK  status: ('A' for Active; 'I' for Inactive)
REMARK    1  A    between atoms: C_1  and  C_2
REMARK    2  A    between atoms: C_2  and  C_3
REMARK    3  A    between atoms: C_3  and  C_5
REMARK    4  A    between atoms: C_3  and  N_14
REMARK    5  A    between atoms: N_7  and  C_8
REMARK    6  A    between atoms: N_14  and  C_15
REMARK    7  A    between atoms: C_15  and  C_16
REMARK    8  A    between atoms: C_21  and  C_23
REMARK    9  A    between atoms: C_24  and  N_31
REMARK   10  A    between atoms: C_25  and  C_28
REMARK                            x       y       z     vdW  Elec       q    Type
REMARK                         _______ _______ _______ _____ _____    ______ ____
ROOT
ATOM      1  N   UNL     1      -2.271  -0.327  -0.983  0.00  0.00    -0.281 N 
ATOM      2  C   UNL     1      -3.357   0.466  -1.073  0.00  0.00    +0.257 C 
ATOM      3  O   UNL     1      -3.669   1.180  -0.137  0.00  0.00    -0.269 OA
ENDROOT
BRANCH   2   4
ATOM      4  C   UNL     1      -4.163   0.468  -2.295  0.00  0.00    +0.115 A 
ATOM      5  C   UNL     1      -5.241   1.284  -2.642  0.00  0.00    +0.076 A 
ATOM      6  C   UNL     1      -5.771   0.998  -3.899  0.00  0.00    +0.155 A 
ATOM      7  N   UNL     1      -5.241   0.034  -4.622  0.00  0.00    -0.203 NA
ATOM      8  S   UNL     1      -4.024  -0.565  -3.740  0.00  0.00    +0.019 S 
BRANCH   6   9
ATOM      9  C   UNL     1      -6.916   1.771  -4.415  0.00  0.00    +0.262 C 
ATOM     10  O   UNL     1      -7.340   2.722  -3.788  0.00  0.00    -0.269 OA
ATOM     11  N   UNL     1      -7.492   1.422  -5.583  0.00  0.00    -0.324 N 
ATOM     12  H   UNL     1      -7.153   0.664  -6.083  0.00  0.00    +0.145 HD
ATOM     13  H   UNL     1      -8.245   1.930  -5.922  0.00  0.00    +0.145 HD
ENDBRANCH   6   9
BRANCH   5  14
ATOM     14  N   UNL     1      -5.738   2.282  -1.815  0.00  0.00    -0.355 N 
ATOM     15  H   UNL     1      -5.271   2.510  -0.996  0.00  0.00    +0.142 HD
ATOM     16  H   UNL     1      -6.553   2.750  -2.055  0.00  0.00    +0.142 HD
ENDBRANCH   5  14
ENDBRANCH   2   4
BRANCH   1  17
ATOM     17  C   UNL     1      -1.520  -0.401   0.273  0.00  0.00    +0.162 C 
BRANCH  17  18
ATOM     18  C   UNL     1      -1.553  -1.814   0.795  0.00  0.00    +0.234 C 
ATOM     19  O   UNL     1      -2.031  -2.699   0.119  0.00  0.00    -0.274 OA
ATOM     20  N   UNL     1      -1.053  -2.093   2.015  0.00  0.00    -0.311 N 
ATOM     21  H   UNL     1      -0.671  -1.384   2.557  0.00  0.00    +0.149 HD
BRANCH  20  22
ATOM     22  C   UNL     1      -1.085  -3.466   2.524  0.00  0.00    +0.073 C 
ATOM     23  C   UNL     1      -2.441  -3.735   3.180  0.00  0.00    +0.022 C 
ATOM     24  C   UNL     1      -2.475  -5.170   3.711  0.00  0.00    +0.002 C 
ATOM     25  C   UNL     1      -1.363  -5.358   4.744  0.00  0.00    +0.000 C 
ATOM     26  C   UNL     1      -0.007  -5.089   4.088  0.00  0.00    +0.002 C 
ATOM     27  C   UNL     1       0.027  -3.655   3.557  0.00  0.00    +0.022 C 
ENDBRANCH  20  22
ENDBRANCH  17  18
BRANCH  17  29
ATOM     28  C   UNL     1      -0.022   1.498  -0.355  0.00  0.00    +0.006 C 
ATOM     29  C   UNL     1      -0.069   0.017   0.024  0.00  0.00    +0.028 C 
ENDBRANCH  17  29
ENDBRANCH   1  17
BRANCH   1  30
ATOM     30  C   UNL     1      -1.841  -1.114  -2.141  0.00  0.00    +0.151 C 
BRANCH  30  31
ATOM     31  C   UNL     1      -1.013  -0.249  -3.057  0.00  0.00    +0.007 A 
ATOM     32  C   UNL     1       0.335  -0.133  -3.134  0.00  0.00    +0.013 A 
ATOM     33  C   UNL     1       0.882   0.732  -4.062  0.00  0.00    +0.008 A 
ATOM     34  C   UNL     1       0.054   1.440  -4.869  0.00  0.00    +0.045 A 
ATOM     35  S   UNL     1      -1.554   0.882  -4.327  0.00  0.00    -0.100 S 
ENDBRANCH  30  31
ENDBRANCH   1  30
TORSDOF 9
