REMARK  Name = ZINC08430495
REMARK  4 active torsions:
REMARK  status: ('A' for Active; 'I' for Inactive)
REMARK    1  A    between atoms: C_1  and  C_2
REMARK    2  A    between atoms: C_5  and  C_8
REMARK    3  A    between atoms: C_13  and  C_23
REMARK    4  A    between atoms: C_29  and  C_34
REMARK                            x       y       z     vdW  Elec       q    Type
REMARK                         _______ _______ _______ _____ _____    ______ ____
ROOT
ATOM      1  C   UNL     1       7.622  -2.059   3.680  0.00  0.00    +0.032 C 
ATOM      2  C   UNL     1       7.863  -0.560   3.511  0.00  0.00    +0.059 C 
ATOM      3  C   UNL     1       7.582  -0.150   2.074  0.00  0.00    +0.017 C 
ATOM      4  C   UNL     1       6.632  -0.776   1.361  0.00  0.00    +0.037 C 
ATOM      5  C   UNL     1       6.235  -0.455  -0.061  0.00  0.00    +0.143 C 
ATOM      6  N   UNL     1       7.140   0.441  -0.748  0.00  0.00    -0.331 N 
ATOM      7  C   UNL     1       7.314   1.757  -0.322  0.00  0.00    +0.049 A 
ATOM      8  C   UNL     1       6.879   2.828  -1.087  0.00  0.00    +0.025 A 
ATOM      9  C   UNL     1       6.974   4.111  -0.576  0.00  0.00    +0.002 A 
ATOM     10  C   UNL     1       7.499   4.325   0.685  0.00  0.00    +0.002 A 
ATOM     11  C   UNL     1       7.953   3.260   1.444  0.00  0.00    +0.025 A 
ATOM     12  C   UNL     1       7.874   1.978   0.927  0.00  0.00    +0.052 A 
ATOM     13  N   UNL     1       8.353   0.869   1.616  0.00  0.00    -0.316 N 
ATOM     14  C   UNL     1       5.902  -1.846   1.931  0.00  0.00    +0.163 C 
ATOM     15  O   UNL     1       5.038  -2.384   1.267  0.00  0.00    -0.292 OA
ATOM     16  C   UNL     1       6.157  -2.339   3.323  0.00  0.00    +0.088 C 
ATOM     17  H   UNL     1       7.635   0.121  -1.518  0.00  0.00    +0.147 HD
ATOM     18  H   UNL     1       9.308   0.820   1.780  0.00  0.00    +0.152 HD
ENDROOT
BRANCH   5  19
ATOM     19  C   UNL     1       4.864   0.171  -0.044  0.00  0.00    +0.059 A 
ATOM     20  C   UNL     1       4.362   0.669   1.101  0.00  0.00    +0.205 A 
ATOM     21  O   UNL     1       3.153   1.236   1.176  0.00  0.00    -0.462 OA
ATOM     22  C   UNL     1       2.341   1.352   0.105  0.00  0.00    +0.138 A 
ATOM     23  C   UNL     1       1.090   1.946   0.217  0.00  0.00    +0.047 A 
ATOM     24  C   UNL     1       0.278   2.052  -0.892  0.00  0.00    +0.007 A 
ATOM     25  C   UNL     1       0.695   1.571  -2.124  0.00  0.00    -0.050 A 
ATOM     26  C   UNL     1       1.932   0.978  -2.257  0.00  0.00    +0.018 A 
ATOM     27  C   UNL     1       2.762   0.865  -1.143  0.00  0.00    +0.065 A 
ATOM     28  C   UNL     1       4.095   0.238  -1.235  0.00  0.00    +0.198 A 
ATOM     29  O   UNL     1       4.517  -0.203  -2.290  0.00  0.00    -0.287 OA
ATOM     30  C   UNL     1      -0.209   1.697  -3.324  0.00  0.00    +0.044 C 
ENDBRANCH   5  19
BRANCH   1  35
ATOM     31  C   UNL     1       8.632  -3.599   9.158  0.00  0.00    +0.044 C 
ATOM     32  C   UNL     1       8.369  -3.197   7.729  0.00  0.00    -0.050 A 
ATOM     33  C   UNL     1       9.076  -3.792   6.702  0.00  0.00    +0.003 A 
ATOM     34  C   UNL     1       8.835  -3.424   5.392  0.00  0.00    +0.004 A 
ATOM     35  C   UNL     1       7.885  -2.461   5.109  0.00  0.00    -0.043 A 
ATOM     36  C   UNL     1       7.181  -1.861   6.136  0.00  0.00    +0.004 A 
ATOM     37  C   UNL     1       7.420  -2.232   7.446  0.00  0.00    +0.003 A 
ENDBRANCH   1  35
TORSDOF 2
