REMARK  Name = ZINC63216246
REMARK  3 active torsions:
REMARK  status: ('A' for Active; 'I' for Inactive)
REMARK    1  A    between atoms: C_3  and  C_6
REMARK    2  A    between atoms: C_6  and  C_7
REMARK    3  A    between atoms: C_9  and  C_12
REMARK                            x       y       z     vdW  Elec       q    Type
REMARK                         _______ _______ _______ _____ _____    ______ ____
ROOT
ATOM      1  C   UNL     1       4.247   2.008   1.393  0.00  0.00    +0.177 A 
ATOM      2  N   UNL     1       4.125   3.113   2.131  0.00  0.00    -0.191 NA
ATOM      3  C   UNL     1       4.654   2.921   3.319  0.00  0.00    +0.260 A 
ATOM      4  O   UNL     1       5.133   1.665   3.362  0.00  0.00    -0.333 OA
ATOM      5  N   UNL     1       4.850   1.090   2.095  0.00  0.00    -0.061 NA
ENDROOT
BRANCH   3   6
ATOM      6  C   UNL     1       4.713   3.909   4.414  0.00  0.00    +0.058 A 
ATOM      7  C   UNL     1       5.313   3.580   5.638  0.00  0.00    +0.018 A 
ATOM      8  C   UNL     1       5.345   4.528   6.626  0.00  0.00    +0.044 A 
ATOM      9  C   UNL     1       4.785   5.782   6.388  0.00  0.00    +0.116 A 
ATOM     10  N   UNL     1       4.224   6.067   5.221  0.00  0.00    -0.240 NA
ATOM     11  C   UNL     1       4.177   5.186   4.243  0.00  0.00    +0.126 A 
ATOM     12  N   UNL     1       4.815   6.744   7.386  0.00  0.00    -0.343 N 
ATOM     13  H   UNL     1       5.224   6.543   8.242  0.00  0.00    +0.144 HD
ATOM     14  H   UNL     1       4.428   7.619   7.227  0.00  0.00    +0.144 HD
ENDBRANCH   3   6
BRANCH   1  15
ATOM     15  C   UNL     1       3.761   1.845  -0.024  0.00  0.00    +0.122 C 
BRANCH  15  18
ATOM     16  C   UNL     1      -0.016   1.351   0.009  0.00  0.00    +0.008 A 
ATOM     17  C   UNL     1       1.183   2.038   0.002  0.00  0.00    +0.011 A 
ATOM     18  C   UNL     1       2.343   1.336  -0.013  0.00  0.00    -0.003 A 
ATOM     19  S   UNL     1       1.754  -0.349  -0.017  0.00  0.00    -0.101 S 
ATOM     20  C   UNL     1       0.002  -0.004   0.002  0.00  0.00    +0.045 A 
ENDBRANCH  15  18
ENDBRANCH   1  15
TORSDOF 3
