REMARK  Name = ZINC44819276
REMARK  9 active torsions:
REMARK  status: ('A' for Active; 'I' for Inactive)
REMARK    1  A    between atoms: C_1  and  C_2
REMARK    2  A    between atoms: C_2  and  C_3
REMARK    3  A    between atoms: C_3  and  C_5
REMARK    4  A    between atoms: C_3  and  N_6
REMARK    5  A    between atoms: C_7  and  C_9
REMARK    6  A    between atoms: C_10  and  C_19
REMARK    7  A    between atoms: C_12  and  C_18
REMARK    8  A    between atoms: C_13  and  S_14
REMARK    9  A    between atoms: S_14  and  N_17
REMARK                            x       y       z     vdW  Elec       q    Type
REMARK                         _______ _______ _______ _____ _____    ______ ____
ROOT
ATOM      1  C   UNL     1      -0.217   0.414  -4.822  0.00  0.00    +0.104 A 
ATOM      2  C   UNL     1      -0.463   1.678  -5.272  0.00  0.00    +0.116 A 
ATOM      3  O   UNL     1      -1.206   1.594  -6.380  0.00  0.00    -0.462 OA
ATOM      4  C   UNL     1      -1.465   0.313  -6.687  0.00  0.00    +0.129 A 
ATOM      5  C   UNL     1      -0.884  -0.483  -5.777  0.00  0.00    +0.158 A 
ATOM      6  C   UNL     1      -2.273  -0.155  -7.869  0.00  0.00    +0.088 C 
ATOM      7  C   UNL     1       0.019   2.952  -4.628  0.00  0.00    +0.087 C 
ENDROOT
BRANCH   1   9
ATOM      8  N   UNL     1      -0.055  -0.114  -2.441  0.00  0.00    -0.309 N 
ATOM      9  C   UNL     1       0.561   0.028  -3.631  0.00  0.00    +0.250 C 
ATOM     10  O   UNL     1       1.759  -0.163  -3.722  0.00  0.00    -0.270 OA
ATOM     11  H   UNL     1      -1.010   0.038  -2.368  0.00  0.00    +0.149 HD
BRANCH   8  12
ATOM     12  C   UNL     1       0.718  -0.497  -1.257  0.00  0.00    +0.070 C 
ATOM     13  C   UNL     1       0.849  -2.021  -1.205  0.00  0.00    +0.028 C 
BRANCH  12  15
ATOM     14  C   UNL     1      -0.019   1.526   0.010  0.00  0.00    +0.005 C 
ATOM     15  C   UNL     1       0.002  -0.004   0.002  0.00  0.00    +0.018 C 
ENDBRANCH  12  15
ENDBRANCH   8  12
ENDBRANCH   1   9
BRANCH   5  16
ATOM     16  S   UNL     1      -0.917  -2.244  -5.732  0.00  0.00    +0.060 S 
ATOM     17  O   UNL     1      -1.156  -2.680  -7.064  0.00  0.00    -0.153 OA
ATOM     18  O   UNL     1       0.224  -2.654  -4.990  0.00  0.00    -0.153 OA
BRANCH  16  19
ATOM     19  N   UNL     1      -2.243  -2.687  -4.845  0.00  0.00    -0.203 NA
ATOM     20  H   UNL     1      -2.698  -3.522  -5.036  0.00  0.00    +0.144 HD
ATOM     21  H   UNL     1      -2.565  -2.111  -4.134  0.00  0.00    +0.144 HD
ENDBRANCH  16  19
ENDBRANCH   5  16
TORSDOF 5
