REMARK  Name = ZINC13121926
REMARK  4 active torsions:
REMARK  status: ('A' for Active; 'I' for Inactive)
REMARK    1  A    between atoms: C_1  and  C_2
REMARK    2  A    between atoms: C_12  and  C_14
REMARK    3  A    between atoms: N_20  and  C_21
REMARK    4  A    between atoms: C_21  and  C_22
REMARK                            x       y       z     vdW  Elec       q    Type
REMARK                         _______ _______ _______ _____ _____    ______ ____
ROOT
ATOM      1  C   UNL     1       0.679   1.470   0.404  0.00  0.00    +0.066 C 
ATOM      2  C   UNL     1       0.515  -0.024   0.293  0.00  0.00    +0.047 C 
ATOM      3  C   UNL     1      -0.739  -0.568   0.315  0.00  0.00    +0.091 C 
ATOM      4  C   UNL     1      -0.872  -1.965   0.210  0.00  0.00    +0.249 C 
ATOM      5  O   UNL     1      -1.972  -2.491   0.225  0.00  0.00    -0.270 OA
ATOM      6  N   UNL     1       0.265  -2.717   0.090  0.00  0.00    -0.211 N 
ATOM      7  C   UNL     1       1.496  -2.115   0.074  0.00  0.00    +0.229 C 
ATOM      8  N   UNL     1       1.588  -0.793   0.171  0.00  0.00    -0.219 NA
ATOM      9  N   UNL     1       2.609  -2.849  -0.042  0.00  0.00    -0.183 NA
ATOM     10  C   UNL     1       2.621  -4.157  -0.147  0.00  0.00    +0.194 C 
ATOM     11  N   UNL     1       1.473  -4.897  -0.146  0.00  0.00    -0.335 N 
ATOM     12  C   UNL     1       0.191  -4.180  -0.022  0.00  0.00    +0.211 C 
ATOM     13  N   UNL     1       3.821  -4.799  -0.260  0.00  0.00    -0.311 N 
ATOM     14  H   UNL     1       3.848  -5.766  -0.339  0.00  0.00    +0.149 HD
ATOM     15  H   UNL     1       1.501  -5.864  -0.226  0.00  0.00    +0.164 HD
ENDROOT
BRANCH  12  16
ATOM     16  C   UNL     1      -0.523  -4.707   1.196  0.00  0.00    -0.007 A 
ATOM     17  C   UNL     1      -0.047  -4.407   2.459  0.00  0.00    +0.007 A 
ATOM     18  C   UNL     1      -0.701  -4.890   3.577  0.00  0.00    +0.000 A 
ATOM     19  C   UNL     1      -1.831  -5.672   3.432  0.00  0.00    +0.000 A 
ATOM     20  C   UNL     1      -2.308  -5.971   2.169  0.00  0.00    +0.000 A 
ATOM     21  C   UNL     1      -1.656  -5.484   1.051  0.00  0.00    +0.007 A 
ENDBRANCH  12  16
BRANCH  13  22
ATOM     22  C   UNL     1       5.067  -4.028  -0.264  0.00  0.00    +0.139 C 
BRANCH  22  23
ATOM     23  C   UNL     1       6.238  -4.967  -0.399  0.00  0.00    -0.030 A 
ATOM     24  C   UNL     1       6.833  -5.497   0.730  0.00  0.00    +0.005 A 
ATOM     25  C   UNL     1       7.907  -6.359   0.605  0.00  0.00    +0.000 A 
ATOM     26  C   UNL     1       8.386  -6.690  -0.649  0.00  0.00    +0.000 A 
ATOM     27  C   UNL     1       7.790  -6.160  -1.778  0.00  0.00    +0.000 A 
ATOM     28  C   UNL     1       6.713  -5.303  -1.653  0.00  0.00    +0.005 A 
ENDBRANCH  22  23
ENDBRANCH  13  22
TORSDOF 3
