REMARK  Name = ZINC14021025
REMARK  6 active torsions:
REMARK  status: ('A' for Active; 'I' for Inactive)
REMARK    1  A    between atoms: C_1  and  C_2
REMARK    2  A    between atoms: C_5  and  S_8
REMARK    3  A    between atoms: S_8  and  N_11
REMARK    4  A    between atoms: C_15  and  C_18
REMARK    5  A    between atoms: N_20  and  C_21
REMARK    6  A    between atoms: C_22  and  C_29
REMARK                            x       y       z     vdW  Elec       q    Type
REMARK                         _______ _______ _______ _____ _____    ______ ____
ROOT
ATOM      1  C   UNL     1       5.809   3.931   0.168  0.00  0.00    +0.222 C 
ATOM      2  O   UNL     1       6.185   2.840  -0.204  0.00  0.00    -0.275 OA
ATOM      3  N   UNL     1       4.495   4.158   0.369  0.00  0.00    -0.279 N 
ATOM      4  H   UNL     1       4.194   5.031   0.667  0.00  0.00    +0.155 HD
ENDROOT
BRANCH   3   5
ATOM      5  C   UNL     1       3.575   3.145   0.149  0.00  0.00    +0.084 A 
ATOM      6  C   UNL     1       2.199   3.185   0.299  0.00  0.00    +0.068 A 
ATOM      7  C   UNL     1       1.449   1.966  -0.001  0.00  0.00    -0.023 A 
ATOM      8  C   UNL     1       2.196   0.919  -0.395  0.00  0.00    -0.004 A 
ATOM      9  S   UNL     1       3.866   1.522  -0.377  0.00  0.00    -0.077 S 
ATOM     10  C   UNL     1       1.356  -0.297  -0.681  0.00  0.00    +0.043 C 
ATOM     11  C   UNL     1       0.002  -0.004   0.002  0.00  0.00    +0.010 C 
ATOM     12  C   UNL     1      -0.019   1.537   0.011  0.00  0.00    +0.037 C 
BRANCH   6  13
ATOM     13  C   UNL     1       1.518   4.406   0.741  0.00  0.00    +0.244 C 
ATOM     14  O   UNL     1       1.136   5.221  -0.079  0.00  0.00    -0.270 OA
ATOM     15  N   UNL     1       1.315   4.627   2.055  0.00  0.00    -0.325 N 
ATOM     16  H   UNL     1       1.620   3.977   2.708  0.00  0.00    +0.145 HD
ATOM     17  H   UNL     1       0.865   5.434   2.348  0.00  0.00    +0.145 HD
ENDBRANCH   6  13
ENDBRANCH   3   5
BRANCH   1  22
ATOM     18  N   UNL     1       9.167   5.633   0.219  0.00  0.00    -0.176 NA
ATOM     19  C   UNL     1       8.911   6.854  -0.556  0.00  0.00    +0.109 C 
ATOM     20  C   UNL     1       7.493   7.345  -0.250  0.00  0.00    +0.018 C 
ATOM     21  C   UNL     1       6.497   6.214  -0.514  0.00  0.00    +0.015 C 
ATOM     22  C   UNL     1       6.809   5.032   0.407  0.00  0.00    +0.091 C 
ATOM     23  C   UNL     1       8.220   4.515   0.108  0.00  0.00    +0.122 C 
BRANCH  18  24
ATOM     24  S   UNL     1      10.497   5.517   1.199  0.00  0.00    +0.061 S 
ATOM     25  O   UNL     1      10.872   6.847   1.532  0.00  0.00    -0.153 OA
ATOM     26  O   UNL     1      10.191   4.542   2.186  0.00  0.00    -0.153 OA
BRANCH  24  31
ATOM     27  C   UNL     1      14.980   3.245  -2.140  0.00  0.00    +0.044 C 
ATOM     28  C   UNL     1      13.861   3.813  -1.306  0.00  0.00    -0.050 A 
ATOM     29  C   UNL     1      13.674   5.181  -1.238  0.00  0.00    +0.005 A 
ATOM     30  C   UNL     1      12.647   5.702  -0.473  0.00  0.00    +0.029 A 
ATOM     31  C   UNL     1      11.806   4.854   0.224  0.00  0.00    +0.105 A 
ATOM     32  C   UNL     1      11.996   3.486   0.160  0.00  0.00    +0.029 A 
ATOM     33  C   UNL     1      13.020   2.966  -0.608  0.00  0.00    +0.005 A 
ENDBRANCH  24  31
ENDBRANCH  18  24
ENDBRANCH   1  22
TORSDOF 5
