REMARK  Name = ZINC51061539
REMARK  11 active torsions:
REMARK  status: ('A' for Active; 'I' for Inactive)
REMARK    1  A    between atoms: C_1  and  C_2
REMARK    2  A    between atoms: C_2  and  C_3
REMARK    3  A    between atoms: C_3  and  C_4
REMARK    4  A    between atoms: C_4  and  N_5
REMARK    5  A    between atoms: C_6  and  C_8
REMARK    6  A    between atoms: N_13  and  C_15
REMARK    7  A    between atoms: C_15  and  C_16
REMARK    8  A    between atoms: C_16  and  C_18
REMARK    9  A    between atoms: C_19  and  N_29
REMARK   10  A    between atoms: N_20  and  C_27
REMARK   11  A    between atoms: C_27  and  C_28
REMARK                            x       y       z     vdW  Elec       q    Type
REMARK                         _______ _______ _______ _____ _____    ______ ____
ROOT
ATOM      1  C   UNL     1       3.072  -7.840   5.029  0.00  0.00    +0.002 C 
ENDROOT
BRANCH   1   6
ATOM      2  C   UNL     1       2.413  -4.354   3.803  0.00  0.00    +0.058 C 
ATOM      3  C   UNL     1       3.851  -3.829   3.818  0.00  0.00    +0.009 C 
ATOM      4  C   UNL     1       4.582  -4.404   5.035  0.00  0.00    -0.018 C 
ATOM      5  C   UNL     1       4.523  -5.932   4.984  0.00  0.00    -0.078 C 
ATOM      6  N   UNL     1       3.122  -6.372   5.000  0.00  0.00    +0.385 N 
ATOM      7  C   UNL     1       2.433  -5.884   3.799  0.00  0.00    -0.066 C 
ATOM      8  H   UNL     1       2.664  -6.005   5.820  0.00  0.00    -0.081 HD
BRANCH   2  10
ATOM      9  N   UNL     1       1.571  -2.532   2.357  0.00  0.00    -0.315 N 
ATOM     10  C   UNL     1       1.708  -3.857   2.568  0.00  0.00    +0.214 C 
ATOM     11  O   UNL     1       1.264  -4.648   1.763  0.00  0.00    -0.276 OA
ATOM     12  H   UNL     1       1.927  -1.900   3.001  0.00  0.00    +0.149 HD
BRANCH   9  13
ATOM     13  C   UNL     1       0.886  -2.049   1.156  0.00  0.00    +0.104 C 
BRANCH  13  14
ATOM     14  C   UNL     1       0.868  -0.519   1.161  0.00  0.00    +0.018 C 
BRANCH  14  16
ATOM     15  C   UNL     1       0.135   1.516  -0.089  0.00  0.00    +0.004 C 
ATOM     16  C   UNL     1       0.153  -0.013  -0.094  0.00  0.00    -0.002 C 
ENDBRANCH  14  16
ENDBRANCH  13  14
ENDBRANCH   9  13
ENDBRANCH   2  10
ENDBRANCH   1   6
BRANCH   1  17
ATOM     17  C   UNL     1       3.661  -8.336   6.324  0.00  0.00    +0.155 C 
ATOM     18  O   UNL     1       4.081  -7.544   7.144  0.00  0.00    -0.294 OA
BRANCH  17  19
ATOM     19  C   UNL     1       3.723  -9.722   6.586  0.00  0.00    +0.118 A 
ATOM     20  C   UNL     1       4.376 -10.216   7.729  0.00  0.00    +0.116 A 
ATOM     21  N   UNL     1       4.410 -11.565   7.939  0.00  0.00    -0.282 N 
ATOM     22  C   UNL     1       3.835 -12.419   7.078  0.00  0.00    +0.331 A 
ATOM     23  O   UNL     1       3.892 -13.611   7.310  0.00  0.00    -0.246 OA
ATOM     24  N   UNL     1       3.198 -12.006   5.971  0.00  0.00    -0.274 N 
ATOM     25  H   UNL     1       2.797 -12.660   5.377  0.00  0.00    +0.173 HD
ATOM     26  C   UNL     1       3.103 -10.693   5.676  0.00  0.00    +0.266 A 
ATOM     27  O   UNL     1       2.521 -10.322   4.673  0.00  0.00    -0.267 OA
BRANCH  20  28
ATOM     28  N   UNL     1       4.965  -9.364   8.611  0.00  0.00    -0.344 N 
ATOM     29  H   UNL     1       4.870  -8.405   8.497  0.00  0.00    +0.144 HD
ATOM     30  H   UNL     1       5.479  -9.715   9.354  0.00  0.00    +0.144 HD
ENDBRANCH  20  28
BRANCH  21  31
ATOM     31  C   UNL     1       5.087 -12.089   9.127  0.00  0.00    +0.125 C 
ATOM     32  C   UNL     1       4.088 -12.187  10.282  0.00  0.00    +0.027 C 
ENDBRANCH  21  31
ENDBRANCH  17  19
ENDBRANCH   1  17
TORSDOF 9
