REMARK  Name = ZINC61925463
REMARK  9 active torsions:
REMARK  status: ('A' for Active; 'I' for Inactive)
REMARK    1  A    between atoms: C_1  and  C_2
REMARK    2  A    between atoms: C_2  and  N_3
REMARK    3  A    between atoms: N_3  and  C_4
REMARK    4  A    between atoms: N_3  and  C_6
REMARK    5  A    between atoms: C_4  and  C_5
REMARK    6  A    between atoms: C_9  and  C_12
REMARK    7  A    between atoms: C_20  and  O_27
REMARK    8  A    between atoms: N_23  and  C_24
REMARK    9  A    between atoms: C_24  and  C_25
REMARK                            x       y       z     vdW  Elec       q    Type
REMARK                         _______ _______ _______ _____ _____    ______ ____
ROOT
ATOM      1  C   UNL     1       0.364  -6.132  -1.473  0.00  0.00    +0.094 C 
ATOM      2  C   UNL     1       1.460  -6.662  -2.399  0.00  0.00    +0.042 C 
ATOM      3  C   UNL     1       2.836  -6.277  -1.857  0.00  0.00    +0.008 C 
ATOM      4  C   UNL     1       3.918  -6.809  -2.800  0.00  0.00    +0.001 C 
ATOM      5  C   UNL     1       3.812  -8.332  -2.899  0.00  0.00    +0.003 C 
ATOM      6  C   UNL     1       2.429  -8.718  -3.431  0.00  0.00    +0.035 C 
ATOM      7  C   UNL     1       1.357  -8.188  -2.478  0.00  0.00    +0.072 C 
ATOM      8  C   UNL     1      -0.033  -8.570  -2.991  0.00  0.00    +0.050 C 
ATOM      9  C   UNL     1      -1.092  -7.984  -2.054  0.00  0.00    +0.089 C 
ATOM     10  N   UNL     1      -0.950  -6.524  -1.999  0.00  0.00    -0.282 NA
ENDROOT
BRANCH   1  14
ATOM     11  C   UNL     1       0.609  -1.872  -1.272  0.00  0.00    +0.013 A 
ATOM     12  C   UNL     1       1.141  -2.643  -0.256  0.00  0.00    +0.022 A 
ATOM     13  C   UNL     1       1.062  -4.022  -0.321  0.00  0.00    +0.007 A 
ATOM     14  C   UNL     1       0.450  -4.629  -1.402  0.00  0.00    -0.030 A 
ATOM     15  C   UNL     1      -0.082  -3.857  -2.418  0.00  0.00    +0.007 A 
ATOM     16  C   UNL     1      -0.007  -2.479  -2.351  0.00  0.00    +0.022 A 
BRANCH  11  17
ATOM     17  N   UNL     1       0.690  -0.478  -1.207  0.00  0.00    -0.394 NA
ATOM     18  H   UNL     1       0.251  -0.077  -2.022  0.00  0.00    +0.126 HD
BRANCH  17  20
ATOM     19  C   UNL     1      -0.019   1.526   0.010  0.00  0.00    +0.022 C 
ATOM     20  C   UNL     1       0.002  -0.004   0.002  0.00  0.00    +0.081 C 
ENDBRANCH  17  20
BRANCH  17  21
ATOM     21  C   UNL     1       2.100  -0.070  -1.159  0.00  0.00    +0.081 C 
ATOM     22  C   UNL     1       2.786  -0.454  -2.472  0.00  0.00    +0.022 C 
ENDBRANCH  17  21
ENDBRANCH  11  17
ENDBRANCH   1  14
BRANCH   7  23
ATOM     23  O   UNL     1       1.556  -8.747  -1.178  0.00  0.00    -0.388 OA
ATOM     24  H   UNL     1       1.505  -9.712  -1.152  0.00  0.00    +0.210 HD
ENDBRANCH   7  23
BRANCH  10  25
ATOM     25  C   UNL     1      -2.033  -5.919  -1.212  0.00  0.00    +0.204 C 
BRANCH  25  26
ATOM     26  C   UNL     1      -3.317  -6.131  -1.900  0.00  0.00    +0.078 C 
ATOM     27  N   UNL     1      -4.308  -6.295  -2.431  0.00  0.00    -0.195 NA
ENDBRANCH  25  26
ENDBRANCH  10  25
TORSDOF 7
