REMARK  Name = ZINC49693036
REMARK  3 active torsions:
REMARK  status: ('A' for Active; 'I' for Inactive)
REMARK    1  A    between atoms: C_6  and  S_7
REMARK    2  A    between atoms: S_7  and  N_10
REMARK    3  A    between atoms: N_17  and  N_18
REMARK                            x       y       z     vdW  Elec       q    Type
REMARK                         _______ _______ _______ _____ _____    ______ ____
ROOT
ATOM      1  C   UNL     1       0.964  -0.207  -0.977  0.00  0.00    +0.048 A 
ATOM      2  C   UNL     1       2.168   0.478  -0.875  0.00  0.00    +0.038 A 
ATOM      3  C   UNL     1       2.310   1.455   0.091  0.00  0.00    +0.128 A 
ATOM      4  N   UNL     1       1.318   1.743   0.912  0.00  0.00    -0.236 NA
ATOM      5  C   UNL     1       0.156   1.113   0.846  0.00  0.00    +0.159 A 
ATOM      6  C   UNL     1      -0.057   0.117  -0.102  0.00  0.00    +0.147 A 
ATOM      7  N   UNL     1      -0.861   1.448   1.733  0.00  0.00    -0.266 N 
ATOM      8 BR   UNL     1       3.599   0.076  -2.044  0.00  0.00    -0.049 Br
ATOM      9  H   UNL     1      -1.708   0.977   1.700  0.00  0.00    +0.167 HD
ENDROOT
BRANCH   6  10
ATOM     10  S   UNL     1      -1.605  -0.719  -0.187  0.00  0.00    +0.064 S 
ATOM     11  O   UNL     1      -1.589  -1.709   0.832  0.00  0.00    -0.153 OA
ATOM     12  O   UNL     1      -2.607   0.287  -0.255  0.00  0.00    -0.153 OA
BRANCH  10  13
ATOM     13  N   UNL     1      -1.647  -1.527  -1.632  0.00  0.00    -0.175 NA
ATOM     14  C   UNL     1      -2.048  -0.815  -2.847  0.00  0.00    +0.122 C 
ATOM     15  C   UNL     1      -3.370  -1.394  -3.365  0.00  0.00    +0.121 C 
ATOM     16  S   UNL     1      -3.152  -3.176  -3.651  0.00  0.00    +0.025 S 
ATOM     17  O   UNL     1      -4.416  -3.772  -3.909  0.00  0.00    -0.257 OA
ATOM     18  C   UNL     1      -2.513  -3.776  -2.058  0.00  0.00    +0.121 C 
ATOM     19  C   UNL     1      -1.277  -2.942  -1.680  0.00  0.00    +0.122 C 
ENDBRANCH  10  13
ENDBRANCH   6  10
BRANCH   7  20
ATOM     20  N   UNL     1      -0.668   2.442   2.650  0.00  0.00    -0.255 NA
ATOM     21  H   UNL     1      -0.402   3.304   2.198  0.00  0.00    +0.140 HD
ATOM     22  H   UNL     1      -1.490   2.572   3.221  0.00  0.00    +0.140 HD
ENDBRANCH   7  20
TORSDOF 3
