REMARK  Name = ZINC55887278
REMARK  11 active torsions:
REMARK  status: ('A' for Active; 'I' for Inactive)
REMARK    1  A    between atoms: C_1  and  C_2
REMARK    2  A    between atoms: C_2  and  C_3
REMARK    3  A    between atoms: C_3  and  C_25
REMARK    4  A    between atoms: N_6  and  N_10
REMARK    5  A    between atoms: C_11  and  C_13
REMARK    6  A    between atoms: C_13  and  N_14
REMARK    7  A    between atoms: N_14  and  C_15
REMARK    8  A    between atoms: C_18  and  O_22
REMARK    9  A    between atoms: C_20  and  C_21
REMARK   10  A    between atoms: O_22  and  C_23
REMARK   11  A    between atoms: C_23  and  C_24
REMARK                            x       y       z     vdW  Elec       q    Type
REMARK                         _______ _______ _______ _____ _____    ______ ____
ROOT
ATOM      1  N   UNL     1      -2.344  -3.611  -1.728  0.00  0.00    -0.222 N 
ATOM      2  C   UNL     1      -3.573  -4.155  -1.626  0.00  0.00    +0.247 C 
ATOM      3  O   UNL     1      -4.475  -3.525  -1.116  0.00  0.00    -0.273 OA
ATOM      4  H   UNL     1      -1.623  -4.115  -2.136  0.00  0.00    +0.174 HD
ENDROOT
BRANCH   1   8
ATOM      5  C   UNL     1      -1.433  -0.534   0.013  0.00  0.00    +0.111 C 
ATOM      6  C   UNL     1      -1.445  -2.045  -0.103  0.00  0.00    +0.263 C 
ATOM      7  O   UNL     1      -0.960  -2.843   0.670  0.00  0.00    -0.271 OA
ATOM      8  N   UNL     1      -2.108  -2.317  -1.245  0.00  0.00    -0.137 N 
ATOM      9  C   UNL     1      -2.513  -1.200  -1.859  0.00  0.00    +0.326 C 
ATOM     10  O   UNL     1      -3.131  -1.190  -2.906  0.00  0.00    -0.251 OA
ATOM     11  N   UNL     1      -2.159  -0.088  -1.189  0.00  0.00    -0.284 N 
ATOM     12  C   UNL     1      -2.162  -0.082   1.280  0.00  0.00    +0.041 C 
ATOM     13  H   UNL     1      -2.346   0.828  -1.447  0.00  0.00    +0.151 HD
BRANCH   5  15
ATOM     14  C   UNL     1      -0.019   1.526   0.010  0.00  0.00    +0.006 C 
ATOM     15  C   UNL     1       0.002  -0.004   0.002  0.00  0.00    +0.032 C 
ENDBRANCH   5  15
ENDBRANCH   1   8
BRANCH   2  16
ATOM     16  C   UNL     1      -3.826  -5.546  -2.147  0.00  0.00    +0.199 C 
BRANCH  16  17
ATOM     17  N   UNL     1      -5.229  -5.905  -1.920  0.00  0.00    -0.335 N 
ATOM     18  H   UNL     1      -5.827  -5.273  -1.491  0.00  0.00    +0.147 HD
BRANCH  17  19
ATOM     19  C   UNL     1      -5.705  -7.158  -2.321  0.00  0.00    +0.031 A 
ATOM     20  C   UNL     1      -4.846  -8.065  -2.930  0.00  0.00    +0.027 A 
ATOM     21  C   UNL     1      -5.317  -9.301  -3.325  0.00  0.00    +0.047 A 
ATOM     22  C   UNL     1      -6.646  -9.638  -3.115  0.00  0.00    +0.121 A 
ATOM     23  C   UNL     1      -7.504  -8.733  -2.508  0.00  0.00    +0.050 A 
ATOM     24  C   UNL     1      -7.034  -7.498  -2.106  0.00  0.00    -0.026 A 
ATOM     25  C   UNL     1      -7.964  -6.517  -1.440  0.00  0.00    +0.046 C 
BRANCH  22  26
ATOM     26  O   UNL     1      -7.109 -10.855  -3.506  0.00  0.00    -0.492 OA
BRANCH  26  27
ATOM     27  C   UNL     1      -6.170 -11.738  -4.125  0.00  0.00    +0.225 C 
ATOM     28  C   UNL     1      -6.869 -13.049  -4.492  0.00  0.00    +0.048 C 
ENDBRANCH  26  27
ENDBRANCH  22  26
ENDBRANCH  17  19
ENDBRANCH  16  17
ENDBRANCH   2  16
TORSDOF 7
