REMARK  Name = ZINC16610717
REMARK  9 active torsions:
REMARK  status: ('A' for Active; 'I' for Inactive)
REMARK    1  A    between atoms: C_1  and  C_2
REMARK    2  A    between atoms: C_2  and  O_3
REMARK    3  A    between atoms: O_3  and  C_4
REMARK    4  A    between atoms: C_4  and  C_6
REMARK    5  A    between atoms: C_7  and  C_31
REMARK    6  A    between atoms: N_8  and  C_30
REMARK    7  A    between atoms: C_12  and  C_14
REMARK    8  A    between atoms: C_18  and  N_20
REMARK    9  A    between atoms: N_23  and  C_24
REMARK                            x       y       z     vdW  Elec       q    Type
REMARK                         _______ _______ _______ _____ _____    ______ ____
ROOT
ATOM      1  C   UNL     1      -5.976   1.437   0.312  0.00  0.00    -0.021 A 
ATOM      2  C   UNL     1      -6.049   2.818   0.314  0.00  0.00    +0.006 A 
ATOM      3  C   UNL     1      -4.896   3.575   0.218  0.00  0.00    +0.002 A 
ATOM      4  C   UNL     1      -3.667   2.953   0.120  0.00  0.00    +0.023 A 
ATOM      5  C   UNL     1      -3.589   1.567   0.118  0.00  0.00    +0.035 A 
ATOM      6  C   UNL     1      -4.750   0.810   0.209  0.00  0.00    +0.029 A 
ENDROOT
BRANCH   1  13
ATOM      7  C   UNL     1      -7.547   0.424   1.887  0.00  0.00    +0.078 C 
ATOM      8  C   UNL     1      -8.744   0.858   2.337  0.00  0.00    +0.021 C 
ATOM      9  N   UNL     1      -9.641   1.451   1.496  0.00  0.00    -0.289 N 
ATOM     10  C   UNL     1      -9.418   1.646   0.191  0.00  0.00    +0.137 C 
ATOM     11  S   UNL     1     -10.630   2.402  -0.752  0.00  0.00    -0.018 S 
ATOM     12  N   UNL     1      -8.270   1.266  -0.406  0.00  0.00    -0.315 N 
ATOM     13  C   UNL     1      -7.235   0.616   0.416  0.00  0.00    +0.141 C 
ATOM     14  C   UNL     1     -10.919   1.899   2.054  0.00  0.00    +0.137 C 
ATOM     15  C   UNL     1      -9.095   0.686   3.793  0.00  0.00    +0.061 C 
ATOM     16  H   UNL     1      -8.129   1.418  -1.353  0.00  0.00    +0.149 HD
BRANCH   7  17
ATOM     17  C   UNL     1      -6.617  -0.191   2.757  0.00  0.00    +0.339 C 
ATOM     18  O   UNL     1      -6.889  -0.335   3.934  0.00  0.00    -0.245 OA
BRANCH  17  19
ATOM     19  O   UNL     1      -5.428  -0.617   2.282  0.00  0.00    -0.462 OA
BRANCH  19  21
ATOM     20  C   UNL     1      -3.251  -1.644   2.500  0.00  0.00    +0.048 C 
ATOM     21  C   UNL     1      -4.537  -1.228   3.217  0.00  0.00    +0.229 C 
ENDBRANCH  19  21
ENDBRANCH  17  19
ENDBRANCH   7  17
ENDBRANCH   1  13
BRANCH   5  22
ATOM     22  N   UNL     1      -2.345   0.934   0.018  0.00  0.00    -0.269 N 
ATOM     23  C   UNL     1      -1.261   1.483   0.601  0.00  0.00    +0.304 C 
ATOM     24  O   UNL     1      -1.346   2.569   1.141  0.00  0.00    -0.253 OA
ATOM     25  N   UNL     1      -0.083   0.829   0.585  0.00  0.00    -0.296 N 
ATOM     26  H   UNL     1      -2.263   0.100  -0.470  0.00  0.00    +0.156 HD
ATOM     27  H   UNL     1      -0.016  -0.038   0.154  0.00  0.00    +0.151 HD
BRANCH  25  28
ATOM     28  C   UNL     1       1.097   1.428   1.214  0.00  0.00    +0.074 C 
ATOM     29  C   UNL     1       1.773   2.380   0.225  0.00  0.00    +0.022 C 
ATOM     30  C   UNL     1       3.005   3.006   0.881  0.00  0.00    +0.002 C 
ATOM     31  C   UNL     1       3.987   1.903   1.279  0.00  0.00    +0.000 C 
ATOM     32  C   UNL     1       3.311   0.951   2.268  0.00  0.00    +0.002 C 
ATOM     33  C   UNL     1       2.079   0.325   1.612  0.00  0.00    +0.022 C 
ENDBRANCH  25  28
ENDBRANCH   5  22
TORSDOF 6
