REMARK  Name = ZINC12005437
REMARK  9 active torsions:
REMARK  status: ('A' for Active; 'I' for Inactive)
REMARK    1  A    between atoms: C_1  and  C_2
REMARK    2  A    between atoms: C_5  and  C_9
REMARK    3  A    between atoms: C_6  and  C_8
REMARK    4  A    between atoms: C_9  and  N_68
REMARK    5  A    between atoms: C_12  and  C_15
REMARK    6  A    between atoms: C_12  and  O_34
REMARK    7  A    between atoms: C_22  and  C_24
REMARK    8  A    between atoms: N_26  and  C_27
REMARK    9  A    between atoms: C_27  and  C_28
REMARK                            x       y       z     vdW  Elec       q    Type
REMARK                         _______ _______ _______ _____ _____    ______ ____
ROOT
ATOM      1  C   UNL     1     -11.457   1.850   0.146  0.00  0.00    -0.015 A 
ATOM      2  C   UNL     1     -10.734   2.729   0.941  0.00  0.00    +0.010 A 
ATOM      3  C   UNL     1      -9.359   2.775   0.871  0.00  0.00    +0.047 A 
ATOM      4  C   UNL     1      -8.683   1.933  -0.005  0.00  0.00    +0.136 A 
ATOM      5  C   UNL     1      -9.420   1.044  -0.808  0.00  0.00    +0.021 A 
ATOM      6  C   UNL     1     -10.814   1.013  -0.722  0.00  0.00    +0.018 A 
ATOM      7  C   UNL     1      -8.432   0.313  -1.601  0.00  0.00    +0.063 A 
ATOM      8  C   UNL     1      -7.219   0.799  -1.230  0.00  0.00    +0.190 A 
ATOM      9  O   UNL     1      -7.378   1.749  -0.285  0.00  0.00    -0.450 OA
ENDROOT
BRANCH   1  12
ATOM     10  C   UNL     1     -14.921   2.229   1.732  0.00  0.00    -0.075 C 
ATOM     11  C   UNL     1     -13.392   2.203   1.659  0.00  0.00    +0.021 C 
ATOM     12  C   UNL     1     -12.961   1.819   0.241  0.00  0.00    +0.088 C 
ATOM     13  C   UNL     1     -13.557   2.818  -0.754  0.00  0.00    +0.021 C 
ATOM     14  C   UNL     1     -15.081   2.826  -0.611  0.00  0.00    -0.075 C 
ATOM     15  N   UNL     1     -15.431   3.227   0.769  0.00  0.00    +0.383 N 
ATOM     16  H   UNL     1     -14.999   4.136   0.971  0.00  0.00    -0.081 HD
BRANCH  12  17
ATOM     17  O   UNL     1     -13.431   0.504  -0.061  0.00  0.00    -0.384 OA
ATOM     18  H   UNL     1     -13.195   0.196  -0.947  0.00  0.00    +0.211 HD
ENDBRANCH  12  17
BRANCH  15  19
ATOM     19  C   UNL     1     -16.897   3.352   0.901  0.00  0.00    -0.043 C 
BRANCH  19  24
ATOM     20  C   UNL     1     -18.863   6.904  -3.212  0.00  0.00    +0.044 C 
ATOM     21  C   UNL     1     -18.350   5.977  -2.140  0.00  0.00    -0.050 A 
ATOM     22  C   UNL     1     -18.584   4.618  -2.230  0.00  0.00    +0.003 A 
ATOM     23  C   UNL     1     -18.114   3.768  -1.246  0.00  0.00    +0.002 A 
ATOM     24  C   UNL     1     -17.409   4.278  -0.172  0.00  0.00    -0.061 A 
ATOM     25  C   UNL     1     -17.180   5.638  -0.079  0.00  0.00    -0.049 A 
ATOM     26  C   UNL     1     -17.645   6.487  -1.065  0.00  0.00    +0.007 A 
ATOM     27  C   UNL     1     -16.417   6.195   1.096  0.00  0.00    +0.044 C 
ENDBRANCH  19  24
ENDBRANCH  15  19
ENDBRANCH   1  12
BRANCH   8  28
ATOM     28  C   UNL     1      -5.928   0.352  -1.772  0.00  0.00    +0.279 C 
ATOM     29  O   UNL     1      -5.893  -0.518  -2.622  0.00  0.00    -0.267 OA
ATOM     30  N   UNL     1      -4.782   0.907  -1.328  0.00  0.00    -0.306 N 
ATOM     31  H   UNL     1      -4.811   1.601  -0.651  0.00  0.00    +0.149 HD
BRANCH  30  32
ATOM     32  C   UNL     1      -3.495   0.463  -1.868  0.00  0.00    +0.136 C 
BRANCH  32  33
ATOM     33  C   UNL     1      -2.364   1.246  -1.200  0.00  0.00    +0.135 C 
ATOM     34  C   UNL     1      -1.016   0.876  -1.849  0.00  0.00    +0.035 C 
ATOM     35  C   UNL     1      -0.165   0.336  -0.675  0.00  0.00    +0.031 C 
ATOM     36  C   UNL     1      -0.883   0.947   0.555  0.00  0.00    +0.160 C 
ATOM     37  O   UNL     1      -2.279   0.894   0.190  0.00  0.00    -0.375 OA
ENDBRANCH  32  33
ENDBRANCH  30  32
ENDBRANCH   8  28
TORSDOF 7
