REMARK  Name = ZINC08326130
REMARK  6 active torsions:
REMARK  status: ('A' for Active; 'I' for Inactive)
REMARK    1  A    between atoms: C_1  and  C_2
REMARK    2  A    between atoms: C_2  and  C_3
REMARK    3  A    between atoms: C_3  and  C_5
REMARK    4  A    between atoms: C_3  and  S_6
REMARK    5  A    between atoms: S_6  and  C_7
REMARK    6  A    between atoms: C_18  and  C_20
REMARK                            x       y       z     vdW  Elec       q    Type
REMARK                         _______ _______ _______ _____ _____    ______ ____
ROOT
ATOM      1  C   UNL     1       0.774  -0.523  -4.074  0.00  0.00    +0.171 A 
ATOM      2  N   UNL     1       0.344  -0.302  -5.348  0.00  0.00    -0.302 N 
ATOM      3  H   UNL     1      -0.513   0.123  -5.502  0.00  0.00    +0.171 HD
ATOM      4  C   UNL     1       1.110  -0.675  -6.395  0.00  0.00    +0.258 A 
ATOM      5  O   UNL     1       0.735  -0.478  -7.540  0.00  0.00    -0.267 OA
ATOM      6  C   UNL     1       2.341  -1.291  -6.144  0.00  0.00    +0.069 A 
ATOM      7  C   UNL     1       2.729  -1.497  -4.832  0.00  0.00    +0.135 A 
ATOM      8  N   UNL     1       1.935  -1.097  -3.832  0.00  0.00    -0.208 NA
ATOM      9  N   UNL     1       3.937  -2.111  -4.564  0.00  0.00    -0.302 N 
ATOM     10  C   UNL     1       4.566  -2.858  -5.522  0.00  0.00    +0.017 C 
ATOM     11  C   UNL     1       4.263  -2.709  -6.829  0.00  0.00    +0.024 C 
ATOM     12  C   UNL     1       3.222  -1.715  -7.281  0.00  0.00    +0.092 C 
ATOM     13  C   UNL     1       4.913  -3.473  -7.814  0.00  0.00    +0.162 C 
ATOM     14  O   UNL     1       4.602  -3.328  -8.980  0.00  0.00    -0.292 OA
ATOM     15  C   UNL     1       5.984  -4.465  -7.455  0.00  0.00    +0.080 C 
ATOM     16  C   UNL     1       6.672  -4.009  -6.163  0.00  0.00    +0.014 C 
ATOM     17  C   UNL     1       5.606  -3.857  -5.076  0.00  0.00    +0.051 C 
ATOM     18  H   UNL     1       4.343  -2.012  -3.688  0.00  0.00    +0.153 HD
ENDROOT
BRANCH  12  19
ATOM     19  C   UNL     1       3.913  -0.502  -7.849  0.00  0.00    -0.034 A 
ATOM     20  C   UNL     1       4.743   0.259  -7.047  0.00  0.00    +0.004 A 
ATOM     21  C   UNL     1       5.377   1.372  -7.567  0.00  0.00    +0.002 A 
ATOM     22  C   UNL     1       5.180   1.725  -8.889  0.00  0.00    +0.020 A 
ATOM     23  C   UNL     1       4.350   0.964  -9.692  0.00  0.00    +0.041 A 
ATOM     24  C   UNL     1       3.720  -0.154  -9.172  0.00  0.00    +0.024 A 
ATOM     25 CL   UNL     1       4.102   1.406 -11.352  0.00  0.00    -0.084 Cl
ENDBRANCH  12  19
BRANCH   1  26
ATOM     26  S   UNL     1      -0.239  -0.022  -2.723  0.00  0.00    -0.085 S 
BRANCH  26  27
ATOM     27  C   UNL     1       0.718  -0.497  -1.257  0.00  0.00    +0.051 C 
ATOM     28  C   UNL     1       0.849  -2.021  -1.205  0.00  0.00    +0.019 C 
BRANCH  27  30
ATOM     29  C   UNL     1      -0.019   1.526   0.010  0.00  0.00    +0.005 C 
ATOM     30  C   UNL     1       0.002  -0.004   0.002  0.00  0.00    +0.011 C 
ENDBRANCH  27  30
ENDBRANCH  26  27
ENDBRANCH   1  26
TORSDOF 4
