REMARK  Name = ZINC54163785
REMARK  8 active torsions:
REMARK  status: ('A' for Active; 'I' for Inactive)
REMARK    1  A    between atoms: C_1  and  O_2
REMARK    2  A    between atoms: O_2  and  C_3
REMARK    3  A    between atoms: C_7  and  C_10
REMARK    4  A    between atoms: C_8  and  O_9
REMARK    5  A    between atoms: N_12  and  N_13
REMARK    6  A    between atoms: C_14  and  C_16
REMARK    7  A    between atoms: C_16  and  S_17
REMARK    8  A    between atoms: S_17  and  C_18
REMARK                            x       y       z     vdW  Elec       q    Type
REMARK                         _______ _______ _______ _____ _____    ______ ____
ROOT
ATOM      1  N   UNL     1       1.996  -6.066  -3.452  0.00  0.00    -0.233 N 
ATOM      2  C   UNL     1       2.597  -6.653  -4.506  0.00  0.00    +0.239 C 
ATOM      3  O   UNL     1       3.089  -5.972  -5.381  0.00  0.00    -0.273 OA
ATOM      4  H   UNL     1       1.602  -6.611  -2.753  0.00  0.00    +0.173 HD
ENDROOT
BRANCH   1   7
ATOM      5  C   UNL     1       1.339  -4.081  -2.313  0.00  0.00    +0.264 C 
ATOM      6  O   UNL     1       0.845  -4.764  -1.437  0.00  0.00    -0.269 OA
ATOM      7  N   UNL     1       1.940  -4.669  -3.367  0.00  0.00    -0.230 N 
ATOM      8  H   UNL     1       2.333  -4.124  -4.066  0.00  0.00    +0.173 HD
BRANCH   5  13
ATOM      9  C   UNL     1       0.606  -0.608  -1.056  0.00  0.00    +0.162 A 
ATOM     10  C   UNL     1       1.172   0.160  -2.061  0.00  0.00    +0.049 A 
ATOM     11  C   UNL     1       1.788  -0.448  -3.142  0.00  0.00    +0.005 A 
ATOM     12  C   UNL     1       1.846  -1.821  -3.229  0.00  0.00    +0.017 A 
ATOM     13  C   UNL     1       1.280  -2.610  -2.224  0.00  0.00    +0.083 A 
ATOM     14  C   UNL     1       0.661  -1.996  -1.128  0.00  0.00    +0.171 A 
BRANCH   9  16
ATOM     15  C   UNL     1      -0.017   1.425   0.010  0.00  0.00    +0.277 C 
ATOM     16  O   UNL     1       0.002  -0.004   0.002  0.00  0.00    -0.491 OA
ENDBRANCH   9  16
BRANCH  14  17
ATOM     17  O   UNL     1       0.113  -2.752  -0.142  0.00  0.00    -0.503 OA
ATOM     18  H   UNL     1      -0.815  -2.979  -0.291  0.00  0.00    +0.292 HD
ENDBRANCH  14  17
ENDBRANCH   5  13
ENDBRANCH   1   7
BRANCH   2  19
ATOM     19  C   UNL     1       2.657  -8.156  -4.598  0.00  0.00    +0.171 C 
BRANCH  19  20
ATOM     20  S   UNL     1       3.522  -8.635  -6.119  0.00  0.00    -0.116 S 
BRANCH  20  21
ATOM     21  C   UNL     1       3.510 -10.396  -6.080  0.00  0.00    +0.012 A 
ATOM     22  C   UNL     1       2.907 -11.064  -5.021  0.00  0.00    +0.018 A 
ATOM     23  C   UNL     1       2.898 -12.445  -4.990  0.00  0.00    +0.050 A 
ATOM     24  C   UNL     1       3.490 -13.169  -6.014  0.00  0.00    +0.162 A 
ATOM     25  C   UNL     1       4.092 -12.504  -7.076  0.00  0.00    +0.163 A 
ATOM     26  C   UNL     1       4.098 -11.118  -7.109  0.00  0.00    +0.064 A 
ATOM     27  O   UNL     1       4.671 -13.198  -8.094  0.00  0.00    -0.485 OA
ATOM     28  C   UNL     1       4.971 -14.576  -7.845  0.00  0.00    +0.270 C 
ATOM     29  C   UNL     1       3.744 -15.223  -7.187  0.00  0.00    +0.270 C 
ATOM     30  O   UNL     1       3.475 -14.531  -5.963  0.00  0.00    -0.485 OA
ENDBRANCH  20  21
ENDBRANCH  19  20
ENDBRANCH   2  19
TORSDOF 7
