REMARK  Name = ZINC13077308
REMARK  9 active torsions:
REMARK  status: ('A' for Active; 'I' for Inactive)
REMARK    1  A    between atoms: C_1  and  C_2
REMARK    2  A    between atoms: C_2  and  C_4
REMARK    3  A    between atoms: C_2  and  O_6
REMARK    4  A    between atoms: O_6  and  C_7
REMARK    5  A    between atoms: C_10  and  C_13
REMARK    6  A    between atoms: C_15  and  C_23
REMARK    7  A    between atoms: C_25  and  O_32
REMARK    8  A    between atoms: C_26  and  O_30
REMARK    9  A    between atoms: O_30  and  C_31
REMARK                            x       y       z     vdW  Elec       q    Type
REMARK                         _______ _______ _______ _____ _____    ______ ____
ROOT
ATOM      1  C   UNL     1      -2.492   3.802  -0.843  0.00  0.00    +0.039 C 
ATOM      2  C   UNL     1      -3.593   3.090  -1.039  0.00  0.00    +0.028 C 
ATOM      3  C   UNL     1      -4.948   3.706  -1.263  0.00  0.00    +0.168 C 
ATOM      4  N   UNL     1      -4.803   5.136  -1.508  0.00  0.00    -0.202 N 
ATOM      5  C   UNL     1      -3.652   5.827  -1.298  0.00  0.00    +0.240 A 
ATOM      6  N   UNL     1      -3.884   7.070  -1.611  0.00  0.00    -0.092 NA
ATOM      7  N   UNL     1      -5.102   7.210  -2.009  0.00  0.00    -0.021 NA
ATOM      8  N   UNL     1      -5.722   6.074  -1.974  0.00  0.00    -0.042 NA
ATOM      9  N   UNL     1      -2.504   5.203  -0.832  0.00  0.00    -0.282 N 
ATOM     10  H   UNL     1      -1.742   5.714  -0.516  0.00  0.00    +0.155 HD
ENDROOT
BRANCH   3  11
ATOM     11  C   UNL     1      -5.805   3.491  -0.041  0.00  0.00    -0.001 A 
ATOM     12  C   UNL     1      -5.401   3.994   1.182  0.00  0.00    +0.056 A 
ATOM     13  C   UNL     1      -6.189   3.803   2.304  0.00  0.00    +0.159 A 
ATOM     14  C   UNL     1      -7.383   3.094   2.200  0.00  0.00    +0.162 A 
ATOM     15  C   UNL     1      -7.780   2.588   0.974  0.00  0.00    +0.065 A 
ATOM     16  C   UNL     1      -6.990   2.787  -0.145  0.00  0.00    +0.027 A 
ATOM     17 BR   UNL     1      -7.533   2.095  -1.819  0.00  0.00    -0.050 Br
BRANCH  14  18
ATOM     18  O   UNL     1      -8.158   2.900   3.301  0.00  0.00    -0.491 OA
ATOM     19  C   UNL     1      -9.369   2.164   3.119  0.00  0.00    +0.277 C 
ENDBRANCH  14  18
BRANCH  13  20
ATOM     20  O   UNL     1      -5.796   4.302   3.507  0.00  0.00    -0.503 OA
ATOM     21  H   UNL     1      -5.251   3.695   4.025  0.00  0.00    +0.292 HD
ENDBRANCH  13  20
ENDBRANCH   3  11
BRANCH   1  25
ATOM     22  C   UNL     1       1.189   1.770  -0.215  0.00  0.00    +0.122 A 
ATOM     23  C   UNL     1       0.023   1.044  -0.421  0.00  0.00    +0.046 A 
ATOM     24  C   UNL     1      -1.171   1.700  -0.630  0.00  0.00    +0.013 A 
ATOM     25  C   UNL     1      -1.210   3.094  -0.624  0.00  0.00    -0.004 A 
ATOM     26  C   UNL     1      -0.037   3.820  -0.417  0.00  0.00    +0.013 A 
ATOM     27  C   UNL     1       1.155   3.158  -0.213  0.00  0.00    +0.046 A 
BRANCH  22  28
ATOM     28  O   UNL     1       2.365   1.120  -0.015  0.00  0.00    -0.478 OA
BRANCH  28  30
ATOM     29  C   UNL     1       2.341  -0.919  -1.311  0.00  0.00    +0.064 C 
ATOM     30  C   UNL     1       2.310  -0.304   0.089  0.00  0.00    +0.282 C 
BRANCH  30  31
ATOM     31  C   UNL     1       3.495  -0.796   0.880  0.00  0.00    +0.395 C 
ATOM     32  O   UNL     1       4.303  -0.008   1.311  0.00  0.00    -0.242 OA
ATOM     33  O   UNL     1       3.652  -2.110   1.106  0.00  0.00    -0.242 OA
ENDBRANCH  30  31
ENDBRANCH  28  30
ENDBRANCH  22  28
ENDBRANCH   1  25
TORSDOF 7
