REMARK  Name = ZINC09407002
REMARK  8 active torsions:
REMARK  status: ('A' for Active; 'I' for Inactive)
REMARK    1  A    between atoms: C_1  and  C_2
REMARK    2  A    between atoms: C_7  and  S_8
REMARK    3  A    between atoms: S_8  and  N_11
REMARK    4  A    between atoms: N_11  and  C_12
REMARK    5  A    between atoms: C_12  and  C_13
REMARK    6  A    between atoms: C_13  and  C_14
REMARK    7  A    between atoms: C_14  and  N_59
REMARK    8  A    between atoms: N_17  and  C_20
REMARK                            x       y       z     vdW  Elec       q    Type
REMARK                         _______ _______ _______ _____ _____    ______ ____
ROOT
ATOM      1  N   UNL     1       0.026  -0.138   0.053  0.00  0.00    -0.190 NA
ATOM      2  H   UNL     1      -0.191  -0.688   0.822  0.00  0.00    +0.148 HD
ENDROOT
BRANCH   1   3
ATOM      3  S   UNL     1       0.248  -0.840  -1.431  0.00  0.00    +0.059 S 
ATOM      4  O   UNL     1       0.102  -2.241  -1.244  0.00  0.00    -0.153 OA
ATOM      5  O   UNL     1      -0.550  -0.106  -2.350  0.00  0.00    -0.153 OA
BRANCH   3  12
ATOM      6  C   UNL     1       2.616  -2.007   0.035  0.00  0.00    +0.046 C 
ATOM      7  C   UNL     1       2.945  -1.144  -1.157  0.00  0.00    -0.022 A 
ATOM      8  C   UNL     1       4.265  -0.935  -1.512  0.00  0.00    +0.032 A 
ATOM      9  C   UNL     1       4.566  -0.142  -2.607  0.00  0.00    +0.076 A 
ATOM     10  C   UNL     1       3.538   0.442  -3.348  0.00  0.00    +0.144 A 
ATOM     11  C   UNL     1       2.220   0.223  -2.989  0.00  0.00    +0.076 A 
ATOM     12  C   UNL     1       1.927  -0.566  -1.891  0.00  0.00    +0.112 A 
ATOM     13  O   UNL     1       3.846   1.220  -4.420  0.00  0.00    -0.481 OA
ATOM     14  C   UNL     1       5.058   1.974  -4.340  0.00  0.00    +0.325 C 
ATOM     15  C   UNL     1       6.173   1.091  -3.841  0.00  0.00    +0.255 C 
ATOM     16  O   UNL     1       7.313   1.285  -4.206  0.00  0.00    -0.272 OA
ATOM     17  N   UNL     1       5.897   0.083  -2.986  0.00  0.00    -0.280 N 
ATOM     18  H   UNL     1       6.609  -0.477  -2.639  0.00  0.00    +0.155 HD
ENDBRANCH   3  12
ENDBRANCH   1   3
BRANCH   1  19
ATOM     19  C   UNL     1       0.159   1.313   0.204  0.00  0.00    +0.104 C 
BRANCH  19  20
ATOM     20  C   UNL     1      -0.461   1.746   1.534  0.00  0.00    -0.002 C 
BRANCH  20  21
ATOM     21  C   UNL     1      -0.322   3.261   1.692  0.00  0.00    -0.077 C 
BRANCH  21  27
ATOM     22  C   UNL     1      -2.371   3.460   2.969  0.00  0.00    -0.060 C 
ATOM     23  C   UNL     1      -2.939   3.830   4.341  0.00  0.00    +0.086 C 
ATOM     24  N   UNL     1      -2.619   5.233   4.639  0.00  0.00    -0.331 N 
ATOM     25  C   UNL     1      -1.166   5.449   4.640  0.00  0.00    +0.086 C 
ATOM     26  C   UNL     1      -0.597   5.080   3.268  0.00  0.00    -0.060 C 
ATOM     27  N   UNL     1      -0.906   3.661   2.990  0.00  0.00    +0.382 N 
ATOM     28  H   UNL     1      -0.500   3.080   3.732  0.00  0.00    -0.082 HD
BRANCH  24  29
ATOM     29  C   UNL     1      -3.186   5.628   5.855  0.00  0.00    +0.065 A 
ATOM     30  C   UNL     1      -3.062   6.942   6.285  0.00  0.00    +0.026 A 
ATOM     31  C   UNL     1      -3.626   7.331   7.485  0.00  0.00    +0.002 A 
ATOM     32  C   UNL     1      -4.305   6.412   8.263  0.00  0.00    +0.003 A 
ATOM     33  C   UNL     1      -4.427   5.100   7.841  0.00  0.00    +0.040 A 
ATOM     34  C   UNL     1      -3.869   4.705   6.639  0.00  0.00    +0.144 A 
ATOM     35  F   UNL     1      -3.987   3.423   6.227  0.00  0.00    -0.204 F 
ENDBRANCH  24  29
ENDBRANCH  21  27
ENDBRANCH  20  21
ENDBRANCH  19  20
ENDBRANCH   1  19
TORSDOF 7
