REMARK  Name = ZINC44923700
REMARK  9 active torsions:
REMARK  status: ('A' for Active; 'I' for Inactive)
REMARK    1  A    between atoms: C_1  and  C_2
REMARK    2  A    between atoms: C_4  and  C_21
REMARK    3  A    between atoms: C_5  and  C_9
REMARK    4  A    between atoms: C_7  and  C_8
REMARK    5  A    between atoms: C_9  and  C_11
REMARK    6  A    between atoms: C_9  and  N_12
REMARK    7  A    between atoms: N_12  and  C_13
REMARK    8  A    between atoms: C_13  and  C_15
REMARK    9  A    between atoms: C_13  and  C_16
REMARK                            x       y       z     vdW  Elec       q    Type
REMARK                         _______ _______ _______ _____ _____    ______ ____
ROOT
ATOM      1  C   UNL     1       0.196  -4.155   0.006  0.00  0.00    -0.043 C 
ATOM      2  C   UNL     1       1.696  -4.344   0.243  0.00  0.00    -0.009 C 
ENDROOT
BRANCH   1   7
ATOM      3  C   UNL     1      -0.964   1.470  -0.627  0.00  0.00    +0.044 C 
ATOM      4  C   UNL     1      -0.662   0.003  -0.462  0.00  0.00    -0.047 A 
ATOM      5  C   UNL     1      -0.247  -0.744  -1.549  0.00  0.00    +0.007 A 
ATOM      6  C   UNL     1       0.030  -2.089  -1.397  0.00  0.00    -0.049 A 
ATOM      7  C   UNL     1      -0.106  -2.688  -0.159  0.00  0.00    -0.058 A 
ATOM      8  C   UNL     1      -0.519  -1.941   0.928  0.00  0.00    +0.006 A 
ATOM      9  C   UNL     1      -0.793  -0.594   0.778  0.00  0.00    -0.047 A 
ATOM     10  C   UNL     1      -1.238   0.222   1.964  0.00  0.00    +0.044 C 
ATOM     11  C   UNL     1       0.481  -2.904  -2.583  0.00  0.00    +0.044 C 
ENDBRANCH   1   7
BRANCH   1  12
ATOM     12  N   UNL     1      -0.552  -4.683   1.156  0.00  0.00    +0.390 N 
ATOM     13  H   UNL     1      -0.209  -4.257   2.004  0.00  0.00    -0.084 HD
ATOM     14  H   UNL     1      -1.532  -4.471   1.046  0.00  0.00    -0.084 HD
BRANCH  12  15
ATOM     15  C   UNL     1      -0.371  -6.138   1.231  0.00  0.00    -0.001 C 
ATOM     16  C   UNL     1      -1.034  -6.670   2.504  0.00  0.00    -0.006 C 
BRANCH  15  17
ATOM     17  C   UNL     1      -1.004  -6.786   0.027  0.00  0.00    +0.163 A 
ATOM     18  N   UNL     1      -0.477  -7.741  -0.726  0.00  0.00    -0.113 NA
ATOM     19  N   UNL     1      -1.328  -8.023  -1.652  0.00  0.00    -0.021 NA
ATOM     20  N   UNL     1      -2.369  -7.278  -1.505  0.00  0.00    -0.021 NA
ATOM     21  N   UNL     1      -2.198  -6.515  -0.480  0.00  0.00    -0.113 NA
ENDBRANCH  15  17
ENDBRANCH  12  15
ENDBRANCH   1  12
TORSDOF 4
