REMARK  Name = ZINC50361932
REMARK  6 active torsions:
REMARK  status: ('A' for Active; 'I' for Inactive)
REMARK    1  A    between atoms: C_1  and  C_2
REMARK    2  A    between atoms: C_2  and  C_3
REMARK    3  A    between atoms: N_9  and  C_10
REMARK    4  A    between atoms: C_10  and  C_12
REMARK    5  A    between atoms: C_10  and  C_14
REMARK    6  A    between atoms: C_12  and  N_13
REMARK                            x       y       z     vdW  Elec       q    Type
REMARK                         _______ _______ _______ _____ _____    ______ ____
ROOT
ATOM      1  C   UNL     1       2.403   1.143  -1.024  0.00  0.00    +0.106 C 
ENDROOT
BRANCH   1   2
ATOM      2  C   UNL     1       1.860   1.799  -2.266  0.00  0.00    +0.123 A 
ATOM      3  C   UNL     1       1.125   2.925  -2.303  0.00  0.00    +0.062 A 
ATOM      4  C   UNL     1       0.833   3.180  -3.663  0.00  0.00    +0.070 A 
ATOM      5  C   UNL     1       1.407   2.193  -4.377  0.00  0.00    +0.184 A 
ATOM      6  O   UNL     1       2.032   1.363  -3.525  0.00  0.00    -0.450 OA
ATOM      7 BR   UNL     1       1.350   2.010  -6.258  0.00  0.00    -0.007 Br
ATOM      8 BR   UNL     1      -0.173   4.628  -4.348  0.00  0.00    -0.046 Br
ENDBRANCH   1   2
BRANCH   1  14
ATOM      9  C   UNL     1       0.667  -0.541  -1.156  0.00  0.00    +0.083 C 
ATOM     10  C   UNL     1       0.406  -2.050  -1.136  0.00  0.00    +0.178 C 
ATOM     11  O   UNL     1       1.128  -2.667  -2.205  0.00  0.00    -0.377 OA
ATOM     12  C   UNL     1       2.541  -2.451  -2.146  0.00  0.00    +0.175 C 
ATOM     13  C   UNL     1       2.823  -0.947  -2.176  0.00  0.00    +0.113 C 
ATOM     14  N   UNL     1       2.114  -0.297  -1.064  0.00  0.00    -0.287 NA
BRANCH   9  16
ATOM     15  C   UNL     1      -1.552  -0.022  -0.133  0.00  0.00    +0.005 C 
ATOM     16  C   UNL     1      -0.038   0.115   0.033  0.00  0.00    +0.018 C 
ENDBRANCH   9  16
ENDBRANCH   1  14
BRANCH   1  17
ATOM     17  C   UNL     1       3.917   1.357  -0.954  0.00  0.00    -0.059 C 
BRANCH  17  18
ATOM     18  N   UNL     1       4.464   0.617   0.191  0.00  0.00    +0.379 N 
ATOM     19  H   UNL     1       5.462   0.758   0.237  0.00  0.00    -0.090 HD
ATOM     20  H   UNL     1       4.037   0.951   1.042  0.00  0.00    -0.090 HD
ATOM     21  H   UNL     1       4.268  -0.367   0.080  0.00  0.00    -0.090 HD
ENDBRANCH  17  18
ENDBRANCH   1  17
TORSDOF 5
