REMARK  Name = ZINC04101488
REMARK  6 active torsions:
REMARK  status: ('A' for Active; 'I' for Inactive)
REMARK    1  A    between atoms: C_1  and  C_2
REMARK    2  A    between atoms: C_7  and  C_8
REMARK    3  A    between atoms: C_8  and  O_10
REMARK    4  A    between atoms: O_10  and  C_11
REMARK    5  A    between atoms: C_11  and  C_12
REMARK    6  A    between atoms: C_19  and  C_24
REMARK                            x       y       z     vdW  Elec       q    Type
REMARK                         _______ _______ _______ _____ _____    ______ ____
ROOT
ATOM      1  C   UNL     1      -0.018   1.503   0.010  0.00  0.00    +0.047 C 
ATOM      2  C   UNL     1       0.002  -0.004   0.002  0.00  0.00    -0.008 A 
ATOM      3  C   UNL     1       0.008  -0.834  -1.125  0.00  0.00    +0.042 A 
ATOM      4  C   UNL     1       0.026  -2.156  -0.678  0.00  0.00    +0.028 A 
ATOM      5  N   UNL     1       0.034  -2.138   0.655  0.00  0.00    -0.352 N 
ATOM      6  H   UNL     1       0.048  -2.921   1.227  0.00  0.00    +0.166 HD
ATOM      7  C   UNL     1       0.024  -0.827   1.095  0.00  0.00    +0.128 A 
ATOM      8  C   UNL     1       0.031  -3.337  -1.615  0.00  0.00    +0.065 C 
ATOM      9  C   UNL     1      -0.488  -2.894  -2.987  0.00  0.00    +0.068 C 
ATOM     10  C   UNL     1       0.287  -1.673  -3.491  0.00  0.00    +0.091 C 
ATOM     11  C   UNL     1       0.002  -0.505  -2.559  0.00  0.00    +0.166 C 
ATOM     12  O   UNL     1      -0.215   0.617  -2.968  0.00  0.00    -0.292 OA
ENDROOT
BRANCH   9  13
ATOM     13  C   UNL     1      -0.323  -4.026  -3.968  0.00  0.00    +0.109 A 
ATOM     14  C   UNL     1      -1.314  -4.622  -4.655  0.00  0.00    +0.045 A 
ATOM     15  C   UNL     1      -0.714  -5.624  -5.453  0.00  0.00    +0.041 A 
ATOM     16  C   UNL     1       0.608  -5.580  -5.205  0.00  0.00    +0.195 A 
ATOM     17  O   UNL     1       0.839  -4.606  -4.310  0.00  0.00    -0.468 OA
ENDBRANCH   9  13
BRANCH   7  18
ATOM     18  C   UNL     1       0.033  -0.393   2.495  0.00  0.00    +0.356 C 
ATOM     19  O   UNL     1       0.021   0.793   2.764  0.00  0.00    -0.243 OA
BRANCH  18  20
ATOM     20  O   UNL     1       0.055  -1.308   3.485  0.00  0.00    -0.458 OA
BRANCH  20  21
ATOM     21  C   UNL     1       0.063  -0.814   4.826  0.00  0.00    +0.264 C 
BRANCH  21  22
ATOM     22  C   UNL     1       0.088  -1.991   5.803  0.00  0.00    +0.156 C 
ATOM     23  C   UNL     1       0.188  -1.477   7.262  0.00  0.00    +0.037 C 
ATOM     24  C   UNL     1      -0.436  -2.669   8.038  0.00  0.00    +0.031 C 
ATOM     25  C   UNL     1      -1.512  -3.174   7.053  0.00  0.00    +0.160 C 
ATOM     26  O   UNL     1      -1.150  -2.716   5.743  0.00  0.00    -0.373 OA
ENDBRANCH  21  22
ENDBRANCH  20  21
ENDBRANCH  18  20
ENDBRANCH   7  18
TORSDOF 5
