REMARK  Name = ZINC19645431
REMARK  8 active torsions:
REMARK  status: ('A' for Active; 'I' for Inactive)
REMARK    1  A    between atoms: C_1  and  C_2
REMARK    2  A    between atoms: C_2  and  C_3
REMARK    3  A    between atoms: C_4  and  C_32
REMARK    4  A    between atoms: C_6  and  N_18
REMARK    5  A    between atoms: C_7  and  C_8
REMARK    6  A    between atoms: N_10  and  C_11
REMARK    7  A    between atoms: C_19  and  C_21
REMARK    8  A    between atoms: C_27  and  C_29
REMARK                            x       y       z     vdW  Elec       q    Type
REMARK                         _______ _______ _______ _____ _____    ______ ____
ROOT
ATOM      1  C   UNL     1       0.057   1.285  -0.190  0.00  0.00    -0.024 A 
ATOM      2  C   UNL     1       1.242   1.921  -0.198  0.00  0.00    -0.008 A 
ATOM      3  S   UNL     1       2.416   0.602   0.035  0.00  0.00    -0.078 S 
ATOM      4  C   UNL     1       1.326  -0.740   0.136  0.00  0.00    +0.084 A 
ATOM      5  C   UNL     1       0.078  -0.147  -0.011  0.00  0.00    +0.069 A 
ATOM      6  C   UNL     1       1.512   3.394  -0.364  0.00  0.00    +0.052 C 
ENDROOT
BRANCH   5   7
ATOM      7  C   UNL     1      -1.157  -0.937   0.012  0.00  0.00    +0.251 C 
ATOM      8  O   UNL     1      -1.607  -1.395  -1.022  0.00  0.00    -0.270 OA
ATOM      9  N   UNL     1      -1.794  -1.157   1.179  0.00  0.00    -0.281 N 
ATOM     10  H   UNL     1      -1.343  -0.819   2.124  0.00  0.00    +0.155 HD
BRANCH   9  11
ATOM     11  C   UNL     1      -3.028  -1.816   1.190  0.00  0.00    +0.034 A 
ATOM     12  C   UNL     1      -3.917  -1.645   0.136  0.00  0.00    +0.025 A 
ATOM     13  C   UNL     1      -5.132  -2.300   0.146  0.00  0.00    +0.022 A 
ATOM     14  C   UNL     1      -5.469  -3.119   1.210  0.00  0.00    +0.041 A 
ATOM     15  C   UNL     1      -4.588  -3.288   2.263  0.00  0.00    +0.022 A 
ATOM     16  C   UNL     1      -3.369  -2.638   2.256  0.00  0.00    +0.025 A 
ATOM     17 CL   UNL     1      -7.001  -3.936   1.223  0.00  0.00    -0.084 Cl
ENDBRANCH   9  11
ENDBRANCH   5   7
BRANCH   4  18
ATOM     18  N   UNL     1       1.626  -2.081   0.321  0.00  0.00    -0.279 N 
ATOM     19  C   UNL     1       2.909  -2.474   0.446  0.00  0.00    +0.222 C 
ATOM     20  O   UNL     1       3.802  -1.654   0.397  0.00  0.00    -0.275 OA
ATOM     21  H   UNL     1       0.817  -2.825   0.365  0.00  0.00    +0.155 HD
BRANCH  19  22
ATOM     22  C   UNL     1       3.236  -3.931   0.646  0.00  0.00    +0.093 C 
ATOM     23  C   UNL     1       2.593  -4.429   1.943  0.00  0.00    +0.040 C 
ATOM     24  C   UNL     1       3.120  -5.790   2.292  0.00  0.00    -0.030 C 
ATOM     25  C   UNL     1       4.199  -6.300   1.790  0.00  0.00    -0.030 C 
ATOM     26  C   UNL     1       5.067  -5.607   0.781  0.00  0.00    +0.042 C 
ATOM     27  C   UNL     1       4.755  -4.109   0.758  0.00  0.00    +0.118 C 
BRANCH  27  28
ATOM     28  C   UNL     1       5.429  -3.465  -0.425  0.00  0.00    +0.360 C 
ATOM     29  O   UNL     1       4.766  -2.918  -1.275  0.00  0.00    -0.246 OA
ATOM     30  O   UNL     1       6.767  -3.498  -0.536  0.00  0.00    -0.246 OA
ENDBRANCH  27  28
ENDBRANCH  19  22
ENDBRANCH   4  18
BRANCH   1  32
ATOM     31  C   UNL     1      -1.768   2.467   1.003  0.00  0.00    +0.009 C 
ATOM     32  C   UNL     1      -1.238   2.036  -0.366  0.00  0.00    +0.033 C 
ENDBRANCH   1  32
TORSDOF 6
