REMARK  Name = ZINC12219079
REMARK  13 active torsions:
REMARK  status: ('A' for Active; 'I' for Inactive)
REMARK    1  A    between atoms: C_1  and  C_2
REMARK    2  A    between atoms: C_2  and  C_3
REMARK    3  A    between atoms: C_4  and  C_19
REMARK    4  A    between atoms: C_8  and  C_18
REMARK    5  A    between atoms: N_9  and  C_10
REMARK    6  A    between atoms: C_10  and  C_11
REMARK    7  A    between atoms: C_16  and  C_17
REMARK    8  A    between atoms: C_16  and  N_65
REMARK    9  A    between atoms: N_21  and  C_22
REMARK   10  A    between atoms: C_22  and  C_23
REMARK   11  A    between atoms: C_24  and  C_30
REMARK   12  A    between atoms: N_26  and  C_29
REMARK   13  A    between atoms: C_27  and  C_28
REMARK                            x       y       z     vdW  Elec       q    Type
REMARK                         _______ _______ _______ _____ _____    ______ ____
ROOT
ATOM      1  C   UNL     1       3.900   3.665  -0.002  0.00  0.00    +0.034 A 
ATOM      2  C   UNL     1       4.614   4.787  -0.370  0.00  0.00    +0.103 A 
ATOM      3  C   UNL     1       5.411   4.731  -1.605  0.00  0.00    +0.194 A 
ATOM      4  O   UNL     1       6.062   5.693  -1.979  0.00  0.00    -0.287 OA
ATOM      5  C   UNL     1       5.399   3.523  -2.346  0.00  0.00    +0.072 A 
ATOM      6  C   UNL     1       4.672   2.480  -1.897  0.00  0.00    +0.019 A 
ATOM      7  N   UNL     1       3.940   2.556  -0.759  0.00  0.00    -0.349 N 
ATOM      8  C   UNL     1       4.667   1.196  -2.687  0.00  0.00    +0.063 C 
ENDROOT
BRANCH   2   9
ATOM      9  C   UNL     1       4.577   6.009   0.451  0.00  0.00    +0.250 C 
ATOM     10  O   UNL     1       5.391   6.168   1.341  0.00  0.00    -0.270 OA
ATOM     11  N   UNL     1       3.643   6.952   0.216  0.00  0.00    -0.307 N 
ATOM     12  H   UNL     1       2.994   6.825  -0.493  0.00  0.00    +0.149 HD
BRANCH  11  13
ATOM     13  C   UNL     1       3.607   8.167   1.033  0.00  0.00    +0.143 C 
BRANCH  13  14
ATOM     14  C   UNL     1       2.477   9.051   0.570  0.00  0.00    +0.013 A 
ATOM     15  C   UNL     1       1.163   9.023   1.047  0.00  0.00    +0.065 A 
ATOM     16  N   UNL     1       0.476   9.934   0.406  0.00  0.00    -0.176 NA
ATOM     17  N   UNL     1       1.334  10.571  -0.500  0.00  0.00    -0.271 N 
ATOM     18  C   UNL     1       2.557  10.015  -0.376  0.00  0.00    +0.041 A 
ATOM     19  C   UNL     1       3.790  10.396  -1.154  0.00  0.00    +0.065 C 
ATOM     20  C   UNL     1       0.969  11.655  -1.416  0.00  0.00    +0.172 C 
ATOM     21  C   UNL     1       0.629   8.102   2.113  0.00  0.00    +0.068 C 
ENDBRANCH  13  14
ENDBRANCH  11  13
ENDBRANCH   2   9
BRANCH   1  23
ATOM     22  C   UNL     1       3.926   3.216   2.437  0.00  0.00    +0.010 C 
ATOM     23  C   UNL     1       3.072   3.684   1.257  0.00  0.00    +0.051 C 
ENDBRANCH   1  23
BRANCH   7  24
ATOM     24  C   UNL     1       3.170   1.384  -0.335  0.00  0.00    +0.106 C 
BRANCH  24  25
ATOM     25  C   UNL     1       1.828   1.363  -1.070  0.00  0.00    -0.049 C 
ATOM     26  C   UNL     1       1.007   0.122  -0.657  0.00  0.00    -0.015 C 
ATOM     27  C   UNL     1      -0.456   0.609  -0.605  0.00  0.00    -0.020 C 
ATOM     28  C   UNL     1      -0.396   2.102  -0.991  0.00  0.00    -0.078 C 
ATOM     29  N   UNL     1       0.976   2.487  -0.666  0.00  0.00    +0.383 N 
ATOM     30  H   UNL     1       1.064   2.649   0.344  0.00  0.00    -0.081 HD
BRANCH  29  31
ATOM     31  C   UNL     1       1.367   3.731  -1.400  0.00  0.00    -0.082 C 
ATOM     32  C   UNL     1       0.692   4.948  -0.765  0.00  0.00    -0.017 C 
ENDBRANCH  29  31
ENDBRANCH  24  25
ENDBRANCH   7  24
TORSDOF 7
