REMARK  Name = ZINC03893135
REMARK  9 active torsions:
REMARK  status: ('A' for Active; 'I' for Inactive)
REMARK    1  A    between atoms: C_1  and  C_2
REMARK    2  A    between atoms: C_2  and  C_3
REMARK    3  A    between atoms: C_3  and  N_4
REMARK    4  A    between atoms: N_12  and  C_28
REMARK    5  A    between atoms: N_16  and  N_17
REMARK    6  A    between atoms: C_18  and  C_19
REMARK    7  A    between atoms: C_22  and  N_25
REMARK    8  A    between atoms: N_25  and  C_26
REMARK    9  A    between atoms: N_25  and  C_27
REMARK                            x       y       z     vdW  Elec       q    Type
REMARK                         _______ _______ _______ _____ _____    ______ ____
ROOT
ATOM      1  N   UNL     1       1.123  -0.775  -0.018  0.00  0.00    -0.305 N 
ATOM      2  C   UNL     1       0.698  -2.096  -0.016  0.00  0.00    +0.153 A 
ATOM      3  C   UNL     1       1.353  -3.341  -0.028  0.00  0.00    +0.280 A 
ATOM      4  O   UNL     1       2.571  -3.396  -0.039  0.00  0.00    -0.265 OA
ATOM      5  N   UNL     1       0.620  -4.473  -0.028  0.00  0.00    -0.273 N 
ATOM      6  H   UNL     1       1.083  -5.359  -0.037  0.00  0.00    +0.173 HD
ATOM      7  C   UNL     1      -0.723  -4.428  -0.015  0.00  0.00    +0.331 A 
ATOM      8  O   UNL     1      -1.351  -5.469  -0.015  0.00  0.00    -0.246 OA
ATOM      9  N   UNL     1      -1.390  -3.259  -0.003  0.00  0.00    -0.280 N 
ATOM     10  C   UNL     1      -0.693  -2.062  -0.003  0.00  0.00    +0.170 A 
ATOM     11  N   UNL     1      -1.063  -0.781   0.008  0.00  0.00    -0.195 NA
ATOM     12  C   UNL     1       0.002  -0.004   0.002  0.00  0.00    +0.218 A 
ATOM     13  N   UNL     1      -0.017   1.372   0.010  0.00  0.00    -0.206 N 
ATOM     14  C   UNL     1      -2.855  -3.252   0.010  0.00  0.00    +0.155 C 
ATOM     15  H   UNL     1       0.817   1.868   0.004  0.00  0.00    +0.177 HD
ENDROOT
BRANCH  13  16
ATOM     16  N   UNL     1      -1.239   2.056   0.019  0.00  0.00    -0.188 NA
ATOM     17  C   UNL     1      -1.257   3.354   0.026  0.00  0.00    +0.138 C 
BRANCH  17  18
ATOM     18  C   UNL     1      -2.543   4.073   0.036  0.00  0.00    -0.005 A 
ATOM     19  C   UNL     1      -3.745   3.360   0.032  0.00  0.00    +0.011 A 
ATOM     20  C   UNL     1      -4.945   4.036   0.047  0.00  0.00    +0.024 A 
ATOM     21  C   UNL     1      -4.962   5.426   0.055  0.00  0.00    +0.029 A 
ATOM     22  C   UNL     1      -3.768   6.140   0.053  0.00  0.00    +0.024 A 
ATOM     23  C   UNL     1      -2.564   5.471   0.044  0.00  0.00    +0.011 A 
BRANCH  21  24
ATOM     24  N   UNL     1      -6.180   6.108   0.065  0.00  0.00    -0.336 N 
ATOM     25  C   UNL     1      -6.200   7.572   0.073  0.00  0.00    +0.129 C 
ATOM     26  C   UNL     1      -7.439   5.358   0.067  0.00  0.00    +0.129 C 
ENDBRANCH  21  24
ENDBRANCH  17  18
ENDBRANCH  13  16
BRANCH   1  27
ATOM     27  C   UNL     1       2.509  -0.302  -0.036  0.00  0.00    +0.125 C 
BRANCH  27  29
ATOM     28  C   UNL     1       4.461   0.348   1.382  0.00  0.00    +0.005 C 
ATOM     29  C   UNL     1       3.013  -0.146   1.401  0.00  0.00    +0.018 C 
ENDBRANCH  27  29
ENDBRANCH   1  27
TORSDOF 5
