REMARK  Name = ZINC39658747
REMARK  12 active torsions:
REMARK  status: ('A' for Active; 'I' for Inactive)
REMARK    1  A    between atoms: C_1  and  C_2
REMARK    2  A    between atoms: C_6  and  C_8
REMARK    3  A    between atoms: N_10  and  C_11
REMARK    4  A    between atoms: C_11  and  C_13
REMARK    5  A    between atoms: C_11  and  C_16
REMARK    6  A    between atoms: C_13  and  C_14
REMARK    7  A    between atoms: C_13  and  C_15
REMARK    8  A    between atoms: C_16  and  O_18
REMARK    9  A    between atoms: O_18  and  C_19
REMARK   10  A    between atoms: C_19  and  C_20
REMARK   11  A    between atoms: N_22  and  C_23
REMARK   12  A    between atoms: C_24  and  C_32
REMARK                            x       y       z     vdW  Elec       q    Type
REMARK                         _______ _______ _______ _____ _____    ______ ____
ROOT
ATOM      1  C   UNL     1      -1.149  -8.456   4.233  0.00  0.00    +0.328 C 
ENDROOT
BRANCH   1   2
ATOM      2  C   UNL     1      -1.165  -9.282   5.493  0.00  0.00    +0.255 C 
ATOM      3  O   UNL     1      -0.737  -8.818   6.528  0.00  0.00    -0.272 OA
ATOM      4  N   UNL     1      -1.656 -10.537   5.469  0.00  0.00    -0.277 N 
ATOM      5  H   UNL     1      -1.999 -10.908   4.641  0.00  0.00    +0.155 HD
BRANCH   4   6
ATOM      6  C   UNL     1      -1.672 -11.297   6.629  0.00  0.00    +0.084 A 
ATOM      7  C   UNL     1      -2.129 -12.596   6.790  0.00  0.00    +0.068 A 
ATOM      8  C   UNL     1      -2.034 -13.173   8.120  0.00  0.00    -0.023 A 
ATOM      9  C   UNL     1      -1.500 -12.346   9.044  0.00  0.00    -0.004 A 
ATOM     10  S   UNL     1      -1.134 -10.859   8.158  0.00  0.00    -0.077 S 
ATOM     11  C   UNL     1      -1.273 -12.644  10.494  0.00  0.00    +0.043 C 
ATOM     12  C   UNL     1      -2.082 -13.896  10.861  0.00  0.00    +0.005 C 
ATOM     13  C   UNL     1      -1.827 -14.978   9.807  0.00  0.00    +0.005 C 
ATOM     14  C   UNL     1      -2.483 -14.580   8.483  0.00  0.00    +0.037 C 
BRANCH   7  15
ATOM     15  C   UNL     1      -2.685 -13.355   5.666  0.00  0.00    +0.244 C 
ATOM     16  O   UNL     1      -1.955 -14.037   4.971  0.00  0.00    -0.270 OA
ATOM     17  N   UNL     1      -4.006 -13.297   5.401  0.00  0.00    -0.325 N 
ATOM     18  H   UNL     1      -4.588 -12.754   5.955  0.00  0.00    +0.145 HD
ATOM     19  H   UNL     1      -4.374 -13.800   4.658  0.00  0.00    +0.145 HD
ENDBRANCH   7  15
ENDBRANCH   4   6
ENDBRANCH   1   2
BRANCH   1  20
ATOM     20  O   UNL     1      -0.585  -7.173   4.512  0.00  0.00    -0.454 OA
BRANCH  20  21
ATOM     21  C   UNL     1      -0.498  -6.309   3.488  0.00  0.00    +0.328 C 
ATOM     22  O   UNL     1      -0.886  -6.633   2.391  0.00  0.00    -0.249 OA
BRANCH  21  23
ATOM     23  C   UNL     1       0.086  -4.937   3.707  0.00  0.00    +0.185 C 
BRANCH  23  26
ATOM     24  C   UNL     1       0.052  -2.845   2.458  0.00  0.00    +0.245 C 
ATOM     25  O   UNL     1       0.049  -2.248   3.516  0.00  0.00    -0.270 OA
ATOM     26  N   UNL     1       0.070  -4.193   2.445  0.00  0.00    -0.298 N 
ATOM     27  H   UNL     1       0.072  -4.670   1.601  0.00  0.00    +0.150 HD
BRANCH  24  33
ATOM     28  C   UNL     1      -0.018   1.503   0.010  0.00  0.00    +0.044 C 
ATOM     29  C   UNL     1       0.002  -0.004   0.002  0.00  0.00    -0.050 A 
ATOM     30  C   UNL     1       0.006  -0.688  -1.201  0.00  0.00    +0.003 A 
ATOM     31  C   UNL     1       0.025  -2.071  -1.218  0.00  0.00    +0.001 A 
ATOM     32  C   UNL     1       0.040  -2.778  -0.033  0.00  0.00    +0.013 A 
ATOM     33  C   UNL     1       0.036  -2.095   1.184  0.00  0.00    +0.037 A 
ATOM     34  C   UNL     1       0.023  -0.699   1.194  0.00  0.00    +0.016 A 
ENDBRANCH  24  33
ENDBRANCH  23  26
BRANCH  23  35
ATOM     35  C   UNL     1       1.527  -5.069   4.204  0.00  0.00    +0.014 C 
ATOM     36  C   UNL     1       1.543  -5.846   5.521  0.00  0.00    +0.009 C 
ATOM     37  C   UNL     1       2.359  -5.816   3.160  0.00  0.00    +0.009 C 
ENDBRANCH  23  35
ENDBRANCH  21  23
ENDBRANCH  20  21
ENDBRANCH   1  20
TORSDOF 9
