REMARK  Name = ZINC16386144
REMARK  11 active torsions:
REMARK  status: ('A' for Active; 'I' for Inactive)
REMARK    1  A    between atoms: C_1  and  C_2
REMARK    2  A    between atoms: C_2  and  C_4
REMARK    3  A    between atoms: C_2  and  N_58
REMARK    4  A    between atoms: N_6  and  C_7
REMARK    5  A    between atoms: C_17  and  N_58
REMARK    6  A    between atoms: C_18  and  C_19
REMARK    7  A    between atoms: C_18  and  N_58
REMARK    8  A    between atoms: N_21  and  C_22
REMARK    9  A    between atoms: C_22  and  C_23
REMARK   10  A    between atoms: C_23  and  O_24
REMARK   11  A    between atoms: O_24  and  C_25
REMARK                            x       y       z     vdW  Elec       q    Type
REMARK                         _______ _______ _______ _____ _____    ______ ____
ROOT
ATOM      1  C   UNL     1      -2.848   7.752   0.309  0.00  0.00    -0.004 C 
ATOM      2  C   UNL     1      -2.132   7.259  -0.950  0.00  0.00    +0.016 C 
ENDROOT
BRANCH   2   3
ATOM      3  C   UNL     1      -2.112   5.752  -0.958  0.00  0.00    +0.200 C 
ATOM      4  O   UNL     1      -2.637   5.143  -1.866  0.00  0.00    -0.278 OA
ATOM      5  N   UNL     1      -1.510   5.081   0.044  0.00  0.00    -0.311 N 
ATOM      6  H   UNL     1      -1.089   5.567   0.770  0.00  0.00    +0.149 HD
BRANCH   5   7
ATOM      7  C   UNL     1      -1.490   3.616   0.036  0.00  0.00    +0.035 C 
ATOM      8  C   UNL     1      -0.773   3.123  -1.223  0.00  0.00    +0.029 C 
ATOM      9  C   UNL     1      -0.753   1.593  -1.232  0.00  0.00    -0.008 C 
ATOM     10  C   UNL     1      -0.013   1.086   0.008  0.00  0.00    +0.007 C 
ATOM     11  C   UNL     1      -0.729   1.579   1.267  0.00  0.00    -0.008 C 
ATOM     12  C   UNL     1      -0.750   3.109   1.275  0.00  0.00    +0.029 C 
ATOM     13  C   UNL     1      -2.164   1.050   1.278  0.00  0.00    +0.007 C 
ATOM     14  C   UNL     1      -2.904   1.556   0.038  0.00  0.00    -0.008 C 
ATOM     15  C   UNL     1      -2.188   1.063  -1.221  0.00  0.00    +0.007 C 
ATOM     16  C   UNL     1      -2.925   3.086   0.047  0.00  0.00    +0.029 C 
ENDBRANCH   5   7
ENDBRANCH   2   3
BRANCH   2  18
ATOM     17  C   UNL     1      -4.264   7.377  -2.092  0.00  0.00    -0.094 C 
ATOM     18  N   UNL     1      -2.831   7.733  -2.163  0.00  0.00    +0.391 N 
ATOM     19  H   UNL     1      -2.415   7.281  -2.985  0.00  0.00    -0.080 HD
BRANCH  18  20
ATOM     20  C   UNL     1      -2.681   9.197  -2.292  0.00  0.00    +0.019 C 
BRANCH  20  21
ATOM     21  C   UNL     1      -3.207   9.623  -3.639  0.00  0.00    +0.197 C 
ATOM     22  O   UNL     1      -3.671   8.797  -4.397  0.00  0.00    -0.278 OA
ATOM     23  N   UNL     1      -3.162  10.920  -4.001  0.00  0.00    -0.315 N 
ATOM     24  H   UNL     1      -2.790  11.580  -3.395  0.00  0.00    +0.149 HD
BRANCH  23  25
ATOM     25  C   UNL     1      -3.673  11.334  -5.310  0.00  0.00    +0.132 C 
BRANCH  25  26
ATOM     26  C   UNL     1      -3.504  12.846  -5.469  0.00  0.00    +0.178 C 
BRANCH  26  27
ATOM     27  O   UNL     1      -2.113  13.171  -5.487  0.00  0.00    -0.381 OA
ATOM     28  C   UNL     1      -1.844  14.566  -5.633  0.00  0.00    +0.194 C 
ENDBRANCH  26  27
ENDBRANCH  25  26
ENDBRANCH  23  25
ENDBRANCH  20  21
ENDBRANCH  18  20
ENDBRANCH   2  18
TORSDOF 8
