REMARK  Name = ZINC00472316
REMARK  2 active torsions:
REMARK  status: ('A' for Active; 'I' for Inactive)
REMARK    1  A    between atoms: C_1  and  N_2
REMARK    2  A    between atoms: C_13  and  N_17
REMARK                            x       y       z     vdW  Elec       q    Type
REMARK                         _______ _______ _______ _____ _____    ______ ____
ROOT
ATOM      1  C   UNL     1      -0.269  -4.259  -0.359  0.00  0.00    +0.151 C 
ATOM      2  N   UNL     1      -0.252  -2.794  -0.360  0.00  0.00    -0.322 N 
ATOM      3  C   UNL     1      -1.288  -2.098   0.209  0.00  0.00    +0.147 A 
ATOM      4  C   UNL     1      -1.263  -0.692   0.198  0.00  0.00    +0.060 A 
ATOM      5  C   UNL     1      -0.171  -0.003  -0.395  0.00  0.00    -0.028 A 
ATOM      6  C   UNL     1       0.836  -0.722  -0.938  0.00  0.00    -0.013 A 
ATOM      7  C   UNL     1       0.778  -2.136  -0.918  0.00  0.00    +0.092 A 
ATOM      8  S   UNL     1       2.056  -3.032  -1.622  0.00  0.00    -0.032 S 
ATOM      9  C   UNL     1       2.044  -0.081  -1.569  0.00  0.00    +0.038 C 
ATOM     10  C   UNL     1       1.767   1.384  -1.902  0.00  0.00    +0.005 C 
ATOM     11  C   UNL     1       1.203   2.064  -0.649  0.00  0.00    +0.005 C 
ATOM     12  C   UNL     1      -0.194   1.502  -0.388  0.00  0.00    +0.036 C 
ATOM     13  C   UNL     1      -2.338   0.004   0.787  0.00  0.00    +0.129 A 
ATOM     14  N   UNL     1      -3.326  -0.707   1.325  0.00  0.00    -0.220 NA
ATOM     15  C   UNL     1      -3.305  -2.025   1.311  0.00  0.00    +0.225 A 
ATOM     16  N   UNL     1      -2.320  -2.717   0.772  0.00  0.00    -0.218 NA
ENDROOT
BRANCH  13  17
ATOM     17  N   UNL     1      -2.365   1.383   0.804  0.00  0.00    -0.343 N 
ATOM     18  H   UNL     1      -2.137   1.883   0.004  0.00  0.00    +0.144 HD
ATOM     19  H   UNL     1      -2.612   1.853   1.615  0.00  0.00    +0.144 HD
ENDBRANCH  13  17
TORSDOF 1
