REMARK  Name = ZINC65260724
REMARK  1 active torsions:
REMARK  status: ('A' for Active; 'I' for Inactive)
REMARK    1  A    between atoms: C_3  and  N_9
REMARK                            x       y       z     vdW  Elec       q    Type
REMARK                         _______ _______ _______ _____ _____    ______ ____
ROOT
ATOM      1  N   UNL     1       3.584   2.129  -0.030  0.00  0.00    -0.267 N 
ATOM      2  C   UNL     1       3.568   3.474  -0.116  0.00  0.00    +0.307 C 
ATOM      3  O   UNL     1       2.509   4.071  -0.095  0.00  0.00    -0.252 OA
ATOM      4  N   UNL     1       4.725   4.156  -0.225  0.00  0.00    -0.284 N 
ATOM      5  C   UNL     1       5.998   3.437  -0.358  0.00  0.00    +0.115 C 
ATOM      6  C   UNL     1       6.704   3.913  -1.637  0.00  0.00    +0.071 C 
ATOM      7  C   UNL     1       6.677   5.420  -1.655  0.00  0.00    +0.036 C 
ATOM      8  N   UNL     1       7.747   6.119  -1.777  0.00  0.00    -0.236 NA
ATOM      9  C   UNL     1       7.743   7.482  -1.769  0.00  0.00    +0.159 A 
ATOM     10  C   UNL     1       8.782   8.366  -1.919  0.00  0.00    +0.069 A 
ATOM     11  C   UNL     1       8.264   9.659  -1.821  0.00  0.00    +0.137 A 
ATOM     12  N   UNL     1       6.975   9.581  -1.623  0.00  0.00    -0.170 NA
ATOM     13  N   UNL     1       6.610   8.227  -1.594  0.00  0.00    -0.181 N 
ATOM     14  C   UNL     1       5.399   7.643  -1.440  0.00  0.00    +0.259 C 
ATOM     15  O   UNL     1       4.403   8.300  -1.251  0.00  0.00    -0.270 OA
ATOM     16  C   UNL     1       5.345   6.131  -1.516  0.00  0.00    +0.141 C 
ATOM     17  C   UNL     1       4.721   5.625  -0.219  0.00  0.00    +0.128 C 
ATOM     18  H   UNL     1       4.430   1.655  -0.004  0.00  0.00    +0.156 HD
ENDROOT
BRANCH   1  21
ATOM     19  C   UNL     1       0.042   1.322   0.547  0.00  0.00    +0.022 A 
ATOM     20  C   UNL     1       1.229   2.027   0.498  0.00  0.00    +0.027 A 
ATOM     21  C   UNL     1       2.380   1.415   0.021  0.00  0.00    +0.070 A 
ATOM     22  C   UNL     1       2.334   0.092  -0.405  0.00  0.00    +0.146 A 
ATOM     23  C   UNL     1       1.144  -0.609  -0.353  0.00  0.00    +0.060 A 
ATOM     24  C   UNL     1      -0.002   0.006   0.122  0.00  0.00    +0.044 A 
ATOM     25 CL   UNL     1      -1.495  -0.877   0.187  0.00  0.00    -0.083 Cl
ATOM     26  F   UNL     1       3.453  -0.507  -0.870  0.00  0.00    -0.203 F 
ENDBRANCH   1  21
TORSDOF 1
