REMARK  Name = ZINC03086074
REMARK  7 active torsions:
REMARK  status: ('A' for Active; 'I' for Inactive)
REMARK    1  A    between atoms: C_2  and  C_3
REMARK    2  A    between atoms: C_3  and  N_4
REMARK    3  A    between atoms: N_7  and  C_8
REMARK    4  A    between atoms: C_11  and  C_14
REMARK    5  A    between atoms: N_16  and  N_17
REMARK    6  A    between atoms: C_18  and  C_19
REMARK    7  A    between atoms: C_24  and  O_25
REMARK                            x       y       z     vdW  Elec       q    Type
REMARK                         _______ _______ _______ _____ _____    ______ ____
ROOT
ATOM      1  C   UNL     1      -3.448  -4.257  -2.563  0.00  0.00    +0.035 A 
ATOM      2  C   UNL     1      -4.557  -4.234  -1.722  0.00  0.00    +0.024 A 
ATOM      3  C   UNL     1      -5.586  -5.129  -1.913  0.00  0.00    +0.015 A 
ATOM      4  C   UNL     1      -5.515  -6.061  -2.951  0.00  0.00    +0.038 A 
ATOM      5  C   UNL     1      -4.400  -6.082  -3.794  0.00  0.00    +0.015 A 
ATOM      6  C   UNL     1      -3.377  -5.181  -3.601  0.00  0.00    +0.024 A 
ENDROOT
BRANCH   1  10
ATOM      7  N   UNL     1      -1.004  -2.168  -0.923  0.00  0.00    -0.296 N 
ATOM      8  C   UNL     1      -2.068  -2.973  -1.118  0.00  0.00    +0.304 C 
ATOM      9  O   UNL     1      -2.719  -3.360  -0.168  0.00  0.00    -0.253 OA
ATOM     10  N   UNL     1      -2.409  -3.349  -2.367  0.00  0.00    -0.269 N 
ATOM     11  H   UNL     1      -0.485  -1.859  -1.682  0.00  0.00    +0.151 HD
ATOM     12  H   UNL     1      -1.931  -2.987  -3.130  0.00  0.00    +0.156 HD
BRANCH   7  13
ATOM     13  C   UNL     1      -0.634  -1.760   0.434  0.00  0.00    +0.132 C 
BRANCH  13  15
ATOM     14  C   UNL     1       0.546   0.320   0.926  0.00  0.00    +0.005 C 
ATOM     15  C   UNL     1       0.580  -0.869   0.377  0.00  0.00    -0.016 C 
ENDBRANCH  13  15
ENDBRANCH   7  13
ENDBRANCH   1  10
BRANCH   4  16
ATOM     16  C   UNL     1      -6.615  -7.023  -3.158  0.00  0.00    +0.263 C 
ATOM     17  O   UNL     1      -7.585  -7.004  -2.425  0.00  0.00    -0.268 OA
ATOM     18  N   UNL     1      -6.545  -7.921  -4.160  0.00  0.00    -0.203 N 
ATOM     19  H   UNL     1      -5.772  -7.936  -4.745  0.00  0.00    +0.178 HD
BRANCH  18  20
ATOM     20  N   UNL     1      -7.590  -8.834  -4.357  0.00  0.00    -0.187 NA
ATOM     21  C   UNL     1      -7.523  -9.700  -5.322  0.00  0.00    +0.142 C 
BRANCH  21  22
ATOM     22  C   UNL     1      -8.622 -10.660  -5.528  0.00  0.00    +0.036 A 
ATOM     23  C   UNL     1      -8.551 -11.596  -6.562  0.00  0.00    +0.013 A 
ATOM     24  C   UNL     1      -9.583 -12.492  -6.750  0.00  0.00    +0.001 A 
ATOM     25  C   UNL     1     -10.689 -12.466  -5.918  0.00  0.00    +0.004 A 
ATOM     26  C   UNL     1     -10.772 -11.544  -4.892  0.00  0.00    +0.046 A 
ATOM     27  C   UNL     1      -9.741 -10.642  -4.685  0.00  0.00    +0.125 A 
BRANCH  27  28
ATOM     28  O   UNL     1      -9.818  -9.739  -3.673  0.00  0.00    -0.506 OA
ATOM     29  H   UNL     1     -10.239  -8.905  -3.922  0.00  0.00    +0.292 HD
ENDBRANCH  27  28
ENDBRANCH  21  22
ENDBRANCH  18  20
ENDBRANCH   4  16
TORSDOF 7
