REMARK  Name = ZINC03014168
REMARK  11 active torsions:
REMARK  status: ('A' for Active; 'I' for Inactive)
REMARK    1  A    between atoms: C_1  and  N_2
REMARK    2  A    between atoms: N_2  and  C_3
REMARK    3  A    between atoms: N_6  and  C_7
REMARK    4  A    between atoms: C_7  and  C_9
REMARK    5  A    between atoms: C_7  and  N_13
REMARK    6  A    between atoms: N_13  and  C_14
REMARK    7  A    between atoms: C_14  and  N_16
REMARK    8  A    between atoms: N_16  and  C_17
REMARK    9  A    between atoms: C_22  and  C_23
REMARK   10  A    between atoms: C_23  and  O_25
REMARK   11  A    between atoms: O_25  and  C_26
REMARK                            x       y       z     vdW  Elec       q    Type
REMARK                         _______ _______ _______ _____ _____    ______ ____
ROOT
ATOM      1  N   UNL     1      -3.044   1.456  -1.556  0.00  0.00    -0.305 N 
ATOM      2  H   UNL     1      -3.196   2.309  -1.990  0.00  0.00    +0.150 HD
ENDROOT
BRANCH   1   3
ATOM      3  C   UNL     1      -3.113   0.315  -2.270  0.00  0.00    +0.136 C 
ATOM      4  S   UNL     1      -2.846  -1.193  -1.503  0.00  0.00    -0.019 S 
BRANCH   3   5
ATOM      5  N   UNL     1      -3.392   0.360  -3.587  0.00  0.00    -0.296 N 
ATOM      6  H   UNL     1      -3.625   1.204  -4.005  0.00  0.00    +0.154 HD
BRANCH   5   7
ATOM      7  C   UNL     1      -3.347  -0.804  -4.349  0.00  0.00    +0.047 A 
ATOM      8  C   UNL     1      -2.271  -1.674  -4.230  0.00  0.00    +0.024 A 
ATOM      9  C   UNL     1      -2.230  -2.830  -4.982  0.00  0.00    +0.002 A 
ATOM     10  C   UNL     1      -3.254  -3.128  -5.868  0.00  0.00    +0.001 A 
ATOM     11  C   UNL     1      -4.326  -2.274  -6.004  0.00  0.00    +0.017 A 
ATOM     12  C   UNL     1      -4.385  -1.102  -5.245  0.00  0.00    +0.080 A 
BRANCH  12  13
ATOM     13  C   UNL     1      -5.529  -0.184  -5.386  0.00  0.00    +0.341 C 
ATOM     14  O   UNL     1      -5.606   0.803  -4.681  0.00  0.00    -0.245 OA
BRANCH  13  15
ATOM     15  O   UNL     1      -6.489  -0.439  -6.296  0.00  0.00    -0.464 OA
ATOM     16  C   UNL     1      -7.587   0.508  -6.379  0.00  0.00    +0.280 C 
ENDBRANCH  13  15
ENDBRANCH  12  13
ENDBRANCH   5   7
ENDBRANCH   3   5
ENDBRANCH   1   3
BRANCH   1  17
ATOM     17  C   UNL     1      -2.741   1.406  -0.123  0.00  0.00    +0.212 C 
BRANCH  17  23
ATOM     18  C   UNL     1       1.902   0.337   0.892  0.00  0.00    +0.133 C 
ATOM     19  N   UNL     1       0.866   1.326   0.585  0.00  0.00    -0.292 N 
ATOM     20  C   UNL     1       1.213   2.746   0.493  0.00  0.00    +0.133 C 
ATOM     21  C   UNL     1      -0.406   0.929   0.386  0.00  0.00    +0.303 C 
ATOM     22  O   UNL     1      -0.695  -0.250   0.462  0.00  0.00    -0.253 OA
ATOM     23  N   UNL     1      -1.359   1.838   0.098  0.00  0.00    -0.277 N 
ATOM     24  H   UNL     1      -1.129   2.779   0.038  0.00  0.00    +0.152 HD
ENDBRANCH  17  23
BRANCH  17  25
ATOM     25  C   UNL     1      -3.693   2.336   0.632  0.00  0.00    +0.225 C 
ATOM     26 CL   UNL     1      -3.487   4.023   0.032  0.00  0.00    -0.080 Cl
ATOM     27 CL   UNL     1      -5.394   1.804   0.359  0.00  0.00    -0.080 Cl
ATOM     28 CL   UNL     1      -3.320   2.275   2.395  0.00  0.00    -0.080 Cl
ENDBRANCH  17  25
ENDBRANCH   1  17
TORSDOF 8
