REMARK  Name = ZINC55879638
REMARK  5 active torsions:
REMARK  status: ('A' for Active; 'I' for Inactive)
REMARK    1  A    between atoms: C_1  and  C_2
REMARK    2  A    between atoms: C_9  and  C_11
REMARK    3  A    between atoms: C_14  and  N_18
REMARK    4  A    between atoms: N_18  and  C_19
REMARK    5  A    between atoms: C_19  and  C_20
REMARK                            x       y       z     vdW  Elec       q    Type
REMARK                         _______ _______ _______ _____ _____    ______ ____
ROOT
ATOM      1  C   UNL     1       2.392  -0.143   2.959  0.00  0.00    +0.055 A 
ATOM      2  C   UNL     1       2.604  -1.519   3.092  0.00  0.00    +0.016 A 
ATOM      3  C   UNL     1       3.428  -1.992   4.073  0.00  0.00    +0.024 A 
ATOM      4  C   UNL     1       4.062  -1.109   4.943  0.00  0.00    +0.029 A 
ATOM      5  C   UNL     1       3.858   0.262   4.819  0.00  0.00    +0.043 A 
ATOM      6  C   UNL     1       3.032   0.747   3.828  0.00  0.00    +0.055 A 
ATOM      7 CL   UNL     1       2.780   2.457   3.665  0.00  0.00    -0.083 Cl
ENDROOT
BRANCH   1  15
ATOM      8  C   UNL     1       0.054   1.477  -0.074  0.00  0.00    +0.028 C 
ATOM      9  C   UNL     1      -0.365   0.067   0.346  0.00  0.00    +0.073 C 
ATOM     10  C   UNL     1      -1.834   0.074   0.778  0.00  0.00    +0.022 C 
ATOM     11  C   UNL     1      -2.207  -1.305   1.326  0.00  0.00    +0.003 C 
ATOM     12  C   UNL     1      -1.345  -1.619   2.551  0.00  0.00    +0.019 C 
ATOM     13  C   UNL     1       0.130  -1.646   2.139  0.00  0.00    +0.108 C 
ATOM     14  N   UNL     1       0.462  -0.377   1.477  0.00  0.00    -0.295 N 
ATOM     15  C   UNL     1       1.502   0.368   1.901  0.00  0.00    +0.248 C 
ATOM     16  O   UNL     1       1.705   1.463   1.411  0.00  0.00    -0.270 OA
ENDBRANCH   1  15
BRANCH   4  17
ATOM     17  N   UNL     1       4.900  -1.599   5.939  0.00  0.00    -0.335 N 
ATOM     18  H   UNL     1       5.043  -2.554   6.027  0.00  0.00    +0.147 HD
BRANCH  17  19
ATOM     19  C   UNL     1       5.568  -0.671   6.856  0.00  0.00    +0.198 C 
BRANCH  19  20
ATOM     20  C   UNL     1       6.412  -1.450   7.832  0.00  0.00    +0.237 C 
ATOM     21  O   UNL     1       6.451  -2.660   7.768  0.00  0.00    -0.274 OA
ATOM     22  N   UNL     1       7.122  -0.801   8.775  0.00  0.00    -0.239 N 
ATOM     23  C   UNL     1       7.877  -1.497   9.648  0.00  0.00    +0.303 C 
ATOM     24  O   UNL     1       7.917  -2.710   9.584  0.00  0.00    -0.253 OA
ATOM     25  N   UNL     1       8.587  -0.849  10.592  0.00  0.00    -0.313 N 
ATOM     26  H   UNL     1       7.090   0.167   8.826  0.00  0.00    +0.159 HD
ATOM     27  H   UNL     1       8.555   0.119  10.643  0.00  0.00    +0.146 HD
ATOM     28  H   UNL     1       9.130  -1.350  11.220  0.00  0.00    +0.146 HD
ENDBRANCH  19  20
ENDBRANCH  17  19
ENDBRANCH   4  17
TORSDOF 4
