REMARK  Name = ZINC37105877
REMARK  9 active torsions:
REMARK  status: ('A' for Active; 'I' for Inactive)
REMARK    1  A    between atoms: C_1  and  C_2
REMARK    2  A    between atoms: C_2  and  C_4
REMARK    3  A    between atoms: C_2  and  N_13
REMARK    4  A    between atoms: C_7  and  O_11
REMARK    5  A    between atoms: O_11  and  C_12
REMARK    6  A    between atoms: N_13  and  C_14
REMARK    7  A    between atoms: C_14  and  C_15
REMARK    8  A    between atoms: C_18  and  O_22
REMARK    9  A    between atoms: C_20  and  O_21
REMARK                            x       y       z     vdW  Elec       q    Type
REMARK                         _______ _______ _______ _____ _____    ______ ____
ROOT
ATOM      1  N   UNL     1       0.713  -0.491   1.192  0.00  0.00    +0.386 N 
ATOM      2  H   UNL     1       0.290  -0.099   2.020  0.00  0.00    -0.085 HD
ATOM      3  H   UNL     1       0.655  -1.497   1.230  0.00  0.00    -0.085 HD
ENDROOT
BRANCH   1   5
ATOM      4  C   UNL     1      -0.019   1.526   0.010  0.00  0.00    -0.009 C 
ATOM      5  C   UNL     1       0.002  -0.004   0.002  0.00  0.00    -0.044 C 
BRANCH   5   6
ATOM      6  C   UNL     1      -1.412  -0.526   0.013  0.00  0.00    -0.060 A 
ATOM      7  C   UNL     1      -2.122  -0.570   1.198  0.00  0.00    +0.005 A 
ATOM      8  C   UNL     1      -3.418  -1.048   1.211  0.00  0.00    +0.047 A 
ATOM      9  C   UNL     1      -4.008  -1.484   0.034  0.00  0.00    +0.134 A 
ATOM     10  C   UNL     1      -3.293  -1.438  -1.155  0.00  0.00    +0.060 A 
ATOM     11  C   UNL     1      -1.998  -0.953  -1.164  0.00  0.00    +0.021 A 
ATOM     12 BR   UNL     1      -4.092  -2.030  -2.764  0.00  0.00    -0.047 Br
BRANCH   9  13
ATOM     13  O   UNL     1      -5.282  -1.955   0.044  0.00  0.00    -0.494 OA
ATOM     14  C   UNL     1      -5.957  -1.974   1.304  0.00  0.00    +0.277 C 
ENDBRANCH   9  13
ENDBRANCH   5   6
ENDBRANCH   1   5
BRANCH   1  15
ATOM     15  C   UNL     1       2.122  -0.083   1.122  0.00  0.00    -0.042 C 
BRANCH  15  16
ATOM     16  C   UNL     1       2.851  -0.582   2.343  0.00  0.00    -0.023 A 
ATOM     17  C   UNL     1       3.094   0.275   3.400  0.00  0.00    +0.009 A 
ATOM     18  C   UNL     1       3.762  -0.180   4.521  0.00  0.00    +0.046 A 
ATOM     19  C   UNL     1       4.191  -1.499   4.587  0.00  0.00    +0.120 A 
ATOM     20  C   UNL     1       3.948  -2.359   3.528  0.00  0.00    +0.091 A 
ATOM     21  C   UNL     1       3.272  -1.902   2.407  0.00  0.00    +0.122 A 
BRANCH  21  22
ATOM     22  O   UNL     1       3.027  -2.745   1.370  0.00  0.00    -0.506 OA
ATOM     23  H   UNL     1       3.727  -2.761   0.702  0.00  0.00    +0.292 HD
ENDBRANCH  21  22
BRANCH  19  24
ATOM     24  O   UNL     1       4.848  -1.945   5.690  0.00  0.00    -0.507 OA
ATOM     25  H   UNL     1       4.268  -2.306   6.374  0.00  0.00    +0.292 HD
ENDBRANCH  19  24
ENDBRANCH  15  16
ENDBRANCH   1  15
TORSDOF 7
