REMARK  Name = ZINC39956902
REMARK  2 active torsions:
REMARK  status: ('A' for Active; 'I' for Inactive)
REMARK    1  A    between atoms: C_1  and  C_2
REMARK    2  A    between atoms: C_4  and  C_12
REMARK                            x       y       z     vdW  Elec       q    Type
REMARK                         _______ _______ _______ _____ _____    ______ ____
ROOT
ATOM      1  C   UNL     1      -0.112   1.584   0.122  0.00  0.00    +0.035 C 
ATOM      2  C   UNL     1      -0.023   0.059   0.043  0.00  0.00    +0.108 C 
ATOM      3  C   UNL     1      -1.408  -0.547   0.044  0.00  0.00    -0.000 C 
ATOM      4  C   UNL     1      -1.478  -1.370   1.198  0.00  0.00    +0.004 A 
ATOM      5  C   UNL     1      -2.523  -2.168   1.696  0.00  0.00    +0.010 A 
ATOM      6  C   UNL     1      -2.349  -2.881   2.847  0.00  0.00    +0.001 A 
ATOM      7  C   UNL     1      -1.143  -2.825   3.532  0.00  0.00    +0.002 A 
ATOM      8  C   UNL     1      -0.104  -2.051   3.063  0.00  0.00    +0.026 A 
ATOM      9  C   UNL     1      -0.255  -1.312   1.891  0.00  0.00    +0.043 A 
ATOM     10  N   UNL     1       0.639  -0.475   1.238  0.00  0.00    -0.377 N 
ATOM     11  H   UNL     1       1.544  -0.276   1.523  0.00  0.00    +0.160 HD
ENDROOT
BRANCH   3  12
ATOM     12  C   UNL     1      -2.408  -0.340  -0.892  0.00  0.00    +0.095 C 
ATOM     13  C   UNL     1      -2.585  -1.028  -2.182  0.00  0.00    +0.253 C 
ATOM     14  C   UNL     1      -3.815  -0.411  -2.772  0.00  0.00    +0.291 C 
ATOM     15  O   UNL     1      -4.309  -0.700  -3.842  0.00  0.00    -0.266 OA
ATOM     16  N   UNL     1      -4.279   0.516  -1.920  0.00  0.00    -0.246 N 
ATOM     17  C   UNL     1      -3.530   0.614  -0.812  0.00  0.00    +0.255 C 
ATOM     18  O   UNL     1      -3.742   1.374   0.113  0.00  0.00    -0.270 OA
ATOM     19  O   UNL     1      -1.889  -1.902  -2.660  0.00  0.00    -0.282 OA
ATOM     20  H   UNL     1      -5.070   1.052  -2.085  0.00  0.00    +0.158 HD
ENDBRANCH   3  12
TORSDOF 1
