REMARK  Name = ZINC03839140
REMARK  11 active torsions:
REMARK  status: ('A' for Active; 'I' for Inactive)
REMARK    1  A    between atoms: C_1  and  C_2
REMARK    2  A    between atoms: C_2  and  C_34
REMARK    3  A    between atoms: C_3  and  C_4
REMARK    4  A    between atoms: C_9  and  N_27
REMARK    5  A    between atoms: C_11  and  C_13
REMARK    6  A    between atoms: N_15  and  C_16
REMARK    7  A    between atoms: C_16  and  C_18
REMARK    8  A    between atoms: C_16  and  C_24
REMARK    9  A    between atoms: C_18  and  C_19
REMARK   10  A    between atoms: N_30  and  C_31
REMARK   11  A    between atoms: C_31  and  C_32
REMARK                            x       y       z     vdW  Elec       q    Type
REMARK                         _______ _______ _______ _____ _____    ______ ____
ROOT
ATOM      1  C   UNL     1      -1.599   3.973   1.632  0.00  0.00    +0.240 C 
ATOM      2  O   UNL     1      -1.968   5.039   1.176  0.00  0.00    -0.271 OA
ATOM      3  N   UNL     1      -1.274   2.962   0.803  0.00  0.00    -0.285 N 
ATOM      4  C   UNL     1      -0.815   1.624   1.219  0.00  0.00    +0.111 C 
ATOM      5  C   UNL     1      -0.013   1.086   0.008  0.00  0.00    +0.043 C 
ATOM      6  C   UNL     1      -0.839   1.637  -1.184  0.00  0.00    +0.105 C 
ATOM      7  C   UNL     1      -1.319   3.009  -0.666  0.00  0.00    +0.182 C 
ENDROOT
BRANCH   6   8
ATOM      8  N   UNL     1       0.005   1.798  -2.370  0.00  0.00    -0.294 N 
ATOM      9  C   UNL     1       0.197   0.758  -3.206  0.00  0.00    +0.300 C 
ATOM     10  O   UNL     1      -0.331  -0.312  -2.976  0.00  0.00    -0.253 OA
ATOM     11  N   UNL     1       0.974   0.906  -4.298  0.00  0.00    -0.296 N 
ATOM     12  H   UNL     1       0.427   2.652  -2.553  0.00  0.00    +0.151 HD
ATOM     13  H   UNL     1       1.395   1.760  -4.481  0.00  0.00    +0.151 HD
BRANCH  11  14
ATOM     14  C   UNL     1       1.183  -0.224  -5.207  0.00  0.00    +0.132 C 
BRANCH  14  15
ATOM     15  C   UNL     1       2.083   0.201  -6.338  0.00  0.00    -0.016 C 
ATOM     16  C   UNL     1       3.178  -0.471  -6.591  0.00  0.00    +0.005 C 
ENDBRANCH  14  15
ENDBRANCH  11  14
ENDBRANCH   6   8
BRANCH   1  19
ATOM     17  C   UNL     1      -2.286   6.107   3.342  0.00  0.00    +0.039 C 
ATOM     18  C   UNL     1      -1.829   4.787   3.907  0.00  0.00    -0.071 C 
ATOM     19  C   UNL     1      -1.508   3.788   3.089  0.00  0.00    +0.066 C 
ATOM     20  C   UNL     1      -1.736   4.598   5.399  0.00  0.00    +0.039 C 
ENDBRANCH   1  19
BRANCH   7  21
ATOM     21  C   UNL     1      -2.731   3.266  -1.127  0.00  0.00    +0.236 C 
ATOM     22  O   UNL     1      -3.660   3.080  -0.370  0.00  0.00    -0.274 OA
ATOM     23  N   UNL     1      -2.961   3.702  -2.381  0.00  0.00    -0.302 N 
ATOM     24  H   UNL     1      -2.218   3.851  -2.987  0.00  0.00    +0.150 HD
BRANCH  23  25
ATOM     25  C   UNL     1      -4.333   3.952  -2.830  0.00  0.00    +0.163 C 
BRANCH  25  26
ATOM     26  C   UNL     1      -4.943   2.664  -3.320  0.00  0.00    +0.231 C 
ATOM     27  O   UNL     1      -4.296   1.639  -3.298  0.00  0.00    -0.274 OA
ATOM     28  N   UNL     1      -6.208   2.652  -3.784  0.00  0.00    -0.328 N 
ATOM     29  H   UNL     1      -6.726   3.472  -3.803  0.00  0.00    +0.145 HD
ATOM     30  H   UNL     1      -6.601   1.823  -4.100  0.00  0.00    +0.145 HD
ENDBRANCH  25  26
BRANCH  25  31
ATOM     31  C   UNL     1      -4.320   4.976  -3.967  0.00  0.00    +0.074 C 
BRANCH  31  32
ATOM     32  C   UNL     1      -3.824   6.300  -3.445  0.00  0.00    -0.008 A 
ATOM     33  C   UNL     1      -2.556   6.773  -3.386  0.00  0.00    +0.011 A 
ATOM     34  C   UNL     1      -2.334   8.032  -2.861  0.00  0.00    +0.008 A 
ATOM     35  C   UNL     1      -3.391   8.757  -2.420  0.00  0.00    +0.045 A 
ATOM     36  S   UNL     1      -4.756   7.654  -2.750  0.00  0.00    -0.102 S 
ENDBRANCH  31  32
ENDBRANCH  25  31
ENDBRANCH  23  25
ENDBRANCH   7  21
TORSDOF 9
