REMARK  Name = ZINC12330230
REMARK  6 active torsions:
REMARK  status: ('A' for Active; 'I' for Inactive)
REMARK    1  A    between atoms: C_6  and  C_7
REMARK    2  A    between atoms: C_7  and  C_9
REMARK    3  A    between atoms: C_7  and  O_27
REMARK    4  A    between atoms: C_9  and  N_58
REMARK    5  A    between atoms: C_16  and  O_26
REMARK    6  A    between atoms: C_20  and  O_25
REMARK                            x       y       z     vdW  Elec       q    Type
REMARK                         _______ _______ _______ _____ _____    ______ ____
ROOT
ATOM      1  C   UNL     1      -4.048  -1.328   0.579  0.00  0.00    -0.075 C 
ATOM      2  C   UNL     1      -5.385  -2.073   0.591  0.00  0.00    +0.029 C 
ATOM      3  C   UNL     1      -5.657  -2.601   2.001  0.00  0.00    +0.110 C 
ATOM      4  C   UNL     1      -5.649  -1.435   2.991  0.00  0.00    +0.029 C 
ATOM      5  C   UNL     1      -4.304  -0.709   2.908  0.00  0.00    -0.075 C 
ATOM      6  C   UNL     1      -7.026  -3.290   2.033  0.00  0.00    +0.084 C 
ATOM      7  C   UNL     1      -7.042  -4.378   0.956  0.00  0.00    +0.152 C 
ATOM      8  C   UNL     1      -5.791  -5.214   1.060  0.00  0.00    +0.026 A 
ATOM      9  C   UNL     1      -5.769  -6.456   0.447  0.00  0.00    +0.055 A 
ATOM     10  C   UNL     1      -4.633  -7.247   0.515  0.00  0.00    +0.117 A 
ATOM     11  C   UNL     1      -3.514  -6.794   1.197  0.00  0.00    +0.049 A 
ATOM     12  C   UNL     1      -3.537  -5.557   1.809  0.00  0.00    +0.049 A 
ATOM     13  C   UNL     1      -4.676  -4.762   1.744  0.00  0.00    +0.127 A 
ATOM     14  O   UNL     1      -4.658  -3.552   2.364  0.00  0.00    -0.485 OA
ATOM     15  N   UNL     1      -4.119  -0.200   1.532  0.00  0.00    +0.382 N 
ATOM     16  H   UNL     1      -4.919   0.394   1.286  0.00  0.00    -0.082 HD
ENDROOT
BRANCH  10  17
ATOM     17  O   UNL     1      -4.616  -8.466  -0.088  0.00  0.00    -0.507 OA
ATOM     18  H   UNL     1      -4.913  -9.190   0.480  0.00  0.00    +0.292 HD
ENDBRANCH  10  17
BRANCH   7  19
ATOM     19  O   UNL     1      -8.188  -5.212   1.140  0.00  0.00    -0.387 OA
ATOM     20  H   UNL     1      -8.265  -5.923   0.490  0.00  0.00    +0.210 HD
ENDBRANCH   7  19
BRANCH  15  21
ATOM     21  C   UNL     1      -2.882   0.605   1.455  0.00  0.00    -0.042 C 
BRANCH  21  22
ATOM     22  C   UNL     1      -3.074   1.883   2.273  0.00  0.00    +0.128 C 
BRANCH  22  28
ATOM     23  C   UNL     1      -1.673   3.599   1.108  0.00  0.00    +0.006 A 
ATOM     24  C   UNL     1      -0.539   4.383   1.022  0.00  0.00    +0.004 A 
ATOM     25  C   UNL     1       0.441   4.301   1.997  0.00  0.00    -0.044 A 
ATOM     26  C   UNL     1       0.282   3.432   3.061  0.00  0.00    -0.044 A 
ATOM     27  C   UNL     1      -0.856   2.647   3.145  0.00  0.00    +0.010 A 
ATOM     28  C   UNL     1      -1.834   2.734   2.174  0.00  0.00    -0.021 A 
ATOM     29  C   UNL     1       1.479   3.527   3.982  0.00  0.00    +0.036 C 
ATOM     30  C   UNL     1       2.174   4.853   3.606  0.00  0.00    +0.009 C 
ATOM     31  C   UNL     1       1.755   5.040   2.132  0.00  0.00    +0.036 C 
ENDBRANCH  22  28
BRANCH  22  32
ATOM     32  O   UNL     1      -4.194   2.611   1.765  0.00  0.00    -0.389 OA
ATOM     33  H   UNL     1      -4.103   2.875   0.839  0.00  0.00    +0.210 HD
ENDBRANCH  22  32
ENDBRANCH  21  22
ENDBRANCH  15  21
TORSDOF 6
