REMARK  Name = ZINC49043634
REMARK  4 active torsions:
REMARK  status: ('A' for Active; 'I' for Inactive)
REMARK    1  A    between atoms: C_8  and  N_12
REMARK    2  A    between atoms: N_12  and  S_13
REMARK    3  A    between atoms: S_13  and  C_16
REMARK    4  A    between atoms: C_16  and  C_17
REMARK                            x       y       z     vdW  Elec       q    Type
REMARK                         _______ _______ _______ _____ _____    ______ ____
ROOT
ATOM      1  N   UNL     1       2.571  -4.195   0.230  0.00  0.00    -0.190 NA
ATOM      2  H   UNL     1       2.139  -4.579  -0.550  0.00  0.00    +0.148 HD
ENDROOT
BRANCH   1  10
ATOM      3  C   UNL     1      -0.017   1.377   0.010  0.00  0.00    +0.000 A 
ATOM      4  C   UNL     1       1.170   2.088   0.002  0.00  0.00    +0.002 A 
ATOM      5  C   UNL     1       2.375   1.416  -0.011  0.00  0.00    +0.023 A 
ATOM      6  C   UNL     1       2.396   0.025  -0.019  0.00  0.00    +0.030 A 
ATOM      7  C   UNL     1       1.207  -0.687  -0.015  0.00  0.00    -0.025 A 
ATOM      8  C   UNL     1       0.002  -0.004   0.002  0.00  0.00    +0.005 A 
ATOM      9  C   UNL     1       1.191  -2.192  -0.033  0.00  0.00    +0.059 C 
ATOM     10  C   UNL     1       2.531  -2.748   0.451  0.00  0.00    +0.097 C 
ATOM     11  C   UNL     1       3.661  -2.073  -0.337  0.00  0.00    +0.122 C 
ATOM     12  N   UNL     1       3.629  -0.637  -0.028  0.00  0.00    -0.342 N 
ATOM     13  H   UNL     1       4.448  -0.156   0.166  0.00  0.00    +0.146 HD
ENDBRANCH   1  10
BRANCH   1  14
ATOM     14  S   UNL     1       3.353  -5.177   1.310  0.00  0.00    +0.030 S 
ATOM     15  O   UNL     1       3.214  -6.487   0.776  0.00  0.00    -0.158 OA
ATOM     16  O   UNL     1       4.638  -4.591   1.466  0.00  0.00    -0.158 OA
BRANCH  14  17
ATOM     17  C   UNL     1       2.406  -5.025   2.849  0.00  0.00    +0.188 C 
BRANCH  17  18
ATOM     18  C   UNL     1       3.045  -5.899   3.930  0.00  0.00    +0.012 C 
ATOM     19  C   UNL     1       2.932  -7.371   3.528  0.00  0.00    +0.005 C 
ATOM     20  C   UNL     1       3.571  -8.245   4.609  0.00  0.00    +0.000 C 
ATOM     21  C   UNL     1       2.848  -8.023   5.939  0.00  0.00    +0.000 C 
ATOM     22  C   UNL     1       2.961  -6.551   6.340  0.00  0.00    +0.000 C 
ATOM     23  C   UNL     1       2.322  -5.676   5.260  0.00  0.00    +0.005 C 
ENDBRANCH  17  18
ENDBRANCH  14  17
ENDBRANCH   1  14
TORSDOF 4
