REMARK  Name = ZINC66086818
REMARK  11 active torsions:
REMARK  status: ('A' for Active; 'I' for Inactive)
REMARK    1  A    between atoms: C_1  and  C_2
REMARK    2  A    between atoms: C_2  and  C_3
REMARK    3  A    between atoms: C_3  and  C_5
REMARK    4  A    between atoms: C_3  and  N_6
REMARK    5  A    between atoms: C_7  and  C_9
REMARK    6  A    between atoms: C_12  and  N_15
REMARK    7  A    between atoms: N_15  and  C_16
REMARK    8  A    between atoms: C_16  and  C_17
REMARK    9  A    between atoms: N_19  and  C_20
REMARK   10  A    between atoms: C_24  and  N_26
REMARK   11  A    between atoms: C_27  and  C_29
REMARK                            x       y       z     vdW  Elec       q    Type
REMARK                         _______ _______ _______ _____ _____    ______ ____
ROOT
ATOM      1  C   UNL     1      -2.541   1.960  10.613  0.00  0.00    +0.234 C 
ATOM      2  O   UNL     1      -3.710   2.110  10.326  0.00  0.00    -0.274 OA
ATOM      3  N   UNL     1      -2.131   2.139  11.884  0.00  0.00    -0.284 N 
ATOM      4  H   UNL     1      -1.210   1.954  12.126  0.00  0.00    +0.155 HD
ENDROOT
BRANCH   3   5
ATOM      5  C   UNL     1      -3.032   2.591  12.853  0.00  0.00    +0.035 A 
ATOM      6  C   UNL     1      -2.599   3.442  13.863  0.00  0.00    +0.023 A 
ATOM      7  C   UNL     1      -3.489   3.889  14.821  0.00  0.00    +0.004 A 
ATOM      8  C   UNL     1      -4.811   3.492  14.778  0.00  0.00    +0.023 A 
ATOM      9  C   UNL     1      -5.251   2.642  13.771  0.00  0.00    +0.036 A 
ATOM     10  C   UNL     1      -4.361   2.196  12.804  0.00  0.00    +0.046 A 
BRANCH   9  11
ATOM     11  N   UNL     1      -6.590   2.240  13.729  0.00  0.00    -0.279 N 
ATOM     12  C   UNL     1      -7.562   3.094  14.107  0.00  0.00    +0.284 C 
ATOM     13  O   UNL     1      -7.270   4.183  14.565  0.00  0.00    -0.266 OA
ATOM     14  H   UNL     1      -6.819   1.348  13.427  0.00  0.00    +0.155 HD
BRANCH  12  15
ATOM     15  C   UNL     1      -8.970   2.710  13.968  0.00  0.00    +0.189 A 
ATOM     16  C   UNL     1     -10.048   3.478  14.306  0.00  0.00    +0.054 A 
ATOM     17  C   UNL     1     -11.191   2.721  14.006  0.00  0.00    +0.042 A 
ATOM     18  C   UNL     1     -10.767   1.540  13.505  0.00  0.00    +0.196 A 
ATOM     19  O   UNL     1      -9.428   1.540  13.478  0.00  0.00    -0.458 OA
ENDBRANCH  12  15
ENDBRANCH   9  11
ENDBRANCH   3   5
BRANCH   1  20
ATOM     20  C   UNL     1      -1.548   1.573   9.547  0.00  0.00    +0.198 C 
BRANCH  20  21
ATOM     21  N   UNL     1      -2.238   1.441   8.261  0.00  0.00    -0.335 N 
ATOM     22  H   UNL     1      -3.193   1.599   8.205  0.00  0.00    +0.147 HD
BRANCH  21  26
ATOM     23  C   UNL     1      -0.098   0.388   4.851  0.00  0.00    +0.037 A 
ATOM     24  C   UNL     1      -1.475   0.616   4.771  0.00  0.00    +0.015 A 
ATOM     25  C   UNL     1      -2.180   0.963   5.901  0.00  0.00    +0.023 A 
ATOM     26  C   UNL     1      -1.523   1.089   7.122  0.00  0.00    +0.028 A 
ATOM     27  C   UNL     1      -0.152   0.863   7.204  0.00  0.00    +0.023 A 
ATOM     28  C   UNL     1       0.557   0.509   6.080  0.00  0.00    +0.015 A 
BRANCH  23  30
ATOM     29  N   UNL     1       0.026  -0.102   2.458  0.00  0.00    -0.309 N 
ATOM     30  C   UNL     1       0.660   0.014   3.642  0.00  0.00    +0.244 C 
ATOM     31  O   UNL     1       1.857  -0.189   3.714  0.00  0.00    -0.270 OA
ATOM     32  H   UNL     1      -0.928   0.059   2.401  0.00  0.00    +0.149 HD
BRANCH  29  33
ATOM     33  C   UNL     1       0.780  -0.473   1.258  0.00  0.00    +0.070 C 
ATOM     34  C   UNL     1       0.896  -1.997   1.179  0.00  0.00    +0.028 C 
BRANCH  33  36
ATOM     35  C   UNL     1       0.044   1.577   0.034  0.00  0.00    +0.005 C 
ATOM     36  C   UNL     1       0.051   0.047   0.017  0.00  0.00    +0.018 C 
ENDBRANCH  33  36
ENDBRANCH  29  33
ENDBRANCH  23  30
ENDBRANCH  21  26
ENDBRANCH  20  21
ENDBRANCH   1  20
TORSDOF 9
