REMARK  Name = ZINC50649423
REMARK  6 active torsions:
REMARK  status: ('A' for Active; 'I' for Inactive)
REMARK    1  A    between atoms: C_1  and  C_2
REMARK    2  A    between atoms: C_5  and  N_8
REMARK    3  A    between atoms: N_8  and  S_9
REMARK    4  A    between atoms: S_9  and  C_12
REMARK    5  A    between atoms: C_14  and  N_19
REMARK    6  A    between atoms: C_17  and  N_18
REMARK                            x       y       z     vdW  Elec       q    Type
REMARK                         _______ _______ _______ _____ _____    ______ ____
ROOT
ATOM      1  S   UNL     1       1.185  -5.005   0.897  0.00  0.00    +0.074 S 
ATOM      2  O   UNL     1       1.141  -6.405   0.655  0.00  0.00    -0.150 OA
ATOM      3  O   UNL     1       2.357  -4.231   0.680  0.00  0.00    -0.150 OA
ENDROOT
BRANCH   1   4
ATOM      4  C   UNL     1       0.733  -4.771   2.584  0.00  0.00    +0.131 A 
ATOM      5  C   UNL     1       1.517  -3.989   3.408  0.00  0.00    +0.063 A 
ATOM      6  C   UNL     1       1.163  -3.805   4.732  0.00  0.00    +0.128 A 
ATOM      7  C   UNL     1       0.022  -4.403   5.235  0.00  0.00    +0.034 A 
ATOM      8  C   UNL     1      -0.767  -5.187   4.417  0.00  0.00    +0.027 A 
ATOM      9  C   UNL     1      -0.417  -5.369   3.085  0.00  0.00    +0.052 A 
BRANCH   9  10
ATOM     10  N   UNL     1      -1.216  -6.157   2.252  0.00  0.00    -0.356 N 
ATOM     11  H   UNL     1      -1.013  -6.222   1.306  0.00  0.00    +0.142 HD
ATOM     12  H   UNL     1      -1.973  -6.638   2.621  0.00  0.00    +0.142 HD
ENDBRANCH   9  10
BRANCH   6  13
ATOM     13  N   UNL     1       2.006  -2.966   5.612  0.00  0.00    +0.056 N 
ATOM     14  O   UNL     1       3.004  -2.442   5.174  0.00  0.00    -0.126 OA
ATOM     15  O   UNL     1       1.698  -2.804   6.770  0.00  0.00    -0.126 OA
ENDBRANCH   6  13
ENDBRANCH   1   4
BRANCH   1  16
ATOM     16  N   UNL     1      -0.009  -4.327  -0.029  0.00  0.00    -0.216 N 
ATOM     17  H   UNL     1      -0.575  -4.891  -0.579  0.00  0.00    +0.174 HD
BRANCH  16  22
ATOM     18  C   UNL     1      -0.788   1.289   0.017  0.00  0.00    +0.044 C 
ATOM     19  C   UNL     1      -0.581  -0.203   0.004  0.00  0.00    -0.050 A 
ATOM     20  C   UNL     1      -0.552  -0.886  -1.198  0.00  0.00    +0.005 A 
ATOM     21  C   UNL     1      -0.362  -2.254  -1.212  0.00  0.00    +0.025 A 
ATOM     22  C   UNL     1      -0.201  -2.944  -0.018  0.00  0.00    +0.048 A 
ATOM     23  C   UNL     1      -0.230  -2.255   1.188  0.00  0.00    +0.025 A 
ATOM     24  C   UNL     1      -0.415  -0.886   1.195  0.00  0.00    +0.005 A 
ENDBRANCH  16  22
ENDBRANCH   1  16
TORSDOF 5
