REMARK  Name = ZINC00846323
REMARK  10 active torsions:
REMARK  status: ('A' for Active; 'I' for Inactive)
REMARK    1  A    between atoms: C_1  and  O_2
REMARK    2  A    between atoms: O_2  and  C_3
REMARK    3  A    between atoms: C_5  and  C_13
REMARK    4  A    between atoms: C_7  and  O_11
REMARK    5  A    between atoms: C_8  and  O_9
REMARK    6  A    between atoms: O_9  and  C_10
REMARK    7  A    between atoms: O_11  and  C_12
REMARK    8  A    between atoms: C_20  and  N_31
REMARK    9  A    between atoms: C_21  and  C_29
REMARK   10  A    between atoms: C_22  and  C_24
REMARK                            x       y       z     vdW  Elec       q    Type
REMARK                         _______ _______ _______ _____ _____    ______ ____
ROOT
ATOM      1  C   UNL     1       2.397   0.363  -4.222  0.00  0.00    +0.101 A 
ATOM      2  C   UNL     1       3.550   0.048  -4.946  0.00  0.00    +0.055 A 
ATOM      3  C   UNL     1       3.775   1.054  -5.841  0.00  0.00    +0.223 A 
ATOM      4  N   UNL     1       2.797   1.970  -5.683  0.00  0.00    -0.246 N 
ATOM      5  H   UNL     1       2.701   2.794  -6.185  0.00  0.00    +0.192 HD
ATOM      6  N   UNL     1       1.939   1.517  -4.668  0.00  0.00    -0.171 NA
ATOM      7  O   UNL     1       4.823   1.047  -6.702  0.00  0.00    -0.423 OA
ATOM      8  C   UNL     1       5.500  -0.110  -6.854  0.00  0.00    +0.200 C 
ATOM      9  C   UNL     1       5.371  -1.170  -6.025  0.00  0.00    +0.099 C 
ATOM     10  C   UNL     1       4.449  -1.156  -4.832  0.00  0.00    +0.108 C 
ENDROOT
BRANCH   1  13
ATOM     11  C   UNL     1       0.606  -0.608  -1.056  0.00  0.00    +0.166 A 
ATOM     12  C   UNL     1       1.172   0.160  -2.060  0.00  0.00    +0.059 A 
ATOM     13  C   UNL     1       1.791  -0.459  -3.144  0.00  0.00    +0.010 A 
ATOM     14  C   UNL     1       1.839  -1.849  -3.217  0.00  0.00    +0.059 A 
ATOM     15  C   UNL     1       1.273  -2.614  -2.212  0.00  0.00    +0.166 A 
ATOM     16  C   UNL     1       0.661  -1.995  -1.127  0.00  0.00    +0.204 A 
BRANCH  11  18
ATOM     17  C   UNL     1      -0.017   1.425   0.010  0.00  0.00    +0.277 C 
ATOM     18  O   UNL     1       0.002  -0.004   0.002  0.00  0.00    -0.491 OA
ENDBRANCH  11  18
BRANCH  16  19
ATOM     19  O   UNL     1       0.109  -2.748  -0.137  0.00  0.00    -0.488 OA
ATOM     20  C   UNL     1      -1.262  -3.119  -0.291  0.00  0.00    +0.277 C 
ENDBRANCH  16  19
BRANCH  15  21
ATOM     21  O   UNL     1       1.320  -3.971  -2.282  0.00  0.00    -0.491 OA
ATOM     22  C   UNL     1       1.969  -4.540  -3.421  0.00  0.00    +0.277 C 
ENDBRANCH  15  21
ENDBRANCH   1  13
BRANCH  10  23
ATOM     23  C   UNL     1       5.258  -1.069  -3.564  0.00  0.00    +0.003 A 
ATOM     24  C   UNL     1       5.296  -1.927  -2.515  0.00  0.00    +0.012 A 
ATOM     25  C   UNL     1       6.123  -1.641  -1.445  0.00  0.00    +0.008 A 
ATOM     26  C   UNL     1       6.871  -0.511  -1.476  0.00  0.00    +0.045 A 
ATOM     27  S   UNL     1       6.420   0.188  -3.056  0.00  0.00    -0.101 S 
ENDBRANCH  10  23
BRANCH   8  28
ATOM     28  N   UNL     1       6.369  -0.216  -7.911  0.00  0.00    -0.328 N 
ATOM     29  H   UNL     1       6.482   0.528  -8.523  0.00  0.00    +0.145 HD
ATOM     30  H   UNL     1       6.870  -1.036  -8.046  0.00  0.00    +0.145 HD
ENDBRANCH   8  28
BRANCH   9  31
ATOM     31  C   UNL     1       6.140  -2.349  -6.290  0.00  0.00    +0.101 C 
ATOM     32  N   UNL     1       6.749  -3.284  -6.500  0.00  0.00    -0.191 NA
ENDBRANCH   9  31
TORSDOF 7
