REMARK  Name = ZINC29222010
REMARK  11 active torsions:
REMARK  status: ('A' for Active; 'I' for Inactive)
REMARK    1  A    between atoms: C_1  and  C_2
REMARK    2  A    between atoms: C_5  and  C_27
REMARK    3  A    between atoms: C_6  and  N_8
REMARK    4  A    between atoms: N_8  and  C_9
REMARK    5  A    between atoms: C_9  and  C_11
REMARK    6  A    between atoms: C_9  and  C_12
REMARK    7  A    between atoms: N_14  and  C_15
REMARK    8  A    between atoms: C_17  and  N_23
REMARK    9  A    between atoms: C_20  and  O_21
REMARK   10  A    between atoms: O_21  and  C_22
REMARK   11  A    between atoms: C_24  and  C_26
REMARK                            x       y       z     vdW  Elec       q    Type
REMARK                         _______ _______ _______ _____ _____    ______ ____
ROOT
ATOM      1  C   UNL     1      -6.192   2.819  -0.309  0.00  0.00    +0.237 C 
ATOM      2  O   UNL     1      -5.198   3.512  -0.246  0.00  0.00    -0.273 OA
ATOM      3  N   UNL     1      -6.085   1.478  -0.225  0.00  0.00    -0.281 N 
ATOM      4  H   UNL     1      -6.991   0.855  -0.194  0.00  0.00    +0.155 HD
ENDROOT
BRANCH   3   5
ATOM      5  C   UNL     1      -4.820   0.878  -0.178  0.00  0.00    +0.077 A 
ATOM      6  C   UNL     1      -3.708   1.563  -0.643  0.00  0.00    +0.050 A 
ATOM      7  C   UNL     1      -2.456   0.966  -0.594  0.00  0.00    +0.035 A 
ATOM      8  C   UNL     1      -2.319  -0.318  -0.085  0.00  0.00    +0.027 A 
ATOM      9  C   UNL     1      -3.425  -1.000   0.384  0.00  0.00    +0.049 A 
ATOM     10  C   UNL     1      -4.677  -0.408   0.337  0.00  0.00    +0.141 A 
BRANCH   7  11
ATOM     11  N   UNL     1      -1.332   1.658  -1.064  0.00  0.00    -0.286 N 
ATOM     12  C   UNL     1      -0.134   1.476  -0.474  0.00  0.00    +0.214 C 
ATOM     13  O   UNL     1      -0.046   0.789   0.522  0.00  0.00    -0.276 OA
ATOM     14  C   UNL     1       1.098   2.120  -1.056  0.00  0.00    +0.109 C 
ATOM     15  H   UNL     1      -1.427   2.349  -1.914  0.00  0.00    +0.155 HD
ENDBRANCH   7  11
BRANCH  10  16
ATOM     16  O   UNL     1      -5.766  -1.083   0.794  0.00  0.00    -0.493 OA
ATOM     17  C   UNL     1      -5.546  -2.398   1.309  0.00  0.00    +0.277 C 
ENDBRANCH  10  16
ENDBRANCH   3   5
BRANCH   1  18
ATOM     18  C   UNL     1      -7.546   3.458  -0.480  0.00  0.00    +0.154 C 
ATOM     19  C   UNL     1      -8.438   3.089   0.707  0.00  0.00    +0.038 C 
BRANCH  18  20
ATOM     20  N   UNL     1      -7.395   4.914  -0.544  0.00  0.00    -0.333 N 
ATOM     21  H   UNL     1      -6.524   5.397  -0.077  0.00  0.00    +0.147 HD
BRANCH  20  27
ATOM     22  C   UNL     1     -11.600   5.187  -3.074  0.00  0.00    +0.044 C 
ATOM     23  C   UNL     1     -10.406   5.847  -2.433  0.00  0.00    -0.049 A 
ATOM     24  C   UNL     1     -10.262   7.221  -2.492  0.00  0.00    +0.004 A 
ATOM     25  C   UNL     1      -9.168   7.830  -1.906  0.00  0.00    +0.005 A 
ATOM     26  C   UNL     1      -8.217   7.068  -1.255  0.00  0.00    -0.030 A 
ATOM     27  C   UNL     1      -8.356   5.688  -1.198  0.00  0.00    +0.031 A 
ATOM     28  C   UNL     1      -9.457   5.079  -1.788  0.00  0.00    +0.026 A 
ATOM     29  C   UNL     1      -7.029   7.734  -0.610  0.00  0.00    +0.045 C 
ENDBRANCH  20  27
ENDBRANCH  18  20
ENDBRANCH   1  18
TORSDOF 6
