REMARK  Name = ZINC20376022
REMARK  8 active torsions:
REMARK  status: ('A' for Active; 'I' for Inactive)
REMARK    1  A    between atoms: C_1  and  C_2
REMARK    2  A    between atoms: C_2  and  C_3
REMARK    3  A    between atoms: C_7  and  C_13
REMARK    4  A    between atoms: C_8  and  C_10
REMARK    5  A    between atoms: N_16  and  C_17
REMARK    6  A    between atoms: C_17  and  C_18
REMARK    7  A    between atoms: C_18  and  C_19
REMARK    8  A    between atoms: C_19  and  C_20
REMARK                            x       y       z     vdW  Elec       q    Type
REMARK                         _______ _______ _______ _____ _____    ______ ____
ROOT
ATOM      1  C   UNL     1      -0.372  -0.098   2.996  0.00  0.00    +0.113 A 
ATOM      2  N   UNL     1       0.229  -0.581   4.049  0.00  0.00    -0.226 NA
ATOM      3  C   UNL     1       1.211   0.076   4.652  0.00  0.00    +0.116 A 
ATOM      4  C   UNL     1       1.665   1.331   4.186  0.00  0.00    +0.076 A 
ATOM      5  C   UNL     1       2.705   1.911   4.916  0.00  0.00    -0.017 A 
ATOM      6  C   UNL     1       3.216   1.263   6.003  0.00  0.00    +0.079 A 
ATOM      7  S   UNL     1       2.241  -0.231   6.064  0.00  0.00    -0.064 S 
ATOM      8  C   UNL     1       3.264   3.248   4.503  0.00  0.00    +0.046 C 
ATOM      9  C   UNL     1       0.964   1.844   2.987  0.00  0.00    +0.263 A 
ATOM     10  O   UNL     1       1.269   2.916   2.495  0.00  0.00    -0.267 OA
ATOM     11  N   UNL     1      -0.020   1.094   2.454  0.00  0.00    -0.296 N 
ENDROOT
BRANCH   6  12
ATOM     12  C   UNL     1       4.297   1.688   6.897  0.00  0.00    +0.248 C 
ATOM     13  O   UNL     1       4.861   2.750   6.708  0.00  0.00    -0.270 OA
ATOM     14  N   UNL     1       4.665   0.904   7.930  0.00  0.00    -0.325 N 
ATOM     15  H   UNL     1       5.476   1.224   8.601  0.00  0.00    +0.145 HD
ATOM     16  H   UNL     1       4.154  -0.055   8.101  0.00  0.00    +0.145 HD
ENDBRANCH   6  12
BRANCH   1  18
ATOM     17  C   UNL     1      -1.699  -2.188   3.143  0.00  0.00    +0.012 C 
ATOM     18  C   UNL     1      -1.485  -0.890   2.361  0.00  0.00    +0.071 C 
ENDBRANCH   1  18
BRANCH  11  19
ATOM     19  C   UNL     1      -0.729   1.579   1.267  0.00  0.00    +0.127 C 
BRANCH  19  20
ATOM     20  C   UNL     1      -0.013   1.086   0.008  0.00  0.00    +0.033 C 
BRANCH  20  21
ATOM     21  C   UNL     1      -0.753   1.593  -1.232  0.00  0.00    +0.127 C 
BRANCH  21  22
ATOM     22  C   UNL     1      -0.047   1.107  -2.471  0.00  0.00    +0.356 C 
ATOM     23  O   UNL     1       0.945   0.425  -2.374  0.00  0.00    -0.246 OA
ATOM     24  O   UNL     1      -0.522   1.431  -3.684  0.00  0.00    -0.246 OA
ENDBRANCH  21  22
ENDBRANCH  20  21
ENDBRANCH  19  20
ENDBRANCH  11  19
TORSDOF 6
