REMARK  Name = ZINC13501840
REMARK  14 active torsions:
REMARK  status: ('A' for Active; 'I' for Inactive)
REMARK    1  A    between atoms: C_1  and  C_2
REMARK    2  A    between atoms: C_2  and  C_3
REMARK    3  A    between atoms: C_3  and  C_4
REMARK    4  A    between atoms: C_3  and  C_5
REMARK    5  A    between atoms: C_3  and  N_6
REMARK    6  A    between atoms: C_7  and  C_9
REMARK    7  A    between atoms: C_9  and  C_11
REMARK    8  A    between atoms: C_9  and  N_18
REMARK    9  A    between atoms: N_18  and  C_19
REMARK   10  A    between atoms: C_22  and  O_25
REMARK   11  A    between atoms: O_25  and  C_26
REMARK   12  A    between atoms: C_27  and  C_29
REMARK   13  A    between atoms: C_29  and  C_30
REMARK   14  A    between atoms: C_30  and  C_31
REMARK                            x       y       z     vdW  Elec       q    Type
REMARK                         _______ _______ _______ _____ _____    ______ ____
ROOT
ATOM      1  N   UNL     1       3.331   1.760  -0.979  0.00  0.00    -0.255 N 
ATOM      2  C   UNL     1       3.695   1.220  -2.159  0.00  0.00    +0.221 C 
ATOM      3  O   UNL     1       4.404   1.845  -2.919  0.00  0.00    -0.275 OA
ENDROOT
BRANCH   1   4
ATOM      4  C   UNL     1       3.681   3.083  -0.676  0.00  0.00    +0.038 A 
ATOM      5  C   UNL     1       2.699   4.063  -0.609  0.00  0.00    +0.027 A 
ATOM      6  C   UNL     1       3.044   5.365  -0.305  0.00  0.00    +0.047 A 
ATOM      7  C   UNL     1       4.372   5.696  -0.079  0.00  0.00    +0.120 A 
ATOM      8  C   UNL     1       5.354   4.719  -0.152  0.00  0.00    +0.047 A 
ATOM      9  C   UNL     1       5.010   3.415  -0.450  0.00  0.00    +0.027 A 
BRANCH   7  10
ATOM     10  O   UNL     1       4.712   6.980   0.215  0.00  0.00    -0.495 OA
ATOM     11  C   UNL     1       3.650   7.934   0.274  0.00  0.00    +0.277 C 
ENDBRANCH   7  10
ENDBRANCH   1   4
BRANCH   1  12
ATOM     12  C   UNL     1       2.570   0.964  -0.013  0.00  0.00    +0.197 C 
BRANCH  12  13
ATOM     13  C   UNL     1       2.168   1.835   1.150  0.00  0.00    -0.018 A 
ATOM     14  C   UNL     1       0.833   1.980   1.475  0.00  0.00    +0.009 A 
ATOM     15  C   UNL     1       0.463   2.782   2.538  0.00  0.00    +0.038 A 
ATOM     16  C   UNL     1       1.431   3.432   3.283  0.00  0.00    +0.123 A 
ATOM     17  C   UNL     1       2.769   3.287   2.956  0.00  0.00    +0.038 A 
ATOM     18  C   UNL     1       3.136   2.488   1.890  0.00  0.00    +0.009 A 
ATOM     19  F   UNL     1       1.071   4.213   4.325  0.00  0.00    -0.205 F 
ENDBRANCH  12  13
BRANCH  12  21
ATOM     20  N   UNL     1       2.846  -1.253   1.048  0.00  0.00    -0.308 N 
ATOM     21  C   UNL     1       3.423  -0.174   0.483  0.00  0.00    +0.239 C 
ATOM     22  O   UNL     1       4.630  -0.119   0.374  0.00  0.00    -0.273 OA
ATOM     23  H   UNL     1       1.881  -1.296   1.135  0.00  0.00    +0.149 HD
BRANCH  20  24
ATOM     24  C   UNL     1       3.676  -2.360   1.531  0.00  0.00    +0.029 C 
ATOM     25  C   UNL     1       4.481  -2.939   0.366  0.00  0.00    +0.031 C 
ATOM     26  C   UNL     1       4.634  -1.847   2.608  0.00  0.00    +0.031 C 
BRANCH  24  28
ATOM     27  C   UNL     1       3.646  -4.605   2.626  0.00  0.00    +0.006 C 
ATOM     28  C   UNL     1       2.779  -3.449   2.123  0.00  0.00    +0.022 C 
ENDBRANCH  24  28
ENDBRANCH  20  24
ENDBRANCH  12  21
ENDBRANCH   1  12
BRANCH   2  29
ATOM     29  C   UNL     1       3.220  -0.160  -2.535  0.00  0.00    +0.105 C 
BRANCH  29  30
ATOM     30  C   UNL     1       3.771  -0.531  -3.913  0.00  0.00    +0.105 C 
BRANCH  30  31
ATOM     31  C   UNL     1       3.296  -1.912  -4.288  0.00  0.00    +0.219 C 
ATOM     32  O   UNL     1       2.587  -2.537  -3.528  0.00  0.00    -0.275 OA
ATOM     33  N   UNL     1       3.660  -2.451  -5.468  0.00  0.00    -0.265 N 
ATOM     34  C   UNL     1       3.222  -3.725  -5.814  0.00  0.00    +0.164 A 
ATOM     35  N   UNL     1       2.460  -4.554  -5.129  0.00  0.00    -0.233 NA
ATOM     36  C   UNL     1       2.131  -5.736  -5.610  0.00  0.00    +0.120 A 
ATOM     37  C   UNL     1       2.605  -6.092  -6.829  0.00  0.00    +0.068 A 
ATOM     38  S   UNL     1       3.545  -4.634  -7.258  0.00  0.00    -0.061 S 
ATOM     39  H   UNL     1       4.227  -1.952  -6.076  0.00  0.00    +0.157 HD
ENDBRANCH  30  31
ENDBRANCH  29  30
ENDBRANCH   2  29
TORSDOF 10
