REMARK  Name = ZINC01087851
REMARK  6 active torsions:
REMARK  status: ('A' for Active; 'I' for Inactive)
REMARK    1  A    between atoms: C_6  and  C_7
REMARK    2  A    between atoms: C_14  and  N_35
REMARK    3  A    between atoms: C_15  and  C_33
REMARK    4  A    between atoms: C_16  and  C_18
REMARK    5  A    between atoms: C_21  and  O_24
REMARK    6  A    between atoms: O_24  and  C_25
REMARK                            x       y       z     vdW  Elec       q    Type
REMARK                         _______ _______ _______ _____ _____    ______ ____
ROOT
ATOM      1  C   UNL     1      -1.588  -0.858  -0.079  0.00  0.00    +0.100 A 
ATOM      2  C   UNL     1      -1.685  -2.092  -0.728  0.00  0.00    +0.054 A 
ATOM      3  C   UNL     1      -2.951  -2.568  -0.544  0.00  0.00    +0.223 A 
ATOM      4  N   UNL     1      -3.627  -1.662   0.193  0.00  0.00    -0.246 N 
ATOM      5  H   UNL     1      -4.551  -1.734   0.478  0.00  0.00    +0.192 HD
ATOM      6  N   UNL     1      -2.755  -0.600   0.480  0.00  0.00    -0.171 NA
ATOM      7  O   UNL     1      -3.368  -3.755  -1.050  0.00  0.00    -0.423 OA
ATOM      8  C   UNL     1      -2.427  -4.601  -1.515  0.00  0.00    +0.200 C 
ATOM      9  C   UNL     1      -1.144  -4.244  -1.749  0.00  0.00    +0.098 C 
ATOM     10  C   UNL     1      -0.640  -2.842  -1.512  0.00  0.00    +0.102 C 
ENDROOT
BRANCH   1  16
ATOM     11  C   UNL     1      -0.518   1.394  -0.031  0.00  0.00    +0.013 A 
ATOM     12  C   UNL     1       0.604   2.195   0.021  0.00  0.00    +0.039 A 
ATOM     13  C   UNL     1       1.864   1.621   0.079  0.00  0.00    +0.123 A 
ATOM     14  C   UNL     1       2.003   0.243   0.086  0.00  0.00    +0.039 A 
ATOM     15  C   UNL     1       0.885  -0.565   0.035  0.00  0.00    +0.013 A 
ATOM     16  C   UNL     1      -0.384   0.007  -0.024  0.00  0.00    +0.003 A 
ATOM     17  F   UNL     1       2.961   2.409   0.129  0.00  0.00    -0.205 F 
ENDBRANCH   1  16
BRANCH  10  18
ATOM     18  C   UNL     1      -0.405  -2.156  -2.833  0.00  0.00    -0.034 A 
ATOM     19  C   UNL     1      -1.450  -2.003  -3.726  0.00  0.00    +0.008 A 
ATOM     20  C   UNL     1      -1.237  -1.374  -4.938  0.00  0.00    +0.047 A 
ATOM     21  C   UNL     1       0.025  -0.895  -5.257  0.00  0.00    +0.133 A 
ATOM     22  C   UNL     1       1.071  -1.049  -4.359  0.00  0.00    +0.047 A 
ATOM     23  C   UNL     1       0.852  -1.675  -3.147  0.00  0.00    +0.008 A 
BRANCH  21  24
ATOM     24  O   UNL     1       0.237  -0.276  -6.449  0.00  0.00    -0.411 OA
BRANCH  24  25
ATOM     25  C   UNL     1      -0.306   0.942  -6.634  0.00  0.00    +0.408 C 
ATOM     26  O   UNL     1      -0.870   1.502  -5.714  0.00  0.00    -0.226 OA
ATOM     27  N   UNL     1      -0.224   1.541  -7.839  0.00  0.00    -0.263 N 
ATOM     28  C   UNL     1       0.448   0.880  -8.969  0.00  0.00    +0.139 C 
ATOM     29  C   UNL     1      -0.491   0.917 -10.179  0.00  0.00    +0.179 C 
ATOM     30  O   UNL     1      -0.926   2.262 -10.397  0.00  0.00    -0.377 OA
ATOM     31  C   UNL     1      -1.683   2.814  -9.318  0.00  0.00    +0.179 C 
ATOM     32  C   UNL     1      -0.809   2.872  -8.064  0.00  0.00    +0.139 C 
ENDBRANCH  24  25
ENDBRANCH  21  24
ENDBRANCH  10  18
BRANCH   8  33
ATOM     33  N   UNL     1      -2.792  -5.901  -1.765  0.00  0.00    -0.328 N 
ATOM     34  H   UNL     1      -3.705  -6.187  -1.607  0.00  0.00    +0.145 HD
ATOM     35  H   UNL     1      -2.136  -6.532  -2.100  0.00  0.00    +0.145 HD
ENDBRANCH   8  33
BRANCH   9  36
ATOM     36  C   UNL     1      -0.231  -5.232  -2.239  0.00  0.00    +0.101 C 
ATOM     37  N   UNL     1       0.493  -6.016  -2.628  0.00  0.00    -0.191 NA
ENDBRANCH   9  36
TORSDOF 6
