REMARK  Name = ZINC45624551
REMARK  5 active torsions:
REMARK  status: ('A' for Active; 'I' for Inactive)
REMARK    1  A    between atoms: C_4  and  N_24
REMARK    2  A    between atoms: C_5  and  C_7
REMARK    3  A    between atoms: C_7  and  N_8
REMARK    4  A    between atoms: N_11  and  N_12
REMARK    5  A    between atoms: N_12  and  C_13
REMARK                            x       y       z     vdW  Elec       q    Type
REMARK                         _______ _______ _______ _____ _____    ______ ____
ROOT
ATOM      1  N   UNL     1       1.911  -2.685   1.287  0.00  0.00    -0.294 N 
ATOM      2  C   UNL     1       1.860  -4.009   1.534  0.00  0.00    +0.316 C 
ATOM      3  O   UNL     1       1.786  -4.797   0.611  0.00  0.00    -0.251 OA
ATOM      4  N   UNL     1       1.891  -4.459   2.804  0.00  0.00    -0.220 N 
ATOM      5  H   UNL     1       1.970  -2.056   2.023  0.00  0.00    +0.151 HD
ATOM      6  H   UNL     1       1.855  -5.412   2.982  0.00  0.00    +0.174 HD
ENDROOT
BRANCH   4   7
ATOM      7  N   UNL     1       1.976  -3.551   3.867  0.00  0.00    -0.258 N 
ATOM      8  H   UNL     1       1.935  -2.597   3.695  0.00  0.00    +0.170 HD
BRANCH   7   9
ATOM      9  C   UNL     1       2.121  -4.020   5.180  0.00  0.00    +0.121 A 
ATOM     10  C   UNL     1       2.879  -5.157   5.432  0.00  0.00    +0.186 A 
ATOM     11  C   UNL     1       3.022  -5.619   6.730  0.00  0.00    +0.198 A 
ATOM     12  C   UNL     1       2.409  -4.948   7.777  0.00  0.00    +0.199 A 
ATOM     13  C   UNL     1       1.652  -3.814   7.527  0.00  0.00    +0.198 A 
ATOM     14  C   UNL     1       1.512  -3.346   6.231  0.00  0.00    +0.186 A 
ATOM     15  F   UNL     1       0.779  -2.237   5.988  0.00  0.00    -0.200 F 
ATOM     16  F   UNL     1       1.056  -3.162   8.548  0.00  0.00    -0.199 F 
ATOM     17  F   UNL     1       2.548  -5.401   9.042  0.00  0.00    -0.199 F 
ATOM     18  F   UNL     1       3.758  -6.724   6.976  0.00  0.00    -0.199 F 
ATOM     19  F   UNL     1       3.477  -5.811   4.412  0.00  0.00    -0.200 F 
ENDBRANCH   7   9
ENDBRANCH   4   7
BRANCH   1  20
ATOM     20  C   UNL     1       1.877  -2.195  -0.094  0.00  0.00    +0.143 C 
BRANCH  20  25
ATOM     21  C   UNL     1       0.857   1.436  -0.259  0.00  0.00    +0.000 A 
ATOM     22  C   UNL     1       2.074   2.072  -0.099  0.00  0.00    +0.002 A 
ATOM     23  C   UNL     1       3.227   1.327   0.062  0.00  0.00    +0.033 A 
ATOM     24  C   UNL     1       3.164  -0.054   0.065  0.00  0.00    +0.131 A 
ATOM     25  C   UNL     1       1.947  -0.690  -0.095  0.00  0.00    -0.000 A 
ATOM     26  C   UNL     1       0.794   0.055  -0.258  0.00  0.00    +0.007 A 
BRANCH  24  27
ATOM     27  N   UNL     1       4.399  -0.852   0.237  0.00  0.00    +0.057 N 
ATOM     28  O   UNL     1       5.463  -0.295   0.376  0.00  0.00    -0.126 OA
ATOM     29  O   UNL     1       4.343  -2.059   0.238  0.00  0.00    -0.126 OA
ENDBRANCH  24  27
ENDBRANCH  20  25
ENDBRANCH   1  20
TORSDOF 5
