REMARK  Name = ZINC20849415
REMARK  4 active torsions:
REMARK  status: ('A' for Active; 'I' for Inactive)
REMARK    1  A    between atoms: C_1  and  C_2
REMARK    2  A    between atoms: C_6  and  C_10
REMARK    3  A    between atoms: C_13  and  C_16
REMARK    4  A    between atoms: C_16  and  O_17
REMARK                            x       y       z     vdW  Elec       q    Type
REMARK                         _______ _______ _______ _____ _____    ______ ____
ROOT
ATOM      1  C   UNL     1      -0.018   1.503   0.010  0.00  0.00    +0.069 C 
ATOM      2  C   UNL     1       0.002  -0.004   0.002  0.00  0.00    +0.081 A 
ATOM      3  C   UNL     1       0.006  -0.688  -1.207  0.00  0.00    +0.160 A 
ATOM      4  C   UNL     1       0.027  -2.096  -1.187  0.00  0.00    +0.027 A 
ATOM      5  C   UNL     1       0.038  -2.836  -2.449  0.00  0.00    +0.029 A 
ATOM      6  C   UNL     1       0.297  -2.111  -3.606  0.00  0.00    +0.090 A 
ATOM      7  C   UNL     1       0.538  -0.662  -3.452  0.00  0.00    +0.347 A 
ATOM      8  O   UNL     1       1.215  -0.052  -4.258  0.00  0.00    -0.244 OA
ATOM      9  O   UNL     1      -0.013  -0.032  -2.389  0.00  0.00    -0.420 OA
ATOM     10  C   UNL     1       0.040  -2.750   0.052  0.00  0.00    +0.007 A 
ATOM     11  C   UNL     1       0.034  -1.984   1.198  0.00  0.00    +0.117 A 
ATOM     12  N   UNL     1       0.022  -0.665   1.141  0.00  0.00    -0.256 NA
ENDROOT
BRANCH   6  13
ATOM     13  C   UNL     1       0.329  -2.758  -4.928  0.00  0.00    +0.092 C 
ATOM     14  N   UNL     1       0.587  -2.013  -6.049  0.00  0.00    -0.392 N 
ATOM     15  S   UNL     1       0.051  -4.389  -5.060  0.00  0.00    -0.032 SA
ATOM     16  H   UNL     1       0.749  -1.060  -5.972  0.00  0.00    +0.156 HD
ATOM     17  H   UNL     1       0.607  -2.440  -6.920  0.00  0.00    +0.156 HD
ENDBRANCH   6  13
BRANCH  10  18
ATOM     18  C   UNL     1       0.060  -4.255   0.129  0.00  0.00    +0.193 C 
BRANCH  18  19
ATOM     19  O   UNL     1       0.070  -4.661   1.499  0.00  0.00    -0.390 OA
ATOM     20  H   UNL     1       0.083  -5.620   1.625  0.00  0.00    +0.210 HD
ENDBRANCH  18  19
ENDBRANCH  10  18
TORSDOF 3
