REMARK  Name = ZINC55551899
REMARK  4 active torsions:
REMARK  status: ('A' for Active; 'I' for Inactive)
REMARK    1  A    between atoms: C_1  and  C_2
REMARK    2  A    between atoms: C_9  and  C_11
REMARK    3  A    between atoms: C_11  and  C_12
REMARK    4  A    between atoms: C_12  and  C_13
REMARK                            x       y       z     vdW  Elec       q    Type
REMARK                         _______ _______ _______ _____ _____    ______ ____
ROOT
ATOM      1  C   UNL     1       3.671   0.554   5.043  0.00  0.00    +0.080 C 
ATOM      2  C   UNL     1       4.902   0.029   4.304  0.00  0.00    +0.049 C 
ATOM      3  C   UNL     1       6.032  -0.174   5.281  0.00  0.00    -0.025 A 
ATOM      4  C   UNL     1       6.934  -1.202   5.088  0.00  0.00    +0.005 A 
ATOM      5  C   UNL     1       7.979  -1.382   5.975  0.00  0.00    +0.000 A 
ATOM      6  C   UNL     1       8.124  -0.534   7.058  0.00  0.00    +0.002 A 
ATOM      7  C   UNL     1       7.222   0.492   7.259  0.00  0.00    +0.023 A 
ATOM      8  C   UNL     1       6.167   0.672   6.372  0.00  0.00    +0.037 A 
ATOM      9  N   UNL     1       5.235   1.689   6.594  0.00  0.00    -0.285 N 
ATOM     10  C   UNL     1       4.064   1.702   5.935  0.00  0.00    +0.221 C 
ATOM     11  O   UNL     1       3.316   2.648   6.061  0.00  0.00    -0.275 OA
ATOM     12  H   UNL     1       5.436   2.393   7.230  0.00  0.00    +0.155 HD
ENDROOT
BRANCH   1  13
ATOM     13  C   UNL     1       2.633   1.033   4.026  0.00  0.00    +0.022 C 
BRANCH  13  14
ATOM     14  C   UNL     1       2.146  -0.157   3.197  0.00  0.00    +0.097 C 
BRANCH  14  22
ATOM     15  C   UNL     1      -0.138   1.446   0.084  0.00  0.00    +0.028 C 
ATOM     16  C   UNL     1      -0.192  -0.081   0.158  0.00  0.00    +0.073 C 
ATOM     17  C   UNL     1       0.346  -0.678  -1.146  0.00  0.00    +0.022 C 
ATOM     18  C   UNL     1       0.420  -2.201  -1.013  0.00  0.00    +0.003 C 
ATOM     19  C   UNL     1       1.380  -2.570   0.120  0.00  0.00    +0.019 C 
ATOM     20  C   UNL     1       0.853  -1.995   1.438  0.00  0.00    +0.108 C 
ATOM     21  N   UNL     1       0.639  -0.550   1.275  0.00  0.00    -0.299 N 
ATOM     22  C   UNL     1       1.198   0.329   2.131  0.00  0.00    +0.216 C 
ATOM     23  O   UNL     1       0.938   1.510   2.043  0.00  0.00    -0.276 OA
ENDBRANCH  14  22
ENDBRANCH  13  14
ENDBRANCH   1  13
TORSDOF 3
