REMARK  Name = ZINC11443455
REMARK  8 active torsions:
REMARK  status: ('A' for Active; 'I' for Inactive)
REMARK    1  A    between atoms: C_1  and  C_2
REMARK    2  A    between atoms: C_2  and  C_3
REMARK    3  A    between atoms: C_3  and  C_4
REMARK    4  A    between atoms: C_6  and  O_26
REMARK    5  A    between atoms: C_8  and  S_10
REMARK    6  A    between atoms: S_10  and  C_11
REMARK    7  A    between atoms: C_11  and  C_13
REMARK    8  A    between atoms: C_11  and  C_14
REMARK                            x       y       z     vdW  Elec       q    Type
REMARK                         _______ _______ _______ _____ _____    ______ ____
ROOT
ATOM      1  C   UNL     1       4.714  -0.391   0.541  0.00  0.00    +0.137 C 
ATOM      2  C   UNL     1       4.812  -0.399  -0.986  0.00  0.00    +0.029 C 
ENDROOT
BRANCH   1   3
ATOM      3  C   UNL     1       3.341  -0.850   0.958  0.00  0.00    +0.233 C 
ATOM      4  O   UNL     1       3.174  -1.986   1.347  0.00  0.00    -0.274 OA
ATOM      5  N   UNL     1       2.299   0.003   0.899  0.00  0.00    -0.270 N 
ATOM      6  C   UNL     1       2.508   1.416   0.556  0.00  0.00    +0.114 C 
ATOM      7  C   UNL     1       1.679   2.262   1.530  0.00  0.00    +0.024 C 
ATOM      8  C   UNL     1       0.198   1.944   1.324  0.00  0.00    +0.038 C 
ATOM      9  C   UNL     1      -0.035   0.458   1.375  0.00  0.00    -0.026 A 
ATOM     10  C   UNL     1       0.997  -0.444   1.164  0.00  0.00    +0.039 A 
ATOM     11  C   UNL     1       0.747  -1.811   1.214  0.00  0.00    +0.024 A 
ATOM     12  C   UNL     1      -0.528  -2.271   1.475  0.00  0.00    +0.002 A 
ATOM     13  C   UNL     1      -1.556  -1.371   1.689  0.00  0.00    +0.000 A 
ATOM     14  C   UNL     1      -1.310  -0.013   1.639  0.00  0.00    +0.005 A 
ENDBRANCH   1   3
BRANCH   1  15
ATOM     15  S   UNL     1       5.960  -1.508   1.231  0.00  0.00    -0.073 S 
BRANCH  15  20
ATOM     16  C   UNL     1       9.732  -0.593   0.696  0.00  0.00    +0.049 A 
ATOM     17  C   UNL     1       9.672   0.586  -0.025  0.00  0.00    +0.090 A 
ATOM     18  C   UNL     1       8.419   1.104  -0.349  0.00  0.00    +0.216 A 
ATOM     19  N   UNL     1       7.330   0.452   0.042  0.00  0.00    -0.187 NA
ATOM     20  C   UNL     1       7.429  -0.675   0.731  0.00  0.00    +0.192 A 
ATOM     21  N   UNL     1       8.607  -1.189   1.058  0.00  0.00    -0.227 NA
BRANCH  18  22
ATOM     22  O   UNL     1       8.314   2.256  -1.055  0.00  0.00    -0.492 OA
ATOM     23  H   UNL     1       8.278   3.051  -0.506  0.00  0.00    +0.294 HD
ENDBRANCH  18  22
BRANCH  16  24
ATOM     24  C   UNL     1      11.065  -1.190   1.069  0.00  0.00    +0.055 C 
BRANCH  24  26
ATOM     25  C   UNL     1      12.475  -2.007   2.963  0.00  0.00    +0.004 C 
ATOM     26  C   UNL     1      11.122  -1.401   2.583  0.00  0.00    +0.003 C 
ENDBRANCH  24  26
ENDBRANCH  16  24
ENDBRANCH  15  20
ENDBRANCH   1  15
TORSDOF 6
