REMARK  Name = ZINC43250349
REMARK  8 active torsions:
REMARK  status: ('A' for Active; 'I' for Inactive)
REMARK    1  A    between atoms: C_1  and  C_2
REMARK    2  A    between atoms: C_2  and  C_3
REMARK    3  A    between atoms: C_3  and  C_5
REMARK    4  A    between atoms: C_3  and  N_21
REMARK    5  A    between atoms: C_5  and  C_7
REMARK    6  A    between atoms: C_5  and  O_13
REMARK    7  A    between atoms: C_8  and  C_12
REMARK    8  A    between atoms: O_13  and  C_14
REMARK                            x       y       z     vdW  Elec       q    Type
REMARK                         _______ _______ _______ _____ _____    ______ ____
ROOT
ATOM      1  C   UNL     1       0.504  -1.940   1.153  0.00  0.00    +0.196 C 
ENDROOT
BRANCH   1   2
ATOM      2  C   UNL     1       0.993  -2.402   2.502  0.00  0.00    +0.031 A 
ATOM      3  C   UNL     1       0.273  -2.782   3.586  0.00  0.00    -0.037 A 
ATOM      4  C   UNL     1       0.941  -3.173   4.731  0.00  0.00    +0.011 A 
ATOM      5  C   UNL     1       2.297  -3.164   4.736  0.00  0.00    +0.046 A 
ATOM      6  S   UNL     1       2.669  -2.597   3.084  0.00  0.00    -0.098 S 
ATOM      7  C   UNL     1      -1.234  -2.779   3.543  0.00  0.00    +0.045 C 
ENDBRANCH   1   2
BRANCH   1   8
ATOM      8  C   UNL     1       0.688  -0.426   1.035  0.00  0.00    -0.029 C 
BRANCH   8   9
ATOM      9  N   UNL     1       2.111  -0.092   1.181  0.00  0.00    +0.383 N 
ATOM     10  H   UNL     1       2.232   0.906   1.103  0.00  0.00    -0.089 HD
ATOM     11  H   UNL     1       2.438  -0.402   2.084  0.00  0.00    -0.089 HD
ATOM     12  H   UNL     1       2.641  -0.553   0.456  0.00  0.00    -0.089 HD
ENDBRANCH   8   9
BRANCH   8  14
ATOM     13  C   UNL     1       0.260   1.569  -0.407  0.00  0.00    +0.002 C 
ATOM     14  C   UNL     1       0.193   0.043  -0.335  0.00  0.00    -0.016 C 
ENDBRANCH   8  14
ENDBRANCH   1   8
BRANCH   1  15
ATOM     15  O   UNL     1       1.254  -2.593   0.126  0.00  0.00    -0.484 OA
BRANCH  15  16
ATOM     16  C   UNL     1       0.832  -3.826  -0.257  0.00  0.00    +0.134 A 
ATOM     17  C   UNL     1      -0.210  -4.445   0.417  0.00  0.00    +0.047 A 
ATOM     18  C   UNL     1      -0.638  -5.699   0.026  0.00  0.00    +0.004 A 
ATOM     19  C   UNL     1      -0.027  -6.338  -1.038  0.00  0.00    +0.001 A 
ATOM     20  C   UNL     1       1.012  -5.724  -1.712  0.00  0.00    +0.018 A 
ATOM     21  C   UNL     1       1.439  -4.467  -1.328  0.00  0.00    +0.055 A 
ATOM     22  I   UNL     1       3.008  -3.534  -2.356  0.00  0.00    -0.040 I 
ENDBRANCH  15  16
ENDBRANCH   1  15
TORSDOF 6
