REMARK  Name = ZINC67369282
REMARK  2 active torsions:
REMARK  status: ('A' for Active; 'I' for Inactive)
REMARK    1  A    between atoms: C_8  and  O_20
REMARK    2  A    between atoms: C_10  and  N_12
REMARK                            x       y       z     vdW  Elec       q    Type
REMARK                         _______ _______ _______ _____ _____    ______ ____
ROOT
ATOM      1  C   UNL     1      -0.017   1.377   0.010  0.00  0.00    +0.000 A 
ATOM      2  C   UNL     1       1.172   2.083   0.002  0.00  0.00    +0.000 A 
ATOM      3  C   UNL     1       2.376   1.406  -0.013  0.00  0.00    +0.006 A 
ATOM      4  C   UNL     1       2.396   0.021  -0.021  0.00  0.00    -0.021 A 
ATOM      5  C   UNL     1       1.208  -0.685  -0.013  0.00  0.00    -0.040 A 
ATOM      6  C   UNL     1       0.002  -0.004   0.002  0.00  0.00    +0.004 A 
ATOM      7  C   UNL     1       1.496  -2.171  -0.025  0.00  0.00    +0.069 C 
ATOM      8  C   UNL     1       2.966  -2.294  -0.480  0.00  0.00    +0.143 C 
ATOM      9  C   UNL     1       3.564  -0.942  -0.037  0.00  0.00    +0.132 C 
ENDROOT
BRANCH   9  10
ATOM     10  N   UNL     1       4.147  -1.058   1.302  0.00  0.00    -0.304 N 
ATOM     11  C   UNL     1       5.115  -0.159   1.715  0.00  0.00    +0.216 A 
ATOM     12  N   UNL     1       5.500   0.803   0.889  0.00  0.00    -0.222 NA
ATOM     13  C   UNL     1       6.423   1.678   1.252  0.00  0.00    +0.131 A 
ATOM     14  C   UNL     1       6.989   1.579   2.514  0.00  0.00    +0.054 A 
ATOM     15  C   UNL     1       6.563   0.560   3.354  0.00  0.00    +0.131 A 
ATOM     16  N   UNL     1       5.632  -0.278   2.929  0.00  0.00    -0.222 NA
ATOM     17 BR   UNL     1       8.312   2.806   3.079  0.00  0.00    -0.047 Br
ATOM     18  H   UNL     1       3.854  -1.764   1.899  0.00  0.00    +0.150 HD
ENDBRANCH   9  10
BRANCH   8  19
ATOM     19  O   UNL     1       3.613  -3.382   0.184  0.00  0.00    -0.389 OA
ATOM     20  H   UNL     1       3.217  -4.245   0.002  0.00  0.00    +0.210 HD
ENDBRANCH   8  19
TORSDOF 2
