REMARK  Name = ZINC14478485
REMARK  5 active torsions:
REMARK  status: ('A' for Active; 'I' for Inactive)
REMARK    1  A    between atoms: C_1  and  C_2
REMARK    2  A    between atoms: C_7  and  C_8
REMARK    3  A    between atoms: C_19  and  S_24
REMARK    4  A    between atoms: S_24  and  N_27
REMARK    5  A    between atoms: N_27  and  C_28
REMARK                            x       y       z     vdW  Elec       q    Type
REMARK                         _______ _______ _______ _____ _____    ______ ____
ROOT
ATOM      1  C   UNL     1       2.195  -3.646   1.308  0.00  0.00    +0.105 C 
ATOM      2  C   UNL     1       1.325  -2.432   1.441  0.00  0.00    +0.029 C 
ATOM      3  C   UNL     1       2.064  -1.252   2.103  0.00  0.00    +0.033 C 
ATOM      4  C   UNL     1       0.957  -0.460   2.769  0.00  0.00    -0.030 C 
ATOM      5  C   UNL     1      -0.124  -1.184   2.894  0.00  0.00    -0.023 C 
ATOM      6  C   UNL     1       0.112  -2.574   2.358  0.00  0.00    +0.049 C 
ATOM      7  C   UNL     1       0.358  -3.487   3.526  0.00  0.00    -0.018 A 
ATOM      8  C   UNL     1      -0.541  -3.461   4.582  0.00  0.00    +0.034 A 
ATOM      9  C   UNL     1      -0.352  -4.273   5.682  0.00  0.00    +0.109 A 
ATOM     10  C   UNL     1       0.740  -5.120   5.741  0.00  0.00    +0.030 A 
ATOM     11  C   UNL     1       1.638  -5.155   4.694  0.00  0.00    +0.025 A 
ATOM     12  C   UNL     1       1.445  -4.341   3.581  0.00  0.00    +0.031 A 
ATOM     13  N   UNL     1       2.325  -4.427   2.521  0.00  0.00    -0.336 N 
ATOM     14  H   UNL     1       3.086  -5.023   2.610  0.00  0.00    +0.147 HD
ENDROOT
BRANCH   1  21
ATOM     15  C   UNL     1       2.781  -3.106  -1.469  0.00  0.00    +0.044 C 
ATOM     16  C   UNL     1       1.901  -4.271  -1.097  0.00  0.00    -0.045 A 
ATOM     17  C   UNL     1       1.378  -5.085  -2.085  0.00  0.00    +0.004 A 
ATOM     18  C   UNL     1       0.571  -6.154  -1.744  0.00  0.00    +0.000 A 
ATOM     19  C   UNL     1       0.286  -6.409  -0.416  0.00  0.00    +0.000 A 
ATOM     20  C   UNL     1       0.809  -5.596   0.572  0.00  0.00    +0.006 A 
ATOM     21  C   UNL     1       1.620  -4.530   0.231  0.00  0.00    -0.024 A 
ENDBRANCH   1  21
BRANCH   9  22
ATOM     22  S   UNL     1      -1.504  -4.230   7.015  0.00  0.00    +0.072 S 
ATOM     23  O   UNL     1      -0.778  -4.563   8.190  0.00  0.00    -0.150 OA
ATOM     24  O   UNL     1      -2.229  -3.015   6.886  0.00  0.00    -0.150 OA
BRANCH  22  25
ATOM     25  N   UNL     1      -2.588  -5.457   6.765  0.00  0.00    -0.216 N 
ATOM     26  H   UNL     1      -2.657  -6.181   7.406  0.00  0.00    +0.174 HD
BRANCH  25  27
ATOM     27  C   UNL     1      -3.404  -5.447   5.631  0.00  0.00    +0.048 A 
ATOM     28  C   UNL     1      -4.487  -4.581   5.561  0.00  0.00    +0.024 A 
ATOM     29  C   UNL     1      -5.292  -4.574   4.438  0.00  0.00    +0.002 A 
ATOM     30  C   UNL     1      -5.019  -5.429   3.385  0.00  0.00    +0.000 A 
ATOM     31  C   UNL     1      -3.941  -6.293   3.453  0.00  0.00    +0.002 A 
ATOM     32  C   UNL     1      -3.130  -6.300   4.570  0.00  0.00    +0.024 A 
ENDBRANCH  25  27
ENDBRANCH  22  25
ENDBRANCH   9  22
TORSDOF 4
