REMARK  Name = ZINC12559281
REMARK  5 active torsions:
REMARK  status: ('A' for Active; 'I' for Inactive)
REMARK    1  A    between atoms: C_1  and  N_2
REMARK    2  A    between atoms: C_4  and  C_21
REMARK    3  A    between atoms: C_8  and  C_9
REMARK    4  A    between atoms: C_8  and  C_11
REMARK    5  A    between atoms: N_13  and  C_14
REMARK                            x       y       z     vdW  Elec       q    Type
REMARK                         _______ _______ _______ _____ _____    ______ ____
ROOT
ATOM      1  C   UNL     1      -0.206   4.224   0.071  0.00  0.00    +0.135 C 
ATOM      2  N   UNL     1       1.100   3.561   0.071  0.00  0.00    -0.308 N 
ATOM      3  C   UNL     1       2.232   4.306   0.050  0.00  0.00    +0.087 C 
ATOM      4  C   UNL     1       3.451   3.712   0.050  0.00  0.00    +0.069 C 
ATOM      5  C   UNL     1       3.552   2.317   0.071  0.00  0.00    +0.015 C 
ATOM      6  C   UNL     1       2.413   1.561   0.097  0.00  0.00    +0.025 C 
ATOM      7  C   UNL     1       1.167   2.198   0.092  0.00  0.00    +0.056 C 
ATOM      8  C   UNL     1      -0.022   1.430   0.114  0.00  0.00    +0.135 C 
ENDROOT
BRANCH   8   9
ATOM      9  C   UNL     1      -1.278   2.074   0.169  0.00  0.00    +0.260 C 
ATOM     10  O   UNL     1      -1.783   2.335   1.247  0.00  0.00    -0.269 OA
ATOM     11  N   UNL     1      -1.919   2.401  -0.971  0.00  0.00    -0.279 N 
ATOM     12  H   UNL     1      -1.484   2.265  -1.828  0.00  0.00    +0.155 HD
BRANCH  11  13
ATOM     13  C   UNL     1      -3.211   2.936  -0.919  0.00  0.00    +0.069 A 
ATOM     14  C   UNL     1      -4.028   2.676   0.173  0.00  0.00    +0.026 A 
ATOM     15  C   UNL     1      -5.303   3.206   0.221  0.00  0.00    +0.002 A 
ATOM     16  C   UNL     1      -5.767   3.994  -0.816  0.00  0.00    +0.003 A 
ATOM     17  C   UNL     1      -4.958   4.255  -1.906  0.00  0.00    +0.040 A 
ATOM     18  C   UNL     1      -3.678   3.732  -1.959  0.00  0.00    +0.144 A 
ATOM     19  F   UNL     1      -2.885   3.992  -3.022  0.00  0.00    -0.204 F 
ENDBRANCH  11  13
ENDBRANCH   8   9
BRANCH   4  20
ATOM     20  C   UNL     1       4.699   4.557   0.026  0.00  0.00    +0.419 C 
ATOM     21  F   UNL     1       5.160   4.744   1.333  0.00  0.00    -0.166 F 
ATOM     22  F   UNL     1       5.684   3.911  -0.729  0.00  0.00    -0.166 F 
ATOM     23  F   UNL     1       4.411   5.799  -0.549  0.00  0.00    -0.166 F 
ENDBRANCH   4  20
BRANCH   8  24
ATOM     24  C   UNL     1       0.048   0.000   0.074  0.00  0.00    +0.106 C 
ATOM     25  N   UNL     1       0.104  -1.134   0.043  0.00  0.00    -0.191 NA
ENDBRANCH   8  24
TORSDOF 4
