REMARK  Name = ZINC02915422
REMARK  4 active torsions:
REMARK  status: ('A' for Active; 'I' for Inactive)
REMARK    1  A    between atoms: C_4  and  O_21
REMARK    2  A    between atoms: C_5  and  C_7
REMARK    3  A    between atoms: N_8  and  N_9
REMARK    4  A    between atoms: C_10  and  C_12
REMARK                            x       y       z     vdW  Elec       q    Type
REMARK                         _______ _______ _______ _____ _____    ______ ____
ROOT
ATOM      1  N   UNL     1       2.436  -4.185   0.153  0.00  0.00    -0.199 N 
ATOM      2  C   UNL     1       3.591  -4.837  -0.084  0.00  0.00    +0.318 C 
ATOM      3  O   UNL     1       4.608  -4.211  -0.307  0.00  0.00    -0.263 OA
ATOM      4  H   UNL     1       1.625  -4.685   0.332  0.00  0.00    +0.178 HD
ENDROOT
BRANCH   2   5
ATOM      5  C   UNL     1       3.622  -6.329  -0.070  0.00  0.00    +0.303 C 
ATOM      6  O   UNL     1       2.589  -6.956   0.046  0.00  0.00    -0.265 OA
ATOM      7  N   UNL     1       4.796  -6.980  -0.188  0.00  0.00    -0.294 N 
ATOM      8  C   UNL     1       6.019  -6.209  -0.187  0.00  0.00    +0.108 C 
ATOM      9  C   UNL     1       6.372  -5.793  -1.637  0.00  0.00    +0.019 C 
ATOM     10  C   UNL     1       6.819  -6.963  -2.409  0.00  0.00    +0.002 C 
ATOM     11  C   UNL     1       5.760  -8.049  -2.575  0.00  0.00    +0.002 C 
ATOM     12  C   UNL     1       5.779  -8.955  -1.369  0.00  0.00    +0.019 C 
ATOM     13  C   UNL     1       4.780  -8.451  -0.305  0.00  0.00    +0.108 C 
ENDBRANCH   2   5
BRANCH   1  15
ATOM     14  C   UNL     1       1.294  -2.155   0.368  0.00  0.00    +0.142 C 
ATOM     15  N   UNL     1       2.408  -2.784   0.140  0.00  0.00    -0.187 NA
BRANCH  14  20
ATOM     16  C   UNL     1       0.047   1.377   0.585  0.00  0.00    +0.001 A 
ATOM     17  C   UNL     1       1.206   2.091   0.330  0.00  0.00    +0.004 A 
ATOM     18  C   UNL     1       2.396   1.429   0.087  0.00  0.00    +0.046 A 
ATOM     19  C   UNL     1       2.435   0.045   0.097  0.00  0.00    +0.125 A 
ATOM     20  C   UNL     1       1.264  -0.682   0.355  0.00  0.00    +0.036 A 
ATOM     21  C   UNL     1       0.069  -0.002   0.599  0.00  0.00    +0.013 A 
BRANCH  19  22
ATOM     22  O   UNL     1       3.603  -0.606  -0.142  0.00  0.00    -0.506 OA
ATOM     23  H   UNL     1       4.124  -0.783   0.652  0.00  0.00    +0.292 HD
ENDBRANCH  19  22
ENDBRANCH  14  20
ENDBRANCH   1  15
TORSDOF 4
