REMARK  Name = ZINC00691495
REMARK  9 active torsions:
REMARK  status: ('A' for Active; 'I' for Inactive)
REMARK    1  A    between atoms: C_1  and  C_2
REMARK    2  A    between atoms: C_2  and  C_32
REMARK    3  A    between atoms: C_6  and  C_20
REMARK    4  A    between atoms: C_8  and  C_18
REMARK    5  A    between atoms: C_9  and  N_17
REMARK    6  A    between atoms: N_10  and  N_11
REMARK    7  A    between atoms: C_23  and  O_28
REMARK    8  A    between atoms: C_24  and  O_26
REMARK    9  A    between atoms: O_26  and  C_27
REMARK                            x       y       z     vdW  Elec       q    Type
REMARK                         _______ _______ _______ _____ _____    ______ ____
ROOT
ATOM      1  C   UNL     1       5.914  -0.201   2.392  0.00  0.00    +0.011 C 
ATOM      2  C   UNL     1       7.324   0.299   2.071  0.00  0.00    -0.023 C 
ATOM      3  C   UNL     1       7.497   1.723   2.596  0.00  0.00    +0.059 C 
ATOM      4  C   UNL     1       6.508   2.638   1.917  0.00  0.00    +0.037 C 
ATOM      5  C   UNL     1       6.094   2.401   0.656  0.00  0.00    +0.026 C 
ATOM      6  C   UNL     1       5.110   3.319  -0.025  0.00  0.00    +0.098 C 
ATOM      7  C   UNL     1       5.031   4.643   0.678  0.00  0.00    +0.078 C 
ATOM      8  C   UNL     1       5.488   4.791   1.949  0.00  0.00    +0.117 C 
ATOM      9  N   UNL     1       6.042   3.722   2.612  0.00  0.00    -0.223 N 
ATOM     10  C   UNL     1       6.565   1.288  -0.063  0.00  0.00    +0.162 C 
ATOM     11  O   UNL     1       6.185   1.110  -1.203  0.00  0.00    -0.292 OA
ATOM     12  C   UNL     1       7.532   0.315   0.553  0.00  0.00    +0.086 C 
ATOM     13  C   UNL     1       8.357  -0.623   2.723  0.00  0.00    +0.011 C 
ENDROOT
BRANCH   9  14
ATOM     14  N   UNL     1       6.128   3.740   3.975  0.00  0.00    -0.217 NA
ATOM     15  C   UNL     1       7.528   3.830   4.413  0.00  0.00    +0.134 C 
ATOM     16  C   UNL     1       7.574   3.909   5.942  0.00  0.00    +0.177 C 
ATOM     17  O   UNL     1       6.906   2.771   6.493  0.00  0.00    -0.377 OA
ATOM     18  C   UNL     1       5.540   2.652   6.087  0.00  0.00    +0.177 C 
ATOM     19  C   UNL     1       5.473   2.561   4.560  0.00  0.00    +0.134 C 
ENDBRANCH   9  14
BRANCH   6  20
ATOM     20  C   UNL     1       3.748   2.675  -0.019  0.00  0.00    -0.031 A 
ATOM     21  C   UNL     1       3.133   2.371   1.181  0.00  0.00    +0.008 A 
ATOM     22  C   UNL     1       1.881   1.785   1.191  0.00  0.00    +0.049 A 
ATOM     23  C   UNL     1       1.244   1.491  -0.004  0.00  0.00    +0.158 A 
ATOM     24  C   UNL     1       1.862   1.798  -1.212  0.00  0.00    +0.162 A 
ATOM     25  C   UNL     1       3.115   2.390  -1.215  0.00  0.00    +0.054 A 
BRANCH  24  26
ATOM     26  O   UNL     1       1.238   1.517  -2.387  0.00  0.00    -0.491 OA
ATOM     27  C   UNL     1       1.933   1.859  -3.588  0.00  0.00    +0.277 C 
ENDBRANCH  24  26
BRANCH  23  28
ATOM     28  O   UNL     1       0.014   0.910   0.004  0.00  0.00    -0.503 OA
ATOM     29  H   UNL     1       0.036  -0.057  -0.002  0.00  0.00    +0.292 HD
ENDBRANCH  23  28
ENDBRANCH   6  20
BRANCH   8  30
ATOM     30  N   UNL     1       5.396   6.012   2.572  0.00  0.00    -0.344 N 
ATOM     31  H   UNL     1       5.073   6.784   2.082  0.00  0.00    +0.144 HD
ATOM     32  H   UNL     1       5.655   6.102   3.503  0.00  0.00    +0.144 HD
ENDBRANCH   8  30
BRANCH   7  33
ATOM     33  C   UNL     1       4.465   5.769  -0.003  0.00  0.00    +0.099 C 
ATOM     34  N   UNL     1       4.016   6.662  -0.542  0.00  0.00    -0.191 NA
ENDBRANCH   7  33
TORSDOF 6
