REMARK  Name = ZINC39352577
REMARK  15 active torsions:
REMARK  status: ('A' for Active; 'I' for Inactive)
REMARK    1  A    between atoms: C_1  and  C_2
REMARK    2  A    between atoms: C_2  and  C_4
REMARK    3  A    between atoms: C_2  and  N_8
REMARK    4  A    between atoms: C_4  and  C_5
REMARK    5  A    between atoms: C_4  and  C_6
REMARK    6  A    between atoms: C_4  and  O_7
REMARK    7  A    between atoms: N_8  and  C_9
REMARK    8  A    between atoms: N_15  and  C_28
REMARK    9  A    between atoms: C_16  and  C_24
REMARK   10  A    between atoms: C_18  and  N_20
REMARK   11  A    between atoms: C_21  and  C_23
REMARK   12  A    between atoms: C_24  and  O_26
REMARK   13  A    between atoms: O_26  and  C_27
REMARK   14  A    between atoms: C_28  and  C_29
REMARK   15  A    between atoms: C_29  and  C_30
REMARK                            x       y       z     vdW  Elec       q    Type
REMARK                         _______ _______ _______ _____ _____    ______ ____
ROOT
ATOM      1  C   UNL     1      -2.077  -0.648  -1.190  0.00  0.00    +0.044 A 
ATOM      2  C   UNL     1      -3.388  -1.124  -1.194  0.00  0.00    +0.033 A 
ATOM      3  C   UNL     1      -4.042  -1.241  -2.406  0.00  0.00    +0.015 A 
ATOM      4  C   UNL     1      -3.394  -0.889  -3.582  0.00  0.00    +0.105 A 
ATOM      5  N   UNL     1      -2.141  -0.438  -3.533  0.00  0.00    -0.348 N 
ATOM      6  C   UNL     1      -1.487  -0.307  -2.397  0.00  0.00    +0.107 A 
ATOM      7  N   UNL     1      -4.215  -1.077  -4.692  0.00  0.00    -0.301 N 
ATOM      8  C   UNL     1      -5.521  -1.593  -4.275  0.00  0.00    +0.208 C 
ATOM      9  C   UNL     1      -5.436  -1.714  -2.744  0.00  0.00    +0.138 C 
ATOM     10  H   UNL     1      -1.697  -0.195  -4.360  0.00  0.00    +0.167 HD
ENDROOT
BRANCH   9  11
ATOM     11  N   UNL     1      -6.437  -0.855  -2.107  0.00  0.00    -0.306 N 
ATOM     12  C   UNL     1      -6.838  -1.109  -0.846  0.00  0.00    +0.210 C 
ATOM     13  O   UNL     1      -6.371  -2.050  -0.239  0.00  0.00    -0.276 OA
ATOM     14  C   UNL     1      -7.868  -0.225  -0.190  0.00  0.00    +0.109 C 
ATOM     15  H   UNL     1      -6.810  -0.103  -2.592  0.00  0.00    +0.149 HD
ENDBRANCH   9  11
BRANCH   1  16
ATOM     16  N   UNL     1      -1.372  -0.511   0.012  0.00  0.00    -0.337 N 
ATOM     17  H   UNL     1      -1.794  -0.752   0.852  0.00  0.00    +0.146 HD
BRANCH  16  19
ATOM     18  C   UNL     1      -0.019   1.526   0.010  0.00  0.00    +0.030 C 
ATOM     19  C   UNL     1       0.002  -0.004   0.002  0.00  0.00    +0.098 C 
BRANCH  19  20
ATOM     20  C   UNL     1       0.742  -0.511   1.242  0.00  0.00    +0.078 C 
ATOM     21  C   UNL     1       0.763  -2.041   1.233  0.00  0.00    +0.043 C 
ATOM     22  C   UNL     1       2.178   0.019   1.231  0.00  0.00    +0.043 C 
BRANCH  20  23
ATOM     23  O   UNL     1       0.073  -0.050   2.417  0.00  0.00    -0.387 OA
ATOM     24  H   UNL     1       0.023   0.913   2.489  0.00  0.00    +0.210 HD
ENDBRANCH  20  23
ENDBRANCH  19  20
ENDBRANCH  16  19
ENDBRANCH   1  16
BRANCH   8  25
ATOM     25  C   UNL     1      -6.612  -0.630  -4.666  0.00  0.00    +0.330 C 
ATOM     26  O   UNL     1      -6.341   0.518  -4.926  0.00  0.00    -0.249 OA
BRANCH  25  27
ATOM     27  O   UNL     1      -7.887  -1.048  -4.724  0.00  0.00    -0.467 OA
ATOM     28  C   UNL     1      -8.870  -0.082  -5.101  0.00  0.00    +0.280 C 
ENDBRANCH  25  27
ENDBRANCH   8  25
BRANCH   7  29
ATOM     29  C   UNL     1      -3.828  -0.797  -6.077  0.00  0.00    +0.112 C 
BRANCH  29  30
ATOM     30  C   UNL     1      -3.202  -2.050  -6.695  0.00  0.00    +0.056 C 
BRANCH  30  31
ATOM     31  C   UNL     1      -2.804  -1.763  -8.119  0.00  0.00    -0.021 A 
ATOM     32  C   UNL     1      -1.550  -1.153  -8.567  0.00  0.00    +0.003 A 
ATOM     33  C   UNL     1      -0.413  -0.677  -7.911  0.00  0.00    +0.010 A 
ATOM     34  C   UNL     1       0.618  -0.150  -8.636  0.00  0.00    +0.001 A 
ATOM     35  C   UNL     1       0.545  -0.082 -10.020  0.00  0.00    +0.002 A 
ATOM     36  C   UNL     1      -0.568  -0.546 -10.688  0.00  0.00    +0.026 A 
ATOM     37  C   UNL     1      -1.629  -1.087  -9.971  0.00  0.00    +0.047 A 
ATOM     38  N   UNL     1      -2.845  -1.621 -10.334  0.00  0.00    -0.360 N 
ATOM     39  C   UNL     1      -3.528  -2.023  -9.219  0.00  0.00    +0.087 A 
ATOM     40  H   UNL     1      -3.168  -1.703 -11.245  0.00  0.00    +0.165 HD
ENDBRANCH  30  31
ENDBRANCH  29  30
ENDBRANCH   7  29
TORSDOF 10
