REMARK  Name = ZINC14471057
REMARK  6 active torsions:
REMARK  status: ('A' for Active; 'I' for Inactive)
REMARK    1  A    between atoms: C_1  and  C_2
REMARK    2  A    between atoms: C_2  and  C_3
REMARK    3  A    between atoms: C_3  and  O_4
REMARK    4  A    between atoms: O_4  and  C_5
REMARK    5  A    between atoms: C_18  and  C_21
REMARK    6  A    between atoms: C_25  and  N_27
REMARK                            x       y       z     vdW  Elec       q    Type
REMARK                         _______ _______ _______ _____ _____    ______ ____
ROOT
ATOM      1  C   UNL     1      -4.974   6.977  -1.106  0.00  0.00    +0.121 A 
ATOM      2  C   UNL     1      -4.823   7.269   0.241  0.00  0.00    +0.047 A 
ATOM      3  C   UNL     1      -3.597   7.100   0.852  0.00  0.00    +0.027 A 
ATOM      4  C   UNL     1      -2.507   6.638   0.126  0.00  0.00    +0.032 A 
ATOM      5  C   UNL     1      -2.667   6.334  -1.230  0.00  0.00    -0.016 A 
ATOM      6  C   UNL     1      -3.892   6.510  -1.837  0.00  0.00    +0.051 A 
ATOM      7  C   UNL     1      -1.486   5.827  -1.961  0.00  0.00    +0.049 C 
ATOM      8  C   UNL     1      -1.308   5.992  -3.437  0.00  0.00    -0.023 C 
ATOM      9  C   UNL     1      -0.015   6.116  -3.709  0.00  0.00    -0.030 C 
ATOM     10  C   UNL     1       0.801   6.054  -2.416  0.00  0.00    +0.033 C 
ATOM     11  C   UNL     1      -0.225   6.534  -1.381  0.00  0.00    +0.029 C 
ATOM     12  C   UNL     1      -0.079   6.003   0.035  0.00  0.00    +0.105 C 
ATOM     13  N   UNL     1      -1.267   6.495   0.767  0.00  0.00    -0.336 N 
ATOM     14  H   UNL     1      -1.188   6.722   1.707  0.00  0.00    +0.147 HD
ENDROOT
BRANCH  12  15
ATOM     15  C   UNL     1      -0.059   4.497   0.027  0.00  0.00    -0.025 A 
ATOM     16  C   UNL     1      -1.238   3.789   0.170  0.00  0.00    +0.007 A 
ATOM     17  C   UNL     1      -1.221   2.407   0.156  0.00  0.00    +0.022 A 
ATOM     18  C   UNL     1      -0.022   1.732   0.012  0.00  0.00    +0.071 A 
ATOM     19  C   UNL     1       1.158   2.441  -0.131  0.00  0.00    +0.145 A 
ATOM     20  C   UNL     1       1.138   3.823  -0.123  0.00  0.00    +0.039 A 
ATOM     21 CL   UNL     1       0.002  -0.004   0.002  0.00  0.00    -0.081 Cl
BRANCH  19  22
ATOM     22  N   UNL     1       2.440   1.719  -0.292  0.00  0.00    +0.058 N 
ATOM     23  O   UNL     1       3.478   2.343  -0.417  0.00  0.00    -0.126 OA
ATOM     24  O   UNL     1       2.457   0.501  -0.298  0.00  0.00    -0.126 OA
ENDBRANCH  19  22
ENDBRANCH  12  15
BRANCH   1  25
ATOM     25  O   UNL     1      -6.181   7.149  -1.709  0.00  0.00    -0.492 OA
BRANCH  25  26
ATOM     26  C   UNL     1      -7.250   7.634  -0.895  0.00  0.00    +0.229 C 
BRANCH  26  28
ATOM     27  C   UNL     1      -9.663   8.283  -0.869  0.00  0.00    +0.007 C 
ATOM     28  C   UNL     1      -8.518   7.763  -1.741  0.00  0.00    +0.038 C 
ENDBRANCH  26  28
ENDBRANCH  25  26
ENDBRANCH   1  25
TORSDOF 5
