REMARK  Name = ZINC04615106
REMARK  7 active torsions:
REMARK  status: ('A' for Active; 'I' for Inactive)
REMARK    1  A    between atoms: C_1  and  C_2
REMARK    2  A    between atoms: C_6  and  C_7
REMARK    3  A    between atoms: N_8  and  N_9
REMARK    4  A    between atoms: C_10  and  C_12
REMARK    5  A    between atoms: C_15  and  C_17
REMARK    6  A    between atoms: C_17  and  O_18
REMARK    7  A    between atoms: O_18  and  C_19
REMARK                            x       y       z     vdW  Elec       q    Type
REMARK                         _______ _______ _______ _____ _____    ______ ____
ROOT
ATOM      1  C   UNL     1      -4.089   2.784   0.359  0.00  0.00    +0.191 A 
ATOM      2  C   UNL     1      -5.299   3.384   0.567  0.00  0.00    +0.055 A 
ATOM      3  C   UNL     1      -5.081   4.768   0.493  0.00  0.00    +0.049 A 
ATOM      4  C   UNL     1      -3.765   4.952   0.247  0.00  0.00    +0.143 A 
ATOM      5  O   UNL     1      -3.170   3.754   0.172  0.00  0.00    -0.452 OA
ENDROOT
BRANCH   1   7
ATOM      6  N   UNL     1      -2.586   0.879   0.131  0.00  0.00    -0.200 N 
ATOM      7  C   UNL     1      -3.833   1.341   0.348  0.00  0.00    +0.299 C 
ATOM      8  O   UNL     1      -4.747   0.559   0.536  0.00  0.00    -0.265 OA
ATOM      9  H   UNL     1      -1.857   1.502  -0.018  0.00  0.00    +0.178 HD
BRANCH   6  11
ATOM     10  C   UNL     1      -1.162  -0.949  -0.197  0.00  0.00    +0.145 C 
ATOM     11  N   UNL     1      -2.341  -0.500   0.120  0.00  0.00    -0.187 NA
BRANCH  10  17
ATOM     12  C   UNL     1       1.788  -1.639  -0.776  0.00  0.00    +0.045 C 
ATOM     13  C   UNL     1       1.186  -0.277  -1.010  0.00  0.00    -0.035 A 
ATOM     14  C   UNL     1       1.948   0.754  -1.507  0.00  0.00    +0.011 A 
ATOM     15  C   UNL     1       1.374   1.970  -1.705  0.00  0.00    +0.046 A 
ATOM     16  S   UNL     1      -0.309   1.686  -1.180  0.00  0.00    -0.095 S 
ATOM     17  C   UNL     1      -0.147  -0.034  -0.728  0.00  0.00    +0.035 A 
ENDBRANCH  10  17
ENDBRANCH   6  11
ENDBRANCH   1   7
BRANCH   4  18
ATOM     18  C   UNL     1      -3.079   6.284   0.088  0.00  0.00    +0.303 C 
BRANCH  18  19
ATOM     19  O   UNL     1      -2.619   6.738   1.363  0.00  0.00    -0.484 OA
BRANCH  19  20
ATOM     20  C   UNL     1      -1.974   7.933   1.396  0.00  0.00    +0.122 A 
ATOM     21  C   UNL     1      -1.786   8.649   0.209  0.00  0.00    +0.046 A 
ATOM     22  C   UNL     1      -1.150   9.851   0.211  0.00  0.00    +0.012 A 
ATOM     23  C   UNL     1      -0.662  10.379   1.419  0.00  0.00    -0.018 A 
ATOM     24  C   UNL     1       0.007  11.615   1.456  0.00  0.00    +0.008 A 
ATOM     25  C   UNL     1       0.467  12.097   2.643  0.00  0.00    +0.001 A 
ATOM     26  C   UNL     1       0.286  11.382   3.826  0.00  0.00    +0.001 A 
ATOM     27  C   UNL     1      -0.356  10.182   3.829  0.00  0.00    +0.008 A 
ATOM     28  C   UNL     1      -0.845   9.653   2.622  0.00  0.00    -0.014 A 
ATOM     29  C   UNL     1      -1.512   8.417   2.587  0.00  0.00    +0.054 A 
ENDBRANCH  19  20
ENDBRANCH  18  19
ENDBRANCH   4  18
TORSDOF 6
