REMARK  Name = ZINC12494190
REMARK  6 active torsions:
REMARK  status: ('A' for Active; 'I' for Inactive)
REMARK    1  A    between atoms: C_1  and  C_2
REMARK    2  A    between atoms: C_3  and  N_12
REMARK    3  A    between atoms: C_13  and  C_15
REMARK    4  A    between atoms: C_15  and  S_16
REMARK    5  A    between atoms: S_16  and  C_17
REMARK    6  A    between atoms: C_29  and  C_33
REMARK                            x       y       z     vdW  Elec       q    Type
REMARK                         _______ _______ _______ _____ _____    ______ ____
ROOT
ATOM      1  S   UNL     1      -4.359  -3.745   1.484  0.00  0.00    -0.078 S 
ENDROOT
BRANCH   1   2
ATOM      2  C   UNL     1      -3.088  -2.609   1.037  0.00  0.00    +0.170 A 
ATOM      3  N   UNL     1      -3.348  -1.275   1.117  0.00  0.00    -0.301 N 
ATOM      4  H   UNL     1      -4.225  -0.991   1.419  0.00  0.00    +0.171 HD
ATOM      5  C   UNL     1      -2.437  -0.326   0.795  0.00  0.00    +0.261 A 
ATOM      6  O   UNL     1      -2.688   0.864   0.874  0.00  0.00    -0.267 OA
ATOM      7  C   UNL     1      -1.161  -0.807   0.357  0.00  0.00    +0.075 A 
ATOM      8  C   UNL     1      -0.019  -0.002  -0.044  0.00  0.00    -0.023 A 
ATOM      9  C   UNL     1       1.093  -0.671  -0.425  0.00  0.00    -0.004 A 
ATOM     10  S   UNL     1       0.678  -2.390  -0.269  0.00  0.00    -0.073 S 
ATOM     11  C   UNL     1      -0.982  -2.209   0.305  0.00  0.00    +0.117 A 
ATOM     12  N   UNL     1      -1.919  -3.088   0.635  0.00  0.00    -0.216 NA
ATOM     13  C   UNL     1       2.393  -0.084  -0.879  0.00  0.00    +0.046 C 
ATOM     14  C   UNL     1       2.170   1.399  -1.207  0.00  0.00    -0.009 C 
ATOM     15  C   UNL     1       1.393   2.044  -0.058  0.00  0.00    +0.008 C 
ATOM     16  C   UNL     1      -0.045   1.525  -0.046  0.00  0.00    +0.037 C 
ATOM     17  C   UNL     1       3.522   2.097  -1.374  0.00  0.00    +0.008 C 
ENDBRANCH   1   2
BRANCH   1  18
ATOM     18  C   UNL     1      -3.496  -5.310   1.198  0.00  0.00    +0.173 C 
BRANCH  18  20
ATOM     19  N   UNL     1      -3.985  -7.728   1.385  0.00  0.00    -0.279 N 
ATOM     20  C   UNL     1      -4.416  -6.458   1.524  0.00  0.00    +0.228 C 
ATOM     21  O   UNL     1      -5.544  -6.240   1.913  0.00  0.00    -0.275 OA
ATOM     22  H   UNL     1      -3.108  -7.904   1.010  0.00  0.00    +0.155 HD
BRANCH  19  25
ATOM     23  C   UNL     1      -3.036  -9.502   3.371  0.00  0.00    +0.065 C 
ATOM     24  C   UNL     1      -4.390  -9.669   2.731  0.00  0.00    +0.044 A 
ATOM     25  C   UNL     1      -4.807  -8.797   1.783  0.00  0.00    +0.118 A 
ATOM     26  C   UNL     1      -6.086  -8.982   1.192  0.00  0.00    +0.276 A 
ATOM     27  O   UNL     1      -6.484  -8.214   0.334  0.00  0.00    -0.266 OA
ATOM     28  N   UNL     1      -6.855 -10.015   1.590  0.00  0.00    -0.274 N 
ATOM     29  H   UNL     1      -7.757 -10.151   1.179  0.00  0.00    +0.173 HD
ATOM     30  C   UNL     1      -6.417 -10.863   2.538  0.00  0.00    +0.327 A 
ATOM     31  O   UNL     1      -7.123 -11.790   2.885  0.00  0.00    -0.247 OA
ATOM     32  N   UNL     1      -5.209 -10.703   3.108  0.00  0.00    -0.310 N 
ATOM     33  H   UNL     1      -4.905 -11.343   3.813  0.00  0.00    +0.170 HD
ENDBRANCH  19  25
ENDBRANCH  18  20
ENDBRANCH   1  18
TORSDOF 4
