REMARK  Name = ZINC12632729
REMARK  7 active torsions:
REMARK  status: ('A' for Active; 'I' for Inactive)
REMARK    1  A    between atoms: C_1  and  C_2
REMARK    2  A    between atoms: C_2  and  N_3
REMARK    3  A    between atoms: N_3  and  C_4
REMARK    4  A    between atoms: C_9  and  C_11
REMARK    5  A    between atoms: C_11  and  S_12
REMARK    6  A    between atoms: S_12  and  C_13
REMARK    7  A    between atoms: C_17  and  N_19
REMARK                            x       y       z     vdW  Elec       q    Type
REMARK                         _______ _______ _______ _____ _____    ______ ____
ROOT
ATOM      1  S   UNL     1       1.038   3.781   0.012  0.00  0.00    -0.077 S 
ENDROOT
BRANCH   1   2
ATOM      2  C   UNL     1       1.113   2.021   0.002  0.00  0.00    +0.192 A 
ATOM      3  N   UNL     1      -0.016   1.327   0.009  0.00  0.00    -0.207 NA
ATOM      4  C   UNL     1       0.002  -0.004   0.002  0.00  0.00    +0.122 A 
ATOM      5  C   UNL     1       1.227  -0.665  -0.013  0.00  0.00    +0.086 A 
ATOM      6  C   UNL     1       2.391   0.098  -0.020  0.00  0.00    +0.122 A 
ATOM      7  N   UNL     1       2.296   1.425  -0.012  0.00  0.00    -0.207 NA
ATOM      8  N   UNL     1      -1.183  -0.723   0.010  0.00  0.00    -0.343 N 
ATOM      9  H   UNL     1      -2.034  -0.255   0.021  0.00  0.00    +0.144 HD
ATOM     10  H   UNL     1      -1.163  -1.692   0.004  0.00  0.00    +0.144 HD
BRANCH   6  11
ATOM     11  N   UNL     1       3.634  -0.518  -0.035  0.00  0.00    -0.343 N 
ATOM     12  H   UNL     1       3.695  -1.486  -0.040  0.00  0.00    +0.144 HD
ATOM     13  H   UNL     1       4.441   0.020  -0.040  0.00  0.00    +0.144 HD
ENDBRANCH   6  11
ENDBRANCH   1   2
BRANCH   1  14
ATOM     14  C   UNL     1       2.805   4.171  -0.003  0.00  0.00    +0.173 C 
BRANCH  14  16
ATOM     15  N   UNL     1       4.231   6.192  -0.006  0.00  0.00    -0.275 N 
ATOM     16  C   UNL     1       2.990   5.667   0.003  0.00  0.00    +0.230 C 
ATOM     17  O   UNL     1       2.022   6.397   0.016  0.00  0.00    -0.274 OA
BRANCH  15  18
ATOM     18  C   UNL     1       4.402   7.574  -0.001  0.00  0.00    +0.010 C 
ATOM     19  C   UNL     1       5.568   8.181  -0.003  0.00  0.00    -0.008 C 
ATOM     20  C   UNL     1       5.396   9.682   0.001  0.00  0.00    +0.029 C 
ATOM     21  C   UNL     1       3.923   9.913  -0.409  0.00  0.00    +0.010 C 
ATOM     22  C   UNL     1       3.271   8.576   0.015  0.00  0.00    +0.051 C 
ENDBRANCH  15  18
BRANCH  15  24
ATOM     23  C   UNL     1       5.794   5.010  -1.469  0.00  0.00    +0.025 C 
ATOM     24  C   UNL     1       5.400   5.310  -0.021  0.00  0.00    +0.110 C 
ENDBRANCH  15  24
ENDBRANCH  14  16
ENDBRANCH   1  14
TORSDOF 6
