REMARK  Name = ZINC16129583
REMARK  4 active torsions:
REMARK  status: ('A' for Active; 'I' for Inactive)
REMARK    1  A    between atoms: C_3  and  S_9
REMARK    2  A    between atoms: C_6  and  C_7
REMARK    3  A    between atoms: S_9  and  N_12
REMARK    4  A    between atoms: N_12  and  C_13
REMARK                            x       y       z     vdW  Elec       q    Type
REMARK                         _______ _______ _______ _____ _____    ______ ____
ROOT
ATOM      1  S   UNL     1       1.410   1.808  -0.112  0.00  0.00    +0.072 S 
ATOM      2  O   UNL     1       2.458   0.861   0.044  0.00  0.00    -0.150 OA
ATOM      3  O   UNL     1       1.296   2.636  -1.262  0.00  0.00    -0.150 OA
ENDROOT
BRANCH   1   6
ATOM      4  C   UNL     1       2.158   3.293   3.543  0.00  0.00    +0.021 A 
ATOM      5  C   UNL     1       2.088   2.454   2.451  0.00  0.00    +0.030 A 
ATOM      6  C   UNL     1       1.495   2.887   1.278  0.00  0.00    +0.109 A 
ATOM      7  C   UNL     1       0.973   4.165   1.191  0.00  0.00    +0.030 A 
ATOM      8  C   UNL     1       1.032   5.013   2.277  0.00  0.00    +0.021 A 
ATOM      9  C   UNL     1       1.629   4.583   3.463  0.00  0.00    +0.052 A 
BRANCH   9  10
ATOM     10  C   UNL     1       1.698   5.460   4.594  0.00  0.00    +0.099 C 
ATOM     11  N   UNL     1       1.752   6.155   5.490  0.00  0.00    -0.191 NA
ENDBRANCH   9  10
ENDBRANCH   1   6
BRANCH   1  12
ATOM     12  N   UNL     1      -0.011   0.966   0.007  0.00  0.00    -0.215 N 
ATOM     13  H   UNL     1       0.003  -0.002   0.071  0.00  0.00    +0.174 HD
BRANCH  12  14
ATOM     14  C   UNL     1      -1.232   1.650   0.011  0.00  0.00    +0.066 A 
ATOM     15  C   UNL     1      -1.391   2.791  -0.763  0.00  0.00    +0.029 A 
ATOM     16  C   UNL     1      -2.597   3.465  -0.758  0.00  0.00    +0.040 A 
ATOM     17  C   UNL     1      -3.647   3.003   0.019  0.00  0.00    +0.125 A 
ATOM     18  C   UNL     1      -3.490   1.866   0.793  0.00  0.00    +0.060 A 
ATOM     19  C   UNL     1      -2.287   1.185   0.786  0.00  0.00    +0.066 A 
ATOM     20 CL   UNL     1      -2.093  -0.246   1.750  0.00  0.00    -0.081 Cl
ATOM     21  F   UNL     1      -4.825   3.664   0.022  0.00  0.00    -0.205 F 
ENDBRANCH  12  14
ENDBRANCH   1  12
TORSDOF 4
