REMARK  Name = ZINC63361797
REMARK  8 active torsions:
REMARK  status: ('A' for Active; 'I' for Inactive)
REMARK    1  A    between atoms: C_1  and  C_2
REMARK    2  A    between atoms: C_13  and  C_15
REMARK    3  A    between atoms: C_15  and  C_16
REMARK    4  A    between atoms: C_16  and  C_17
REMARK    5  A    between atoms: N_19  and  CA_20
REMARK    6  A    between atoms: CA_20  and  CB_22
REMARK    7  A    between atoms: CA_20  and  C_32
REMARK    8  A    between atoms: CB_22  and  CG_23
REMARK                            x       y       z     vdW  Elec       q    Type
REMARK                         _______ _______ _______ _____ _____    ______ ____
ROOT
ATOM      1  C   UNK A   0       1.115  -1.984   1.060  0.00  0.00    +0.024 C 
ENDROOT
BRANCH   1  13
ATOM      2  C   UNK A   0      -0.019   1.526   0.010  0.00  0.00    +0.013 C 
ATOM      3  C   UNK A   0       0.002  -0.004   0.002  0.00  0.00    +0.033 C 
ATOM      4  C   UNK A   0      -1.414  -0.524   0.009  0.00  0.00    -0.001 A 
ATOM      5  C   UNK A   0      -2.102  -0.540  -1.177  0.00  0.00    +0.019 A 
ATOM      6  C   UNK A   0      -3.414  -1.004  -1.222  0.00  0.00    +0.024 A 
ATOM      7  C   UNK A   0      -4.038  -1.462  -0.047  0.00  0.00    +0.139 A 
ATOM      8  C   UNK A   0      -3.330  -1.442   1.145  0.00  0.00    +0.093 A 
ATOM      9  C   UNK A   0      -2.022  -0.977   1.172  0.00  0.00    +0.139 A 
ATOM     10  O   UNK A   0      -1.363  -0.992   2.364  0.00  0.00    -0.425 OA
ATOM     11  C   UNK A   0      -0.178  -0.354   2.429  0.00  0.00    +0.316 C 
ATOM     12  O   UNK A   0       0.131   0.311   3.390  0.00  0.00    -0.250 OA
ATOM     13  C   UNK A   0       0.747  -0.510   1.241  0.00  0.00    +0.106 C 
ATOM     14  O   UNK A   0      -5.288  -1.848  -0.378  0.00  0.00    -0.459 OA
ATOM     15  C   UNK A   0      -5.515  -1.666  -1.690  0.00  0.00    +0.109 A 
ATOM     16  C   UNK A   0      -4.418  -1.155  -2.273  0.00  0.00    +0.001 A 
ATOM     17  C   UNK A   0      -4.296  -0.819  -3.736  0.00  0.00    +0.039 C 
ATOM     18  C   UNK A   0      -5.438  -1.512  -4.490  0.00  0.00    +0.005 C 
ATOM     19  C   UNK A   0      -6.763  -1.226  -3.777  0.00  0.00    +0.008 C 
ATOM     20  C   UNK A   0      -6.793  -1.971  -2.438  0.00  0.00    +0.075 C 
ENDBRANCH   1  13
BRANCH   1  21
ATOM     21  C   UNK A   0       1.965  -2.446   2.245  0.00  0.00    +0.096 C 
BRANCH  21  22
ATOM     22  C   UNK A   0       2.328  -3.898   2.067  0.00  0.00    +0.214 C 
ATOM     23  O   UNK A   0       1.944  -4.503   1.088  0.00  0.00    -0.276 OA
ATOM     24  N   TRP A   1       3.079  -4.524   2.995  0.00  0.00    -0.302 N 
ATOM     25  H   TRP A   1       3.385  -4.040   3.777  0.00  0.00    +0.150 HD
BRANCH  24  26
ATOM     26  CA  TRP A   1       3.431  -5.935   2.821  0.00  0.00    +0.190 C 
BRANCH  26  27
ATOM     27  C   TRP A   1       2.316  -6.800   3.349  0.00  0.00    +0.376 C 
ATOM     28  O   TRP A   1       1.319  -6.285   3.826  0.00  0.00    -0.244 OA
ATOM     29  OXT TRP A   1       2.410  -8.015   3.300  0.00  0.00    -0.244 OA
ENDBRANCH  26  27
BRANCH  26  30
ATOM     30  CB  TRP A   1       4.719  -6.237   3.591  0.00  0.00    +0.067 C 
BRANCH  30  31
ATOM     31  CG  TRP A   1       5.860  -5.464   2.983  0.00  0.00    -0.039 C 
ATOM     32  CD2 TRP A   1       6.335  -4.263   3.386  0.00  0.00    -0.001 A 
ATOM     33  CE3 TRP A   1       5.944  -3.353   4.470  0.00  0.00    +0.010 A 
ATOM     34  CZ3 TRP A   1       6.623  -2.194   4.629  0.00  0.00    +0.001 A 
ATOM     35  CH2 TRP A   1       7.687  -1.841   3.788  0.00  0.00    +0.002 A 
ATOM     36  CZ2 TRP A   1       8.104  -2.625   2.771  0.00  0.00    +0.026 A 
ATOM     37  CE2 TRP A   1       7.462  -3.868   2.512  0.00  0.00    +0.043 A 
ATOM     38  NE1 TRP A   1       7.676  -4.788   1.603  0.00  0.00    -0.380 N 
ATOM     39  CD1 TRP A   1       6.712  -5.875   1.803  0.00  0.00    +0.144 C 
ATOM     40  HE1 TRP A   1       8.361  -4.757   0.917  0.00  0.00    +0.160 HD
ENDBRANCH  30  31
ENDBRANCH  26  30
ENDBRANCH  24  26
ENDBRANCH  21  22
ENDBRANCH   1  21
TORSDOF 7
