REMARK  Name = ZINC16591131
REMARK  11 active torsions:
REMARK  status: ('A' for Active; 'I' for Inactive)
REMARK    1  A    between atoms: C_1  and  C_2
REMARK    2  A    between atoms: C_2  and  C_3
REMARK    3  A    between atoms: C_3  and  C_4
REMARK    4  A    between atoms: C_4  and  N_5
REMARK    5  A    between atoms: N_5  and  C_6
REMARK    6  A    between atoms: C_7  and  N_22
REMARK    7  A    between atoms: N_8  and  C_15
REMARK    8  A    between atoms: C_15  and  C_16
REMARK    9  A    between atoms: C_23  and  C_25
REMARK   10  A    between atoms: C_25  and  N_26
REMARK   11  A    between atoms: C_30  and  C_33
REMARK                            x       y       z     vdW  Elec       q    Type
REMARK                         _______ _______ _______ _____ _____    ______ ____
ROOT
ATOM      1  C   UNL     1       0.886  -2.702   3.643  0.00  0.00    +0.140 A 
ATOM      2  C   UNL     1      -0.113  -3.630   3.858  0.00  0.00    +0.128 A 
ATOM      3  N   UNL     1      -0.643  -3.765   5.120  0.00  0.00    -0.276 N 
ATOM      4  C   UNL     1      -0.194  -3.001   6.133  0.00  0.00    +0.331 A 
ATOM      5  O   UNL     1      -0.676  -3.136   7.241  0.00  0.00    -0.246 OA
ATOM      6  N   UNL     1       0.778  -2.092   5.942  0.00  0.00    -0.273 N 
ATOM      7  H   UNL     1       1.085  -1.554   6.688  0.00  0.00    +0.173 HD
ATOM      8  C   UNL     1       1.335  -1.924   4.727  0.00  0.00    +0.277 A 
ATOM      9  O   UNL     1       2.220  -1.100   4.566  0.00  0.00    -0.266 OA
ENDROOT
BRANCH   1  10
ATOM     10  N   UNL     1       1.450  -2.539   2.360  0.00  0.00    -0.263 N 
ATOM     11  C   UNL     1       2.743  -2.858   2.147  0.00  0.00    +0.234 C 
ATOM     12  O   UNL     1       3.394  -3.376   3.030  0.00  0.00    -0.274 OA
BRANCH  10  13
ATOM     13  C   UNL     1       0.631  -2.024   1.260  0.00  0.00    +0.114 C 
BRANCH  13  14
ATOM     14  C   UNL     1       0.642  -0.494   1.290  0.00  0.00    +0.019 C 
BRANCH  14  16
ATOM     15  C   UNL     1      -0.203   1.574   0.170  0.00  0.00    +0.004 C 
ATOM     16  C   UNL     1      -0.213   0.044   0.141  0.00  0.00    -0.002 C 
ENDBRANCH  14  16
ENDBRANCH  13  14
ENDBRANCH  10  13
BRANCH  11  17
ATOM     17  C   UNL     1       3.380  -2.572   0.811  0.00  0.00    +0.181 C 
BRANCH  17  18
ATOM     18  N   UNL     1       4.782  -3.010   0.832  0.00  0.00    -0.293 NA
ATOM     19  C   UNL     1       4.876  -4.469   0.965  0.00  0.00    +0.085 C 
ATOM     20  C   UNL     1       6.342  -4.874   1.130  0.00  0.00    +0.016 C 
ATOM     21  C   UNL     1       7.138  -4.401  -0.090  0.00  0.00    +0.015 C 
ATOM     22  C   UNL     1       6.984  -2.885  -0.233  0.00  0.00    +0.107 C 
ATOM     23  C   UNL     1       5.499  -2.537  -0.359  0.00  0.00    +0.097 C 
BRANCH  22  24
ATOM     24  C   UNL     1       7.728  -2.412  -1.484  0.00  0.00    +0.394 C 
ATOM     25  F   UNL     1       7.192  -3.043  -2.612  0.00  0.00    -0.170 F 
ATOM     26  F   UNL     1       7.587  -1.026  -1.614  0.00  0.00    -0.170 F 
ATOM     27  F   UNL     1       9.084  -2.733  -1.369  0.00  0.00    -0.170 F 
ENDBRANCH  22  24
ENDBRANCH  17  18
ENDBRANCH  11  17
ENDBRANCH   1  10
BRANCH   2  28
ATOM     28  N   UNL     1      -0.572  -4.409   2.824  0.00  0.00    -0.343 N 
ATOM     29  H   UNL     1      -0.242  -4.264   1.923  0.00  0.00    +0.144 HD
ATOM     30  H   UNL     1      -1.226  -5.105   2.994  0.00  0.00    +0.144 HD
ENDBRANCH   2  28
BRANCH   3  31
ATOM     31  C   UNL     1      -1.704  -4.746   5.363  0.00  0.00    +0.163 C 
BRANCH  31  32
ATOM     32  C   UNL     1      -1.088  -6.065   5.752  0.00  0.00    -0.028 A 
ATOM     33  C   UNL     1      -0.764  -6.992   4.778  0.00  0.00    +0.005 A 
ATOM     34  C   UNL     1      -0.200  -8.202   5.136  0.00  0.00    +0.000 A 
ATOM     35  C   UNL     1       0.042  -8.485   6.467  0.00  0.00    +0.000 A 
ATOM     36  C   UNL     1      -0.280  -7.559   7.441  0.00  0.00    +0.000 A 
ATOM     37  C   UNL     1      -0.841  -6.347   7.083  0.00  0.00    +0.005 A 
ENDBRANCH  31  32
ENDBRANCH   3  31
TORSDOF 10
