REMARK  Name = ZINC06108353
REMARK  4 active torsions:
REMARK  status: ('A' for Active; 'I' for Inactive)
REMARK    1  A    between atoms: C_1  and  C_2
REMARK    2  A    between atoms: C_2  and  C_16
REMARK    3  A    between atoms: N_5  and  C_9
REMARK    4  A    between atoms: C_9  and  C_10
REMARK                            x       y       z     vdW  Elec       q    Type
REMARK                         _______ _______ _______ _____ _____    ______ ____
ROOT
ATOM      1  C   UNL     1      -2.958   0.677   1.452  0.00  0.00    +0.047 C 
ATOM      2  C   UNL     1      -2.513   0.975   0.019  0.00  0.00    +0.135 C 
ATOM      3  C   UNL     1      -3.591   1.737  -0.726  0.00  0.00    +0.251 C 
ATOM      4  O   UNL     1      -4.039   2.829  -0.450  0.00  0.00    -0.272 OA
ATOM      5  N   UNL     1      -3.946   0.948  -1.760  0.00  0.00    -0.220 N 
ATOM      6  C   UNL     1      -3.250  -0.194  -1.771  0.00  0.00    +0.310 C 
ATOM      7  O   UNL     1      -3.394  -1.065  -2.606  0.00  0.00    -0.252 OA
ATOM      8  N   UNL     1      -2.372  -0.274  -0.750  0.00  0.00    -0.281 N 
ATOM      9  H   UNL     1      -1.766  -1.006  -0.559  0.00  0.00    +0.152 HD
ENDROOT
BRANCH   2  10
ATOM     10  C   UNL     1      -1.219   1.748   0.017  0.00  0.00    -0.015 A 
ATOM     11  C   UNL     1      -1.239   3.130   0.030  0.00  0.00    +0.006 A 
ATOM     12  C   UNL     1      -0.052   3.836   0.022  0.00  0.00    +0.004 A 
ATOM     13  C   UNL     1       1.159   3.164   0.008  0.00  0.00    -0.044 A 
ATOM     14  C   UNL     1       1.179   1.782   0.000  0.00  0.00    -0.044 A 
ATOM     15  C   UNL     1      -0.013   1.076   0.008  0.00  0.00    +0.010 A 
ATOM     16  C   UNL     1       2.610   1.291  -0.016  0.00  0.00    +0.036 C 
ATOM     17  C   UNL     1       3.450   2.509  -0.459  0.00  0.00    +0.009 C 
ATOM     18  C   UNL     1       2.576   3.696  -0.004  0.00  0.00    +0.036 C 
ENDBRANCH   2  10
BRANCH   5  19
ATOM     19  C   UNL     1      -4.969   1.298  -2.748  0.00  0.00    +0.153 C 
BRANCH  19  20
ATOM     20  C   UNL     1      -4.326   2.032  -3.897  0.00  0.00    -0.030 A 
ATOM     21  C   UNL     1      -4.223   3.410  -3.866  0.00  0.00    +0.005 A 
ATOM     22  C   UNL     1      -3.630   4.083  -4.918  0.00  0.00    +0.000 A 
ATOM     23  C   UNL     1      -3.149   3.379  -6.005  0.00  0.00    +0.000 A 
ATOM     24  C   UNL     1      -3.257   2.001  -6.039  0.00  0.00    +0.000 A 
ATOM     25  C   UNL     1      -3.846   1.328  -4.985  0.00  0.00    +0.005 A 
ENDBRANCH  19  20
ENDBRANCH   5  19
TORSDOF 3
