REMARK  Name = ZINC00307448
REMARK  4 active torsions:
REMARK  status: ('A' for Active; 'I' for Inactive)
REMARK    1  A    between atoms: C_4  and  O_7
REMARK    2  A    between atoms: O_7  and  C_8
REMARK    3  A    between atoms: C_11  and  N_14
REMARK    4  A    between atoms: C_15  and  C_17
REMARK                            x       y       z     vdW  Elec       q    Type
REMARK                         _______ _______ _______ _____ _____    ______ ____
ROOT
ATOM      1  N   UNL     1      -0.645   0.839   2.378  0.00  0.00    -0.285 N 
ATOM      2  C   UNL     1      -0.517  -0.481   2.135  0.00  0.00    +0.231 C 
ATOM      3  O   UNL     1      -0.966  -1.288   2.921  0.00  0.00    -0.274 OA
ATOM      4  H   UNL     1      -0.231   1.484   1.784  0.00  0.00    +0.155 HD
ENDROOT
BRANCH   2   5
ATOM      5  C   UNL     1       0.184  -0.953   0.888  0.00  0.00    +0.149 C 
ATOM      6  C   UNL     1       0.861  -2.285   1.172  0.00  0.00    +0.122 C 
ATOM      7  C   UNL     1       1.478  -2.852  -0.073  0.00  0.00    +0.240 C 
ATOM      8  O   UNL     1       2.568  -3.384   0.006  0.00  0.00    -0.274 OA
ATOM      9  N   UNL     1       0.886  -2.796  -1.245  0.00  0.00    -0.160 NA
ATOM     10  C   UNL     1      -0.224  -2.163  -1.511  0.00  0.00    +0.144 C 
ATOM     11  S   UNL     1      -1.020  -1.104  -0.446  0.00  0.00    -0.080 S 
ATOM     12  N   UNL     1      -0.787  -2.365  -2.737  0.00  0.00    -0.340 N 
ATOM     13  H   UNL     1      -1.612  -1.913  -2.972  0.00  0.00    +0.144 HD
ATOM     14  H   UNL     1      -0.362  -2.962  -3.373  0.00  0.00    +0.144 HD
ENDBRANCH   2   5
BRANCH   1  18
ATOM     15  C   UNL     1      -2.819   2.148   5.686  0.00  0.00    +0.129 A 
ATOM     16  C   UNL     1      -2.070   0.983   5.766  0.00  0.00    +0.048 A 
ATOM     17  C   UNL     1      -1.350   0.549   4.671  0.00  0.00    +0.027 A 
ATOM     18  C   UNL     1      -1.375   1.279   3.490  0.00  0.00    +0.034 A 
ATOM     19  C   UNL     1      -2.120   2.448   3.413  0.00  0.00    +0.027 A 
ATOM     20  C   UNL     1      -2.845   2.878   4.506  0.00  0.00    +0.048 A 
BRANCH  15  21
ATOM     21  O   UNL     1      -3.528   2.575   6.765  0.00  0.00    -0.456 OA
BRANCH  21  25
ATOM     22  C   UNL     1      -7.618   2.036   6.732  0.00  0.00    +0.000 A 
ATOM     23  C   UNL     1      -6.998   2.544   7.858  0.00  0.00    +0.004 A 
ATOM     24  C   UNL     1      -5.629   2.726   7.872  0.00  0.00    +0.046 A 
ATOM     25  C   UNL     1      -4.875   2.398   6.754  0.00  0.00    +0.128 A 
ATOM     26  C   UNL     1      -5.500   1.893   5.623  0.00  0.00    +0.046 A 
ATOM     27  C   UNL     1      -6.869   1.708   5.616  0.00  0.00    +0.004 A 
ENDBRANCH  21  25
ENDBRANCH  15  21
ENDBRANCH   1  18
TORSDOF 4
