REMARK  Name = ZINC01423062
REMARK  3 active torsions:
REMARK  status: ('A' for Active; 'I' for Inactive)
REMARK    1  A    between atoms: C_8  and  C_26
REMARK    2  A    between atoms: C_9  and  N_25
REMARK    3  A    between atoms: N_10  and  C_18
REMARK                            x       y       z     vdW  Elec       q    Type
REMARK                         _______ _______ _______ _____ _____    ______ ____
ROOT
ATOM      1  C   UNL     1      -0.013   1.076   0.008  0.00  0.00    +0.000 A 
ATOM      2  C   UNL     1      -1.225   1.735   0.017  0.00  0.00    +0.002 A 
ATOM      3  C   UNL     1      -1.308   3.119   0.030  0.00  0.00    +0.023 A 
ATOM      4  C   UNL     1      -0.107   3.830   0.023  0.00  0.00    +0.038 A 
ATOM      5  C   UNL     1       1.115   3.149   0.009  0.00  0.00    -0.002 A 
ATOM      6  C   UNL     1       1.191   1.773   0.000  0.00  0.00    +0.007 A 
ATOM      7  C   UNL     1       2.183   4.200   0.006  0.00  0.00    +0.141 C 
ATOM      8  C   UNL     1       3.036   4.097   1.236  0.00  0.00    +0.089 C 
ATOM      9  C   UNL     1       4.299   3.600   1.169  0.00  0.00    +0.108 C 
ATOM     10  N   UNL     1       4.816   3.188  -0.037  0.00  0.00    -0.257 N 
ATOM     11  C   UNL     1       4.266   3.615  -1.217  0.00  0.00    +0.025 C 
ATOM     12  C   UNL     1       3.010   4.111  -1.250  0.00  0.00    +0.037 C 
ATOM     13  C   UNL     1       2.441   4.561  -2.454  0.00  0.00    +0.162 C 
ATOM     14  O   UNL     1       1.305   4.994  -2.451  0.00  0.00    -0.292 OA
ATOM     15  C   UNL     1       3.210   4.516  -3.746  0.00  0.00    +0.080 C 
ATOM     16  C   UNL     1       4.706   4.635  -3.438  0.00  0.00    +0.014 C 
ATOM     17  C   UNL     1       5.094   3.512  -2.474  0.00  0.00    +0.052 C 
ATOM     18  C   UNL     1       1.416   5.507   0.018  0.00  0.00    +0.238 C 
ATOM     19  O   UNL     1       1.893   6.622   0.018  0.00  0.00    -0.274 OA
ATOM     20  N   UNL     1       0.104   5.197   0.028  0.00  0.00    -0.284 N 
ATOM     21  H   UNL     1      -0.609   5.856   0.037  0.00  0.00    +0.155 HD
ENDROOT
BRANCH  10  22
ATOM     22  C   UNL     1       5.918   2.324  -0.060  0.00  0.00    +0.075 A 
ATOM     23  C   UNL     1       5.724   0.949  -0.066  0.00  0.00    +0.027 A 
ATOM     24  C   UNL     1       6.813   0.099  -0.089  0.00  0.00    +0.002 A 
ATOM     25  C   UNL     1       8.096   0.615  -0.105  0.00  0.00    +0.003 A 
ATOM     26  C   UNL     1       8.294   1.983  -0.099  0.00  0.00    +0.040 A 
ATOM     27  C   UNL     1       7.209   2.841  -0.082  0.00  0.00    +0.145 A 
ATOM     28  F   UNL     1       7.403   4.178  -0.081  0.00  0.00    -0.204 F 
ENDBRANCH  10  22
BRANCH   9  29
ATOM     29  N   UNL     1       5.061   3.508   2.310  0.00  0.00    -0.345 N 
ATOM     30  H   UNL     1       4.697   3.798   3.161  0.00  0.00    +0.144 HD
ATOM     31  H   UNL     1       5.962   3.153   2.264  0.00  0.00    +0.144 HD
ENDBRANCH   9  29
BRANCH   8  32
ATOM     32  C   UNL     1       2.512   4.529   2.496  0.00  0.00    +0.100 C 
ATOM     33  N   UNL     1       2.096   4.871   3.497  0.00  0.00    -0.191 NA
ENDBRANCH   8  32
TORSDOF 3
