REMARK  Name = ZINC48719787
REMARK  6 active torsions:
REMARK  status: ('A' for Active; 'I' for Inactive)
REMARK    1  A    between atoms: C_1  and  C_2
REMARK    2  A    between atoms: C_2  and  C_3
REMARK    3  A    between atoms: C_6  and  N_8
REMARK    4  A    between atoms: C_9  and  C_11
REMARK    5  A    between atoms: N_13  and  C_14
REMARK    6  A    between atoms: C_20  and  C_22
REMARK                            x       y       z     vdW  Elec       q    Type
REMARK                         _______ _______ _______ _____ _____    ______ ____
ROOT
ATOM      1  C   UNL     1       4.071  -2.564   6.090  0.00  0.00    +0.304 C 
ATOM      2  O   UNL     1       3.810  -2.880   7.234  0.00  0.00    -0.265 OA
ATOM      3  N   UNL     1       5.343  -2.629   5.647  0.00  0.00    -0.304 N 
ATOM      4  H   UNL     1       5.551  -2.377   4.734  0.00  0.00    +0.149 HD
ENDROOT
BRANCH   3   5
ATOM      5  C   UNL     1       6.409  -3.081   6.544  0.00  0.00    +0.076 C 
ATOM      6  C   UNL     1       6.478  -4.610   6.524  0.00  0.00    +0.022 C 
ATOM      7  C   UNL     1       7.592  -5.082   7.461  0.00  0.00    +0.002 C 
ATOM      8  C   UNL     1       8.930  -4.504   6.994  0.00  0.00    +0.000 C 
ATOM      9  C   UNL     1       8.860  -2.976   7.014  0.00  0.00    +0.005 C 
ATOM     10  C   UNL     1       7.747  -2.504   6.077  0.00  0.00    +0.006 C 
ATOM     11  C   UNL     1       7.677  -0.975   6.098  0.00  0.00    +0.009 C 
ENDBRANCH   3   5
BRANCH   1  13
ATOM     12  N   UNL     1       3.276  -1.767   3.953  0.00  0.00    -0.177 NA
ATOM     13  C   UNL     1       2.994  -2.107   5.184  0.00  0.00    +0.335 C 
ATOM     14  O   UNL     1       1.718  -2.042   5.630  0.00  0.00    -0.260 OA
BRANCH  12  18
ATOM     15  C   UNL     1       0.731  -0.503   1.223  0.00  0.00    +0.104 A 
ATOM     16  N   UNL     1       0.249  -0.798   2.411  0.00  0.00    -0.144 NA
ATOM     17  N   UNL     1       0.986  -1.210   3.352  0.00  0.00    -0.121 NA
ATOM     18  C   UNL     1       2.292  -1.350   3.126  0.00  0.00    +0.218 A 
ATOM     19  S   UNL     1       2.372  -0.836   1.416  0.00  0.00    -0.031 S 
BRANCH  15  21
ATOM     20  C   UNL     1      -0.019   1.526   0.010  0.00  0.00    +0.011 C 
ATOM     21  C   UNL     1       0.002  -0.004   0.002  0.00  0.00    +0.061 C 
ENDBRANCH  15  21
ENDBRANCH  12  18
ENDBRANCH   1  13
TORSDOF 4
