REMARK  Name = ZINC39248156
REMARK  9 active torsions:
REMARK  status: ('A' for Active; 'I' for Inactive)
REMARK    1  A    between atoms: C_1  and  C_2
REMARK    2  A    between atoms: C_2  and  O_3
REMARK    3  A    between atoms: O_3  and  C_4
REMARK    4  A    between atoms: C_4  and  C_6
REMARK    5  A    between atoms: C_8  and  C_27
REMARK    6  A    between atoms: C_14  and  C_16
REMARK    7  A    between atoms: C_16  and  S_17
REMARK    8  A    between atoms: S_17  and  C_18
REMARK    9  A    between atoms: C_24  and  N_26
REMARK                            x       y       z     vdW  Elec       q    Type
REMARK                         _______ _______ _______ _____ _____    ______ ____
ROOT
ATOM      1  C   UNL     1       1.516  -2.381   2.500  0.00  0.00    +0.191 C 
ATOM      2  C   UNL     1       2.187  -3.741   2.168  0.00  0.00    +0.162 C 
ATOM      3  N   UNL     1       2.054  -4.673   3.273  0.00  0.00    -0.253 NA
ATOM      4  C   UNL     1       1.164  -4.494   4.205  0.00  0.00    +0.157 C 
ATOM      5  S   UNL     1       0.330  -2.971   3.783  0.00  0.00    -0.073 S 
ATOM      6  N   UNL     1       0.916  -5.309   5.293  0.00  0.00    -0.265 N 
ATOM      7  C   UNL     1      -0.048  -4.980   6.176  0.00  0.00    +0.229 C 
ATOM      8  O   UNL     1      -0.699  -3.970   6.015  0.00  0.00    -0.275 OA
ATOM      9  H   UNL     1       1.437  -6.117   5.422  0.00  0.00    +0.157 HD
ENDROOT
BRANCH   2  10
ATOM     10  C   UNL     1       3.650  -3.516   1.887  0.00  0.00    -0.021 A 
ATOM     11  C   UNL     1       4.541  -3.374   2.934  0.00  0.00    +0.006 A 
ATOM     12  C   UNL     1       5.883  -3.167   2.676  0.00  0.00    +0.000 A 
ATOM     13  C   UNL     1       6.335  -3.104   1.371  0.00  0.00    +0.000 A 
ATOM     14  C   UNL     1       5.444  -3.247   0.324  0.00  0.00    +0.000 A 
ATOM     15  C   UNL     1       4.102  -3.458   0.582  0.00  0.00    +0.006 A 
ENDBRANCH   2  10
BRANCH   1  16
ATOM     16  C   UNL     1       0.801  -1.808   1.304  0.00  0.00    +0.323 C 
ATOM     17  O   UNL     1       0.324  -2.546   0.475  0.00  0.00    -0.249 OA
BRANCH  16  18
ATOM     18  O   UNL     1       0.693  -0.477   1.160  0.00  0.00    -0.464 OA
BRANCH  18  20
ATOM     19  C   UNL     1      -0.019   1.526   0.010  0.00  0.00    +0.048 C 
ATOM     20  C   UNL     1       0.002  -0.004   0.002  0.00  0.00    +0.229 C 
ENDBRANCH  18  20
ENDBRANCH  16  18
ENDBRANCH   1  16
BRANCH   7  21
ATOM     21  C   UNL     1      -0.318  -5.869   7.362  0.00  0.00    +0.173 C 
BRANCH  21  22
ATOM     22  S   UNL     1      -1.663  -5.162   8.354  0.00  0.00    -0.078 S 
BRANCH  22  23
ATOM     23  C   UNL     1      -1.856  -6.301   9.684  0.00  0.00    +0.171 A 
ATOM     24  N   UNL     1      -2.807  -6.066  10.631  0.00  0.00    -0.302 N 
ATOM     25  H   UNL     1      -3.370  -5.279  10.567  0.00  0.00    +0.171 HD
ATOM     26  C   UNL     1      -2.969  -6.928  11.657  0.00  0.00    +0.254 A 
ATOM     27  O   UNL     1      -3.820  -6.726  12.509  0.00  0.00    -0.268 OA
ATOM     28  C   UNL     1      -2.146  -8.056  11.727  0.00  0.00    +0.113 A 
ATOM     29  C   UNL     1      -1.192  -8.249  10.738  0.00  0.00    +0.124 A 
ATOM     30  N   UNL     1      -1.080  -7.364   9.741  0.00  0.00    -0.209 NA
BRANCH  29  31
ATOM     31  N   UNL     1      -0.364  -9.353  10.780  0.00  0.00    -0.343 N 
ATOM     32  H   UNL     1      -0.449  -9.996  11.501  0.00  0.00    +0.144 HD
ATOM     33  H   UNL     1       0.302  -9.486  10.087  0.00  0.00    +0.144 HD
ENDBRANCH  29  31
ENDBRANCH  22  23
ENDBRANCH  21  22
ENDBRANCH   7  21
TORSDOF 8
