REMARK  Name = ZINC13149612
REMARK  9 active torsions:
REMARK  status: ('A' for Active; 'I' for Inactive)
REMARK    1  A    between atoms: C_1  and  S_2
REMARK    2  A    between atoms: S_2  and  C_3
REMARK    3  A    between atoms: N_5  and  C_9
REMARK    4  A    between atoms: C_12  and  C_15
REMARK    5  A    between atoms: C_15  and  O_17
REMARK    6  A    between atoms: O_17  and  C_18
REMARK    7  A    between atoms: C_18  and  C_19
REMARK    8  A    between atoms: N_21  and  C_22
REMARK    9  A    between atoms: C_23  and  C_27
REMARK                            x       y       z     vdW  Elec       q    Type
REMARK                         _______ _______ _______ _____ _____    ______ ____
ROOT
ATOM      1  C   UNL     1      -2.880   9.886   4.915  0.00  0.00    +0.340 C 
ATOM      2  O   UNL     1      -3.919   9.755   5.532  0.00  0.00    -0.245 OA
ENDROOT
BRANCH   1   6
ATOM      3  C   UNL     1      -1.458   6.730   2.458  0.00  0.00    +0.067 A 
ATOM      4  C   UNL     1      -0.729   7.912   2.561  0.00  0.00    +0.028 A 
ATOM      5  C   UNL     1      -1.191   8.939   3.352  0.00  0.00    +0.017 A 
ATOM      6  C   UNL     1      -2.386   8.790   4.062  0.00  0.00    +0.059 A 
ATOM      7  C   UNL     1      -3.113   7.599   3.960  0.00  0.00    +0.017 A 
ATOM      8  C   UNL     1      -2.649   6.578   3.162  0.00  0.00    +0.028 A 
BRANCH   3  11
ATOM      9  C   UNL     1      -0.741   3.411   1.254  0.00  0.00    +0.157 A 
ATOM     10  N   UNL     1      -1.186   4.381   2.013  0.00  0.00    -0.151 NA
ATOM     11  N   UNL     1      -0.990   5.694   1.651  0.00  0.00    -0.217 N 
ATOM     12  C   UNL     1      -0.338   5.960   0.492  0.00  0.00    +0.150 A 
ATOM     13  S   UNL     1       0.046   7.469  -0.218  0.00  0.00    -0.023 S 
ATOM     14  S   UNL     1       0.011   4.309  -0.094  0.00  0.00    -0.034 S 
BRANCH   9  16
ATOM     15  C   UNL     1      -0.013   1.086   0.008  0.00  0.00    +0.092 C 
ATOM     16  S   UNL     1      -0.860   1.669   1.497  0.00  0.00    -0.100 S 
ENDBRANCH   9  16
ENDBRANCH   3  11
ENDBRANCH   1   6
BRANCH   1  17
ATOM     17  O   UNL     1      -2.179  11.033   5.012  0.00  0.00    -0.452 OA
BRANCH  17  18
ATOM     18  C   UNL     1      -2.725  12.068   5.871  0.00  0.00    +0.328 C 
BRANCH  18  19
ATOM     19  C   UNL     1      -1.813  13.267   5.855  0.00  0.00    +0.255 C 
ATOM     20  O   UNL     1      -0.802  13.251   5.185  0.00  0.00    -0.272 OA
ATOM     21  N   UNL     1      -2.120  14.358   6.584  0.00  0.00    -0.277 N 
ATOM     22  H   UNL     1      -2.929  14.371   7.120  0.00  0.00    +0.155 HD
BRANCH  21  23
ATOM     23  C   UNL     1      -1.280  15.461   6.569  0.00  0.00    +0.084 A 
ATOM     24  C   UNL     1      -1.428  16.668   7.243  0.00  0.00    +0.065 A 
ATOM     25  C   UNL     1      -0.390  17.652   7.047  0.00  0.00    +0.022 A 
ATOM     26  C   UNL     1       0.622  17.322   6.225  0.00  0.00    +0.048 A 
ATOM     27  S   UNL     1       0.203  15.673   5.701  0.00  0.00    -0.081 S 
BRANCH  24  28
ATOM     28  C   UNL     1      -2.580  16.927   8.113  0.00  0.00    +0.244 C 
ATOM     29  O   UNL     1      -3.436  16.075   8.259  0.00  0.00    -0.270 OA
ATOM     30  N   UNL     1      -2.690  18.110   8.751  0.00  0.00    -0.325 N 
ATOM     31  H   UNL     1      -2.007  18.789   8.634  0.00  0.00    +0.145 HD
ATOM     32  H   UNL     1      -3.452  18.281   9.326  0.00  0.00    +0.145 HD
ENDBRANCH  24  28
ENDBRANCH  21  23
ENDBRANCH  18  19
ENDBRANCH  17  18
ENDBRANCH   1  17
TORSDOF 8
