REMARK  Name = ZINC01410749
REMARK  5 active torsions:
REMARK  status: ('A' for Active; 'I' for Inactive)
REMARK    1  A    between atoms: C_1  and  O_2
REMARK    2  A    between atoms: O_2  and  C_3
REMARK    3  A    between atoms: C_5  and  C_11
REMARK    4  A    between atoms: C_8  and  O_9
REMARK    5  A    between atoms: N_12  and  N_13
REMARK                            x       y       z     vdW  Elec       q    Type
REMARK                         _______ _______ _______ _____ _____    ______ ____
ROOT
ATOM      1  C   UNL     1      -1.201  -0.638   0.010  0.00  0.00    +0.162 A 
ATOM      2  C   UNL     1      -2.370   0.099   0.019  0.00  0.00    +0.060 A 
ATOM      3  C   UNL     1      -3.605  -0.555   0.027  0.00  0.00    +0.012 A 
ATOM      4  C   UNL     1      -3.652  -1.952   0.026  0.00  0.00    +0.030 A 
ATOM      5  C   UNL     1      -2.480  -2.681   0.016  0.00  0.00    +0.065 A 
ATOM      6  C   UNL     1      -1.255  -2.030   0.003  0.00  0.00    +0.160 A 
ATOM      7 BR   UNL     1      -5.320  -2.843   0.037  0.00  0.00    -0.050 Br
ENDROOT
BRANCH   1   9
ATOM      8  C   UNL     1      -0.017   1.425   0.010  0.00  0.00    +0.277 C 
ATOM      9  O   UNL     1       0.002  -0.004   0.002  0.00  0.00    -0.491 OA
ENDBRANCH   1   9
BRANCH   6  10
ATOM     10  O   UNL     1      -0.104  -2.753  -0.012  0.00  0.00    -0.503 OA
ATOM     11  H   UNL     1       0.238  -2.967   0.867  0.00  0.00    +0.292 HD
ENDBRANCH   6  10
BRANCH   3  12
ATOM     12  C   UNL     1      -4.855   0.227   0.038  0.00  0.00    +0.141 C 
ATOM     13  N   UNL     1      -6.001  -0.383   0.045  0.00  0.00    -0.179 NA
BRANCH  13  14
ATOM     14  N   UNL     1      -7.189   0.360   0.055  0.00  0.00    -0.249 N 
ATOM     15  C   UNL     1      -8.398  -0.283   0.063  0.00  0.00    +0.187 C 
ATOM     16  N   UNL     1      -9.528   0.423   0.072  0.00  0.00    -0.370 N 
ATOM     17  N   UNL     1      -8.445  -1.615   0.061  0.00  0.00    -0.370 N 
ATOM     18  H   UNL     1      -7.155   1.329   0.056  0.00  0.00    +0.192 HD
ATOM     19  H   UNL     1      -9.495   1.392   0.074  0.00  0.00    +0.159 HD
ATOM     20  H   UNL     1      -7.622  -2.129   0.054  0.00  0.00    +0.159 HD
ATOM     21  H   UNL     1      -9.301  -2.070   0.066  0.00  0.00    +0.159 HD
ATOM     22  H   UNL     1     -10.385  -0.033   0.077  0.00  0.00    +0.159 HD
ENDBRANCH  13  14
ENDBRANCH   3  12
TORSDOF 4
