REMARK  Name = ZINC63907364
REMARK  6 active torsions:
REMARK  status: ('A' for Active; 'I' for Inactive)
REMARK    1  A    between atoms: C_1  and  C_2
REMARK    2  A    between atoms: C_5  and  N_8
REMARK    3  A    between atoms: C_9  and  C_11
REMARK    4  A    between atoms: C_11  and  N_12
REMARK    5  A    between atoms: C_15  and  C_20
REMARK    6  A    between atoms: C_20  and  C_21
REMARK                            x       y       z     vdW  Elec       q    Type
REMARK                         _______ _______ _______ _____ _____    ______ ____
ROOT
ATOM      1  N   UNL     1      -1.650  -3.200   5.959  0.00  0.00    -0.216 N 
ATOM      2  C   UNL     1      -2.389  -4.285   6.265  0.00  0.00    +0.244 C 
ATOM      3  O   UNL     1      -3.382  -4.680   5.692  0.00  0.00    -0.273 OA
ATOM      4  C   UNL     1      -1.721  -4.909   7.474  0.00  0.00    +0.165 C 
ATOM      5  N   UNL     1      -0.575  -4.019   7.733  0.00  0.00    -0.287 N 
ATOM      6  C   UNL     1      -0.616  -3.056   6.795  0.00  0.00    +0.310 C 
ATOM      7  O   UNL     1       0.195  -2.153   6.718  0.00  0.00    -0.252 OA
ATOM      8  H   UNL     1       0.082  -4.112   8.441  0.00  0.00    +0.151 HD
ENDROOT
BRANCH   1   9
ATOM      9  C   UNL     1      -1.941  -2.293   4.845  0.00  0.00    +0.213 C 
BRANCH   9  11
ATOM     10  N   UNL     1      -1.358  -2.098   2.449  0.00  0.00    -0.311 N 
ATOM     11  C   UNL     1      -1.235  -2.779   3.606  0.00  0.00    +0.231 C 
ATOM     12  O   UNL     1      -0.557  -3.784   3.648  0.00  0.00    -0.274 OA
ATOM     13  H   UNL     1      -1.901  -1.294   2.415  0.00  0.00    +0.149 HD
BRANCH  10  18
ATOM     14  C   UNL     1      -0.019   1.526   0.010  0.00  0.00    +0.007 C 
ATOM     15  C   UNL     1       0.002  -0.004   0.002  0.00  0.00    -0.014 C 
ATOM     16  C   UNL     1      -1.433  -0.534   0.013  0.00  0.00    +0.005 C 
ATOM     17  C   UNL     1      -1.413  -2.063   0.004  0.00  0.00    +0.022 C 
ATOM     18  C   UNL     1      -0.673  -2.570   1.244  0.00  0.00    +0.073 C 
ATOM     19  C   UNL     1       0.763  -2.041   1.233  0.00  0.00    +0.022 C 
ATOM     20  C   UNL     1       0.742  -0.511   1.242  0.00  0.00    +0.005 C 
ENDBRANCH  10  18
ENDBRANCH   9  11
ENDBRANCH   1   9
BRANCH   4  21
ATOM     21  C   UNL     1      -1.244  -6.326   7.153  0.00  0.00    +0.065 C 
BRANCH  21  22
ATOM     22  C   UNL     1      -0.695  -6.966   8.402  0.00  0.00    -0.039 C 
ATOM     23  C   UNL     1      -1.357  -7.777   9.259  0.00  0.00    -0.001 A 
ATOM     24  C   UNL     1      -2.734  -8.285   9.284  0.00  0.00    +0.010 A 
ATOM     25  C   UNL     1      -3.116  -9.097  10.295  0.00  0.00    +0.001 A 
ATOM     26  C   UNL     1      -2.231  -9.466  11.318  0.00  0.00    +0.002 A 
ATOM     27  C   UNL     1      -0.951  -9.040  11.364  0.00  0.00    +0.026 A 
ATOM     28  C   UNL     1      -0.443  -8.181  10.351  0.00  0.00    +0.043 A 
ATOM     29  N   UNL     1       0.739  -7.641  10.176  0.00  0.00    -0.380 N 
ATOM     30  C   UNL     1       0.710  -6.838   8.948  0.00  0.00    +0.144 C 
ATOM     31  H   UNL     1       1.506  -7.757  10.758  0.00  0.00    +0.160 HD
ENDBRANCH  21  22
ENDBRANCH   4  21
TORSDOF 5
