REMARK  Name = ZINC20356666
REMARK  4 active torsions:
REMARK  status: ('A' for Active; 'I' for Inactive)
REMARK    1  A    between atoms: C_5  and  C_7
REMARK    2  A    between atoms: C_7  and  O_9
REMARK    3  A    between atoms: O_9  and  C_10
REMARK    4  A    between atoms: C_13  and  C_16
REMARK                            x       y       z     vdW  Elec       q    Type
REMARK                         _______ _______ _______ _____ _____    ______ ____
ROOT
ATOM      1  C   UNL     1      -0.024  -8.446   0.033  0.00  0.00    +0.024 C 
ATOM      2  C   UNL     1      -1.222  -9.108  -0.110  0.00  0.00    +0.081 C 
ATOM      3  C   UNL     1      -2.520  -8.378  -0.177  0.00  0.00    +0.153 C 
ATOM      4  N   UNL     1      -2.651  -7.195  -0.716  0.00  0.00    -0.283 NA
ATOM      5  N   UNL     1      -3.594  -9.090   0.396  0.00  0.00    -0.150 N 
ATOM      6  C   UNL     1      -3.477 -10.460   0.477  0.00  0.00    +0.182 C 
ATOM      7  N   UNL     1      -2.436 -11.193   0.171  0.00  0.00    -0.152 NA
ATOM      8  C   UNL     1      -1.292 -10.587  -0.210  0.00  0.00    +0.273 C 
ATOM      9  O   UNL     1      -0.342 -11.234  -0.621  0.00  0.00    -0.268 OA
ATOM     10  S   UNL     1      -5.064 -10.934   1.112  0.00  0.00    -0.018 S 
ATOM     11  C   UNL     1      -5.735  -9.290   1.321  0.00  0.00    +0.182 C 
ATOM     12  N   UNL     1      -4.762  -8.536   0.875  0.00  0.00    -0.149 NA
ATOM     13  N   UNL     1      -6.968  -8.912   1.825  0.00  0.00    -0.304 N 
ATOM     14  C   UNL     1      -7.348  -7.492   1.913  0.00  0.00    +0.135 C 
ATOM     15  C   UNL     1      -8.727  -7.319   1.268  0.00  0.00    +0.179 C 
ATOM     16  O   UNL     1      -9.638  -8.257   1.846  0.00  0.00    -0.377 OA
ATOM     17  C   UNL     1      -9.290  -9.625   1.623  0.00  0.00    +0.179 C 
ATOM     18  C   UNL     1      -7.941  -9.917   2.282  0.00  0.00    +0.135 C 
ATOM     19  H   UNL     1      -3.503  -6.733  -0.672  0.00  0.00    +0.188 HD
ENDROOT
BRANCH   1  23
ATOM     20  C   UNL     1       0.014  -4.288   0.824  0.00  0.00    +0.132 A 
ATOM     21  C   UNL     1       0.947  -4.835  -0.050  0.00  0.00    +0.047 A 
ATOM     22  C   UNL     1       0.940  -6.181  -0.310  0.00  0.00    +0.011 A 
ATOM     23  C   UNL     1      -0.011  -7.007   0.307  0.00  0.00    -0.024 A 
ATOM     24  C   UNL     1      -0.949  -6.449   1.187  0.00  0.00    +0.011 A 
ATOM     25  C   UNL     1      -0.929  -5.102   1.444  0.00  0.00    +0.047 A 
BRANCH  20  26
ATOM     26  O   UNL     1       0.026  -2.955   1.078  0.00  0.00    -0.422 OA
BRANCH  26  27
ATOM     27  C   UNL     1      -0.505  -2.130   0.154  0.00  0.00    +0.347 C 
ATOM     28  O   UNL     1      -0.895  -2.576  -0.906  0.00  0.00    -0.244 OA
BRANCH  27  33
ATOM     29  C   UNL     1      -0.272   1.184   1.902  0.00  0.00    +0.001 A 
ATOM     30  C   UNL     1      -0.817   2.030   0.952  0.00  0.00    +0.003 A 
ATOM     31  C   UNL     1      -1.262   1.529  -0.257  0.00  0.00    +0.039 A 
ATOM     32  C   UNL     1      -1.164   0.175  -0.525  0.00  0.00    +0.137 A 
ATOM     33  C   UNL     1      -0.613  -0.684   0.431  0.00  0.00    +0.094 A 
ATOM     34  C   UNL     1      -0.167  -0.167   1.650  0.00  0.00    +0.018 A 
ATOM     35  F   UNL     1      -1.599  -0.315  -1.707  0.00  0.00    -0.205 F 
ENDBRANCH  27  33
ENDBRANCH  26  27
ENDBRANCH  20  26
ENDBRANCH   1  23
TORSDOF 4
