REMARK  Name = ZINC32716879
REMARK  5 active torsions:
REMARK  status: ('A' for Active; 'I' for Inactive)
REMARK    1  A    between atoms: C_6  and  C_7
REMARK    2  A    between atoms: C_10  and  C_12
REMARK    3  A    between atoms: C_12  and  N_13
REMARK    4  A    between atoms: C_14  and  C_16
REMARK    5  A    between atoms: C_16  and  N_17
REMARK                            x       y       z     vdW  Elec       q    Type
REMARK                         _______ _______ _______ _____ _____    ______ ____
ROOT
ATOM      1  C   UNL     1      -1.252   2.205   0.020  0.00  0.00    +0.178 C 
ENDROOT
BRANCH   1   5
ATOM      2  C   UNL     1       2.095   0.742  -0.014  0.00  0.00    +0.135 A 
ATOM      3  C   UNL     1       1.355  -0.399  -0.013  0.00  0.00    +0.050 A 
ATOM      4  C   UNL     1       0.002  -0.004   0.002  0.00  0.00    +0.047 A 
ATOM      5  C   UNL     1      -0.016   1.343   0.009  0.00  0.00    +0.123 A 
ATOM      6  O   UNL     1       1.250   1.790  -0.000  0.00  0.00    -0.458 OA
BRANCH   2  12
ATOM      7  C   UNL     1       4.333  -0.352  -0.036  0.00  0.00    +0.013 A 
ATOM      8  C   UNL     1       5.710  -0.275  -0.054  0.00  0.00    +0.021 A 
ATOM      9  C   UNL     1       6.337   0.960  -0.054  0.00  0.00    +0.041 A 
ATOM     10  C   UNL     1       5.587   2.123  -0.040  0.00  0.00    +0.021 A 
ATOM     11  C   UNL     1       4.209   2.059  -0.028  0.00  0.00    +0.013 A 
ATOM     12  C   UNL     1       3.571   0.818  -0.028  0.00  0.00    +0.017 A 
ATOM     13 CL   UNL     1       8.071   1.049  -0.070  0.00  0.00    -0.084 Cl
ENDBRANCH   2  12
ENDBRANCH   1   5
BRANCH   1  14
ATOM     14  N   UNL     1      -1.646   2.477   1.405  0.00  0.00    -0.307 N 
ATOM     15  C   UNL     1      -2.732   3.233   1.661  0.00  0.00    +0.231 C 
ATOM     16  O   UNL     1      -3.383   3.689   0.745  0.00  0.00    -0.274 OA
ATOM     17  H   UNL     1      -1.056   2.063   2.236  0.00  0.00    +0.149 HD
BRANCH  15  18
ATOM     18  C   UNL     1      -3.137   3.513   3.085  0.00  0.00    +0.213 C 
BRANCH  18  19
ATOM     19  N   UNL     1      -4.339   4.351   3.095  0.00  0.00    -0.216 N 
ATOM     20  C   UNL     1      -4.322   5.698   3.108  0.00  0.00    +0.241 C 
ATOM     21  O   UNL     1      -3.347   6.418   3.113  0.00  0.00    -0.273 OA
ATOM     22  C   UNL     1      -5.776   6.126   3.113  0.00  0.00    +0.202 C 
ATOM     23  N   UNL     1      -6.512   4.850   3.110  0.00  0.00    -0.290 N 
ATOM     24  C   UNL     1      -5.588   3.873   3.099  0.00  0.00    +0.309 C 
ATOM     25  O   UNL     1      -5.858   2.688   3.094  0.00  0.00    -0.252 OA
ATOM     26  H   UNL     1      -7.612   4.850   3.116  0.00  0.00    +0.151 HD
ENDBRANCH  18  19
ENDBRANCH  15  18
ENDBRANCH   1  14
TORSDOF 5
