REMARK  Name = ZINC51596050
REMARK  6 active torsions:
REMARK  status: ('A' for Active; 'I' for Inactive)
REMARK    1  A    between atoms: C_1  and  C_2
REMARK    2  A    between atoms: C_5  and  C_16
REMARK    3  A    between atoms: C_6  and  N_8
REMARK    4  A    between atoms: C_9  and  C_15
REMARK    5  A    between atoms: C_10  and  N_14
REMARK    6  A    between atoms: C_11  and  C_13
REMARK                            x       y       z     vdW  Elec       q    Type
REMARK                         _______ _______ _______ _____ _____    ______ ____
ROOT
ATOM      1  N   UNL     1       0.235  -2.809   2.405  0.00  0.00    -0.234 N 
ATOM      2  C   UNL     1      -0.019  -4.140   2.546  0.00  0.00    +0.063 A 
ATOM      3  C   UNL     1      -0.155  -4.392   3.872  0.00  0.00    +0.069 A 
ATOM      4  C   UNL     1       0.021  -3.182   4.561  0.00  0.00    +0.081 A 
ATOM      5  N   UNL     1       0.259  -2.239   3.685  0.00  0.00    -0.169 NA
ATOM      6  C   UNL     1      -0.046  -3.001   6.055  0.00  0.00    +0.069 C 
ATOM      7  C   UNL     1      -0.130  -5.149   1.431  0.00  0.00    +0.067 C 
ENDROOT
BRANCH   1  13
ATOM      8  C   UNL     1       2.469  -2.541  -1.962  0.00  0.00    +0.044 C 
ATOM      9  C   UNL     1       1.518  -1.977  -0.938  0.00  0.00    -0.048 A 
ATOM     10  C   UNL     1       0.852  -0.790  -1.197  0.00  0.00    +0.005 A 
ATOM     11  C   UNL     1      -0.021  -0.265  -0.268  0.00  0.00    +0.021 A 
ATOM     12  C   UNL     1      -0.235  -0.931   0.941  0.00  0.00    +0.077 A 
ATOM     13  C   UNL     1       0.441  -2.133   1.200  0.00  0.00    +0.083 A 
ATOM     14  C   UNL     1       1.311  -2.649   0.251  0.00  0.00    +0.032 A 
BRANCH  12  15
ATOM     15  C   UNL     1      -1.140  -0.391   1.911  0.00  0.00    +0.101 C 
ATOM     16  N   UNL     1      -1.858   0.038   2.680  0.00  0.00    -0.191 NA
ENDBRANCH  12  15
ENDBRANCH   1  13
BRANCH   3  17
ATOM     17  N   UNL     1      -0.424  -5.645   4.454  0.00  0.00    -0.355 N 
ATOM     18  H   UNL     1      -0.530  -6.428   3.892  0.00  0.00    +0.142 HD
ATOM     19  H   UNL     1      -0.504  -5.726   5.417  0.00  0.00    +0.142 HD
ENDBRANCH   3  17
TORSDOF 3
