REMARK  Name = ZINC12701711
REMARK  8 active torsions:
REMARK  status: ('A' for Active; 'I' for Inactive)
REMARK    1  A    between atoms: C_1  and  N_2
REMARK    2  A    between atoms: N_2  and  C_3
REMARK    3  A    between atoms: C_3  and  C_4
REMARK    4  A    between atoms: C_6  and  C_9
REMARK    5  A    between atoms: C_15  and  C_17
REMARK    6  A    between atoms: C_17  and  C_18
REMARK    7  A    between atoms: C_25  and  C_26
REMARK    8  A    between atoms: C_25  and  N_55
REMARK                            x       y       z     vdW  Elec       q    Type
REMARK                         _______ _______ _______ _____ _____    ______ ____
ROOT
ATOM      1  C   UNL     1      -2.343   1.283   2.991  0.00  0.00    +0.090 C 
ENDROOT
BRANCH   1   2
ATOM      2  C   UNL     1      -3.496   0.343   3.346  0.00  0.00    +0.028 C 
ATOM      3  C   UNL     1      -4.336   0.099   2.124  0.00  0.00    +0.200 C 
ATOM      4  O   UNL     1      -4.599   1.038   1.403  0.00  0.00    -0.278 OA
ATOM      5  N   UNL     1      -4.804  -1.110   1.797  0.00  0.00    -0.318 N 
ATOM      6  C   UNL     1      -4.515  -2.310   2.576  0.00  0.00    +0.085 C 
ATOM      7  C   UNL     1      -4.031  -1.923   3.975  0.00  0.00    -0.058 C 
ATOM      8  H   UNL     1      -5.362  -1.193   1.007  0.00  0.00    +0.149 HD
ATOM      9  N   UNL     1      -2.942  -0.937   3.825  0.00  0.00    +0.391 N 
ATOM     10  H   UNL     1      -2.264  -1.288   3.138  0.00  0.00    -0.080 HD
BRANCH   9  11
ATOM     11  C   UNL     1      -2.254  -0.738   5.121  0.00  0.00    -0.042 C 
BRANCH  11  12
ATOM     12  C   UNL     1      -1.797  -2.074   5.648  0.00  0.00    -0.061 A 
ATOM     13  C   UNL     1      -2.622  -2.809   6.480  0.00  0.00    +0.002 A 
ATOM     14  C   UNL     1      -2.206  -4.036   6.959  0.00  0.00    +0.003 A 
ATOM     15  C   UNL     1      -0.960  -4.527   6.616  0.00  0.00    +0.038 A 
ATOM     16  C   UNL     1      -0.131  -3.790   5.787  0.00  0.00    +0.124 A 
ATOM     17  C   UNL     1      -0.551  -2.563   5.303  0.00  0.00    +0.040 A 
ATOM     18  F   UNL     1       1.087  -4.268   5.451  0.00  0.00    -0.205 F 
ENDBRANCH  11  12
ENDBRANCH   9  11
ENDBRANCH   1   2
BRANCH   1  21
ATOM     19  C   UNL     1      -0.195   2.706   1.812  0.00  0.00    +0.132 C 
ATOM     20  N   UNL     1      -0.450   1.324   1.400  0.00  0.00    -0.296 N 
ATOM     21  C   UNL     1      -1.467   0.633   1.951  0.00  0.00    +0.215 C 
ATOM     22  O   UNL     1      -1.678  -0.511   1.609  0.00  0.00    -0.276 OA
BRANCH  20  23
ATOM     23  C   UNL     1       0.402   0.692   0.388  0.00  0.00    +0.206 C 
BRANCH  23  24
ATOM     24  C   UNL     1      -0.176   0.941  -0.981  0.00  0.00    +0.245 A 
ATOM     25  N   UNL     1       0.091   1.955  -1.766  0.00  0.00    -0.190 NA
ATOM     26  C   UNL     1      -0.652   1.759  -2.878  0.00  0.00    +0.202 A 
ATOM     27  N   UNL     1      -1.319   0.649  -2.706  0.00  0.00    -0.056 NA
ATOM     28  O   UNL     1      -1.053   0.165  -1.626  0.00  0.00    -0.336 OA
BRANCH  26  29
ATOM     29  C   UNL     1      -0.700   2.641  -4.072  0.00  0.00    +0.025 A 
ATOM     30  C   UNL     1       0.062   3.810  -4.132  0.00  0.00    +0.031 A 
ATOM     31  C   UNL     1      -0.009   4.598  -5.263  0.00  0.00    +0.111 A 
ATOM     32  N   UNL     1      -0.789   4.265  -6.273  0.00  0.00    -0.263 NA
ATOM     33  C   UNL     1      -1.528   3.172  -6.254  0.00  0.00    +0.111 A 
ATOM     34  C   UNL     1      -1.513   2.326  -5.164  0.00  0.00    +0.031 A 
ENDBRANCH  26  29
ENDBRANCH  23  24
ENDBRANCH  20  23
ENDBRANCH   1  21
TORSDOF 7
