REMARK  Name = ZINC09281351
REMARK  7 active torsions:
REMARK  status: ('A' for Active; 'I' for Inactive)
REMARK    1  A    between atoms: C_1  and  C_2
REMARK    2  A    between atoms: C_2  and  C_3
REMARK    3  A    between atoms: C_2  and  C_4
REMARK    4  A    between atoms: C_11  and  N_33
REMARK    5  A    between atoms: C_12  and  C_31
REMARK    6  A    between atoms: N_20  and  C_23
REMARK    7  A    between atoms: C_23  and  C_24
REMARK                            x       y       z     vdW  Elec       q    Type
REMARK                         _______ _______ _______ _____ _____    ______ ____
ROOT
ATOM      1  C   UNL     1       0.731  -0.503   1.223  0.00  0.00    +0.074 A 
ATOM      2  C   UNL     1       0.201  -1.322   2.210  0.00  0.00    +0.062 A 
ATOM      3  C   UNL     1       1.177  -1.549   3.142  0.00  0.00    +0.223 A 
ATOM      4  N   UNL     1       2.277  -0.890   2.744  0.00  0.00    -0.246 N 
ATOM      5  H   UNL     1       3.129  -0.868   3.208  0.00  0.00    +0.192 HD
ATOM      6  N   UNL     1       1.979  -0.244   1.534  0.00  0.00    -0.175 NA
ATOM      7  O   UNL     1       0.974  -2.318   4.240  0.00  0.00    -0.423 OA
ATOM      8  C   UNL     1      -0.134  -3.085   4.279  0.00  0.00    +0.201 C 
ATOM      9  C   UNL     1      -1.172  -2.948   3.421  0.00  0.00    +0.110 C 
ATOM     10  C   UNL     1      -1.178  -1.908   2.334  0.00  0.00    +0.145 C 
ATOM     11  C   UNL     1      -2.197  -0.847   2.600  0.00  0.00    -0.001 A 
ATOM     12  C   UNL     1      -2.339   0.045   3.642  0.00  0.00    +0.007 A 
ATOM     13  C   UNL     1      -3.420   0.917   3.582  0.00  0.00    +0.000 A 
ATOM     14  C   UNL     1      -4.309   0.890   2.526  0.00  0.00    +0.002 A 
ATOM     15  C   UNL     1      -4.173  -0.005   1.476  0.00  0.00    +0.024 A 
ATOM     16  C   UNL     1      -3.092  -0.887   1.524  0.00  0.00    +0.041 A 
ATOM     17  N   UNL     1      -2.721  -1.871   0.625  0.00  0.00    -0.265 N 
ATOM     18  C   UNL     1      -1.607  -2.524   1.021  0.00  0.00    +0.241 C 
ATOM     19  O   UNL     1      -1.055  -3.431   0.435  0.00  0.00    -0.274 OA
ENDROOT
BRANCH   1  21
ATOM     20  C   UNL     1      -0.019   1.526   0.010  0.00  0.00    +0.014 C 
ATOM     21  C   UNL     1       0.002  -0.004   0.002  0.00  0.00    +0.034 C 
ATOM     22  C   UNL     1       0.718  -0.497  -1.257  0.00  0.00    +0.014 C 
ENDBRANCH   1  21
BRANCH   8  23
ATOM     23  N   UNL     1      -0.214  -4.060   5.242  0.00  0.00    -0.328 N 
ATOM     24  H   UNL     1       0.515  -4.181   5.870  0.00  0.00    +0.145 HD
ATOM     25  H   UNL     1      -0.999  -4.627   5.293  0.00  0.00    +0.145 HD
ENDBRANCH   8  23
BRANCH   9  26
ATOM     26  C   UNL     1      -2.300  -3.820   3.551  0.00  0.00    +0.102 C 
ATOM     27  N   UNL     1      -3.195  -4.512   3.655  0.00  0.00    -0.191 NA
ENDBRANCH   9  26
BRANCH  17  28
ATOM     28  C   UNL     1      -3.450  -2.171  -0.610  0.00  0.00    +0.148 C 
BRANCH  28  29
ATOM     29  C   UNL     1      -2.900  -1.331  -1.734  0.00  0.00    -0.030 A 
ATOM     30  C   UNL     1      -3.433  -0.082  -1.988  0.00  0.00    +0.006 A 
ATOM     31  C   UNL     1      -2.929   0.688  -3.019  0.00  0.00    +0.020 A 
ATOM     32  C   UNL     1      -1.890   0.208  -3.797  0.00  0.00    +0.041 A 
ATOM     33  C   UNL     1      -1.356  -1.042  -3.541  0.00  0.00    +0.020 A 
ATOM     34  C   UNL     1      -1.858  -1.809  -2.506  0.00  0.00    +0.006 A 
ATOM     35 CL   UNL     1      -1.256   1.175  -5.092  0.00  0.00    -0.084 Cl
ENDBRANCH  28  29
ENDBRANCH  17  28
TORSDOF 5
