REMARK  Name = ZINC66779098
REMARK  10 active torsions:
REMARK  status: ('A' for Active; 'I' for Inactive)
REMARK    1  A    between atoms: C_1  and  C_2
REMARK    2  A    between atoms: C_2  and  C_3
REMARK    3  A    between atoms: C_5  and  C_8
REMARK    4  A    between atoms: C_8  and  C_9
REMARK    5  A    between atoms: N_11  and  C_12
REMARK    6  A    between atoms: C_12  and  C_13
REMARK    7  A    between atoms: C_14  and  C_22
REMARK    8  A    between atoms: C_16  and  C_21
REMARK    9  A    between atoms: C_18  and  O_19
REMARK   10  A    between atoms: O_19  and  C_20
REMARK                            x       y       z     vdW  Elec       q    Type
REMARK                         _______ _______ _______ _____ _____    ______ ____
ROOT
ATOM      1  C   UNL     1      -0.305  -0.369   5.275  0.00  0.00    +0.219 C 
ATOM      2  O   UNL     1      -0.381   0.649   4.619  0.00  0.00    -0.275 OA
ATOM      3  N   UNL     1      -0.897  -0.437   6.484  0.00  0.00    -0.311 N 
ATOM      4  H   UNL     1      -0.836  -1.250   7.008  0.00  0.00    +0.149 HD
ENDROOT
BRANCH   1   5
ATOM      5  C   UNL     1       0.451  -1.556   4.738  0.00  0.00    +0.151 C 
BRANCH   5   8
ATOM      6  C   UNL     1       0.731  -0.503   1.223  0.00  0.00    +0.078 A 
ATOM      7  N   UNL     1       0.240  -0.793   2.402  0.00  0.00    -0.248 NA
ATOM      8  C   UNL     1       1.012  -1.223   3.380  0.00  0.00    +0.057 A 
ATOM      9  C   UNL     1       2.336  -1.351   3.107  0.00  0.00    +0.070 A 
ATOM     10  S   UNL     1       2.372  -0.831   1.400  0.00  0.00    -0.080 S 
BRANCH   6  12
ATOM     11  C   UNL     1      -0.019   1.526   0.010  0.00  0.00    +0.011 C 
ATOM     12  C   UNL     1       0.002  -0.004   0.002  0.00  0.00    +0.059 C 
ENDBRANCH   6  12
ENDBRANCH   5   8
ENDBRANCH   1   5
BRANCH   3  13
ATOM     13  C   UNL     1      -1.632   0.718   7.006  0.00  0.00    +0.145 C 
BRANCH  13  14
ATOM     14  C   UNL     1      -2.193   0.384   8.364  0.00  0.00    +0.034 A 
ATOM     15  C   UNL     1      -3.451  -0.181   8.484  0.00  0.00    -0.039 A 
ATOM     16  C   UNL     1      -3.928  -0.472   9.755  0.00  0.00    +0.027 A 
ATOM     17  C   UNL     1      -3.139  -0.191  10.853  0.00  0.00    +0.042 A 
ATOM     18  N   UNL     1      -1.944   0.349  10.707  0.00  0.00    -0.218 NA
ATOM     19  C   UNL     1      -1.453   0.634   9.512  0.00  0.00    +0.220 A 
ATOM     20  C   UNL     1      -3.650  -0.504  12.235  0.00  0.00    +0.066 C 
ATOM     21  C   UNL     1      -4.284  -0.473   7.263  0.00  0.00    +0.044 C 
BRANCH  19  22
ATOM     22  O   UNL     1      -0.216   1.183   9.408  0.00  0.00    -0.479 OA
ATOM     23  C   UNL     1       0.495   1.415  10.625  0.00  0.00    +0.279 C 
ENDBRANCH  19  22
ENDBRANCH  13  14
ENDBRANCH   3  13
TORSDOF 6
