REMARK  Name = ZINC20029555
REMARK  5 active torsions:
REMARK  status: ('A' for Active; 'I' for Inactive)
REMARK    1  A    between atoms: C_1  and  C_2
REMARK    2  A    between atoms: C_2  and  N_3
REMARK    3  A    between atoms: C_14  and  C_17
REMARK    4  A    between atoms: N_19  and  C_20
REMARK    5  A    between atoms: C_25  and  C_26
REMARK                            x       y       z     vdW  Elec       q    Type
REMARK                         _______ _______ _______ _____ _____    ______ ____
ROOT
ATOM      1  N   UNL     1       0.716  -0.515   1.153  0.00  0.00    -0.300 NA
ATOM      2  C   UNL     1      -0.025  -0.170   2.373  0.00  0.00    +0.103 C 
ATOM      3  C   UNL     1       0.825  -0.522   3.599  0.00  0.00    +0.123 C 
ATOM      4  N   UNL     1       1.233  -1.931   3.496  0.00  0.00    -0.303 N 
ATOM      5  C   UNL     1       1.859  -2.385   2.245  0.00  0.00    +0.123 C 
ATOM      6  C   UNL     1       0.968  -1.960   1.073  0.00  0.00    +0.103 C 
ATOM      7  C   UNL     1       1.036  -2.794   4.532  0.00  0.00    +0.175 C 
ATOM      8  N   UNL     1       0.466  -2.366   5.647  0.00  0.00    -0.151 NA
ATOM      9  C   UNL     1       0.268  -3.157   6.693  0.00  0.00    +0.241 C 
ATOM     10  O   UNL     1      -0.284  -2.712   7.680  0.00  0.00    -0.274 OA
ATOM     11  C   UNL     1       0.714  -4.596   6.682  0.00  0.00    +0.129 C 
ATOM     12  C   UNL     1       0.725  -5.102   5.233  0.00  0.00    +0.168 C 
ATOM     13  N   UNL     1       1.422  -4.099   4.415  0.00  0.00    -0.307 N 
ATOM     14  H   UNL     1       2.137  -4.357   3.812  0.00  0.00    +0.149 HD
ENDROOT
BRANCH  12  15
ATOM     15  C   UNL     1       1.448  -6.422   5.157  0.00  0.00    +0.238 C 
ATOM     16  O   UNL     1       2.600  -6.461   4.779  0.00  0.00    -0.273 OA
ATOM     17  N   UNL     1       0.815  -7.559   5.509  0.00  0.00    -0.284 N 
ATOM     18  H   UNL     1      -0.077  -7.520   5.886  0.00  0.00    +0.155 HD
BRANCH  17  19
ATOM     19  C   UNL     1       1.446  -8.795   5.330  0.00  0.00    +0.036 A 
ATOM     20  C   UNL     1       2.438  -8.937   4.368  0.00  0.00    +0.023 A 
ATOM     21  C   UNL     1       3.058 -10.158   4.193  0.00  0.00    +0.002 A 
ATOM     22  C   UNL     1       2.693 -11.239   4.975  0.00  0.00    +0.000 A 
ATOM     23  C   UNL     1       1.706 -11.101   5.933  0.00  0.00    +0.005 A 
ATOM     24  C   UNL     1       1.086  -9.880   6.117  0.00  0.00    -0.029 A 
ATOM     25  C   UNL     1       0.015  -9.729   7.167  0.00  0.00    +0.045 C 
ENDBRANCH  17  19
ENDBRANCH  12  15
BRANCH   1  27
ATOM     26  C   UNL     1      -0.015   1.493  -0.044  0.00  0.00    +0.020 C 
ATOM     27  C   UNL     1       0.010  -0.037  -0.044  0.00  0.00    +0.081 C 
ENDBRANCH   1  27
TORSDOF 3
