REMARK  Name = ZINC07203942
REMARK  7 active torsions:
REMARK  status: ('A' for Active; 'I' for Inactive)
REMARK    1  A    between atoms: C_1  and  C_2
REMARK    2  A    between atoms: C_8  and  C_10
REMARK    3  A    between atoms: C_10  and  C_12
REMARK    4  A    between atoms: C_10  and  O_13
REMARK    5  A    between atoms: O_13  and  C_14
REMARK    6  A    between atoms: C_14  and  C_16
REMARK    7  A    between atoms: C_21  and  N_22
REMARK                            x       y       z     vdW  Elec       q    Type
REMARK                         _______ _______ _______ _____ _____    ______ ____
ROOT
ATOM      1  O   UNL     1       3.568   1.861  -0.096  0.00  0.00    -0.449 OA
ENDROOT
BRANCH   1   2
ATOM      2  C   UNL     1       2.484   0.904   0.037  0.00  0.00    +0.259 C 
ATOM      3  C   UNL     1       2.667   0.102   1.327  0.00  0.00    +0.062 C 
BRANCH   2  11
ATOM      4  C   UNL     1      -3.504   4.480   0.244  0.00  0.00    +0.089 C 
ATOM      5  C   UNL     1      -2.741   3.182   0.206  0.00  0.00    +0.136 A 
ATOM      6  C   UNL     1      -1.397   3.035   0.173  0.00  0.00    +0.091 A 
ATOM      7  C   UNL     1      -1.206   1.627   0.145  0.00  0.00    +0.168 A 
ATOM      8  N   UNL     1      -2.401   1.097   0.158  0.00  0.00    -0.063 NA
ATOM      9  O   UNL     1      -3.261   1.946   0.196  0.00  0.00    -0.358 OA
ATOM     10  N   UNL     1       0.011   0.948   0.106  0.00  0.00    -0.265 N 
ATOM     11  C   UNL     1       1.169   1.638   0.086  0.00  0.00    +0.259 C 
ATOM     12  O   UNL     1       1.151   2.851   0.106  0.00  0.00    -0.271 OA
ATOM     13  H   UNL     1       0.025  -0.022   0.089  0.00  0.00    +0.156 HD
ENDBRANCH   2  11
ENDBRANCH   1   2
BRANCH   1  14
ATOM     14  C   UNL     1       4.670   1.449  -0.752  0.00  0.00    +0.342 C 
ATOM     15  O   UNL     1       4.724   0.320  -1.200  0.00  0.00    -0.245 OA
BRANCH  14  16
ATOM     16  C   UNL     1       5.810   2.366  -0.926  0.00  0.00    +0.081 A 
ATOM     17  C   UNL     1       5.707   3.700  -0.522  0.00  0.00    +0.032 A 
ATOM     18  C   UNL     1       6.777   4.553  -0.687  0.00  0.00    +0.019 A 
ATOM     19  C   UNL     1       7.958   4.093  -1.252  0.00  0.00    +0.017 A 
ATOM     20  C   UNL     1       8.075   2.780  -1.655  0.00  0.00    +0.024 A 
ATOM     21  C   UNL     1       7.008   1.904  -1.492  0.00  0.00    +0.039 A 
ATOM     22 BR   UNL     1       6.635   6.357  -0.140  0.00  0.00    -0.050 Br
BRANCH  21  23
ATOM     23  N   UNL     1       7.126   0.579  -1.893  0.00  0.00    -0.357 N 
ATOM     24  H   UNL     1       6.356  -0.009  -1.855  0.00  0.00    +0.142 HD
ATOM     25  H   UNL     1       7.979   0.242  -2.209  0.00  0.00    +0.142 HD
ENDBRANCH  21  23
ENDBRANCH  14  16
ENDBRANCH   1  14
TORSDOF 5
