REMARK  Name = ZINC04923828
REMARK  9 active torsions:
REMARK  status: ('A' for Active; 'I' for Inactive)
REMARK    1  A    between atoms: C_1  and  C_2
REMARK    2  A    between atoms: C_6  and  C_9
REMARK    3  A    between atoms: C_7  and  O_8
REMARK    4  A    between atoms: C_9  and  O_11
REMARK    5  A    between atoms: O_11  and  C_12
REMARK    6  A    between atoms: C_12  and  C_13
REMARK    7  A    between atoms: N_15  and  C_16
REMARK    8  A    between atoms: C_21  and  C_26
REMARK    9  A    between atoms: C_23  and  C_25
REMARK                            x       y       z     vdW  Elec       q    Type
REMARK                         _______ _______ _______ _____ _____    ______ ____
ROOT
ATOM      1  C   UNL     1      -6.252   3.105   3.405  0.00  0.00    +0.328 C 
ENDROOT
BRANCH   1   2
ATOM      2  C   UNL     1      -6.768   3.587   4.736  0.00  0.00    +0.251 C 
ATOM      3  O   UNL     1      -6.002   3.744   5.663  0.00  0.00    -0.272 OA
ATOM      4  N   UNL     1      -8.081   3.845   4.896  0.00  0.00    -0.309 N 
ATOM      5  H   UNL     1      -8.694   3.720   4.155  0.00  0.00    +0.149 HD
BRANCH   4   6
ATOM      6  C   UNL     1      -8.583   4.314   6.190  0.00  0.00    +0.076 C 
ATOM      7  C   UNL     1      -8.858   3.113   7.096  0.00  0.00    +0.022 C 
ATOM      8  C   UNL     1      -9.904   2.209   6.441  0.00  0.00    +0.002 C 
ATOM      9  C   UNL     1     -11.199   2.996   6.231  0.00  0.00    +0.003 C 
ATOM     10  C   UNL     1     -10.924   4.198   5.324  0.00  0.00    -0.009 C 
ATOM     11  C   UNL     1      -9.877   5.102   5.980  0.00  0.00    +0.009 C 
ATOM     12  C   UNL     1      -9.602   6.303   5.073  0.00  0.00    +0.009 C 
ATOM     13  C   UNL     1     -12.218   4.985   5.114  0.00  0.00    +0.008 C 
ENDBRANCH   4   6
ENDBRANCH   1   2
BRANCH   1  14
ATOM     14  O   UNL     1      -4.816   2.901   3.488  0.00  0.00    -0.452 OA
BRANCH  14  15
ATOM     15  C   UNL     1      -4.195   2.466   2.373  0.00  0.00    +0.343 C 
ATOM     16  O   UNL     1      -4.835   2.264   1.361  0.00  0.00    -0.245 OA
BRANCH  15  22
ATOM     17  C   UNL     1      -0.013   1.086   0.008  0.00  0.00    +0.047 C 
ATOM     18  C   UNL     1      -0.718   1.572   1.248  0.00  0.00    -0.008 A 
ATOM     19  C   UNL     1       0.001   1.805   2.404  0.00  0.00    +0.007 A 
ATOM     20  C   UNL     1      -0.638   2.252   3.549  0.00  0.00    +0.001 A 
ATOM     21  C   UNL     1      -1.999   2.468   3.546  0.00  0.00    +0.018 A 
ATOM     22  C   UNL     1      -2.739   2.237   2.384  0.00  0.00    +0.101 A 
ATOM     23  C   UNL     1      -2.087   1.790   1.225  0.00  0.00    +0.134 A 
BRANCH  23  24
ATOM     24  O   UNL     1      -2.794   1.566   0.089  0.00  0.00    -0.506 OA
ATOM     25  H   UNL     1      -3.136   0.665   0.010  0.00  0.00    +0.292 HD
ENDBRANCH  23  24
ENDBRANCH  15  22
ENDBRANCH  14  15
ENDBRANCH   1  14
TORSDOF 6
