REMARK  Name = ZINC28026024
REMARK  11 active torsions:
REMARK  status: ('A' for Active; 'I' for Inactive)
REMARK    1  A    between atoms: C_1  and  C_2
REMARK    2  A    between atoms: C_5  and  N_20
REMARK    3  A    between atoms: C_7  and  S_8
REMARK    4  A    between atoms: S_8  and  N_11
REMARK    5  A    between atoms: N_11  and  C_12
REMARK    6  A    between atoms: C_17  and  O_18
REMARK    7  A    between atoms: O_18  and  C_19
REMARK    8  A    between atoms: C_21  and  C_23
REMARK    9  A    between atoms: C_23  and  C_24
REMARK   10  A    between atoms: C_24  and  C_26
REMARK   11  A    between atoms: C_24  and  N_31
REMARK                            x       y       z     vdW  Elec       q    Type
REMARK                         _______ _______ _______ _____ _____    ______ ____
ROOT
ATOM      1  C   UNL     1      -0.383   3.770   1.216  0.00  0.00    +0.046 C 
ATOM      2  C   UNL     1       0.806   3.351   2.040  0.00  0.00    -0.024 A 
ATOM      3  C   UNL     1       0.904   3.748   3.362  0.00  0.00    +0.007 A 
ATOM      4  C   UNL     1       1.992   3.365   4.120  0.00  0.00    +0.023 A 
ATOM      5  C   UNL     1       2.990   2.582   3.555  0.00  0.00    +0.035 A 
ATOM      6  C   UNL     1       2.887   2.181   2.230  0.00  0.00    +0.052 A 
ATOM      7  C   UNL     1       1.798   2.571   1.475  0.00  0.00    +0.113 A 
ENDROOT
BRANCH   5   8
ATOM      8  N   UNL     1       4.094   2.192   4.322  0.00  0.00    -0.285 N 
ATOM      9  C   UNL     1       4.604   3.032   5.244  0.00  0.00    +0.219 C 
ATOM     10  O   UNL     1       4.056   4.090   5.470  0.00  0.00    -0.275 OA
ATOM     11  H   UNL     1       4.546   1.200   4.171  0.00  0.00    +0.155 HD
BRANCH   9  12
ATOM     12  C   UNL     1       5.855   2.655   5.996  0.00  0.00    +0.123 C 
BRANCH  12  13
ATOM     13  C   UNL     1       6.217   3.774   6.975  0.00  0.00    +0.120 C 
BRANCH  13  14
ATOM     14  N   UNL     1       6.564   4.985   6.227  0.00  0.00    -0.292 N 
ATOM     15  C   UNL     1       6.428   6.195   6.804  0.00  0.00    +0.298 C 
ATOM     16  O   UNL     1       6.018   6.282   7.946  0.00  0.00    -0.253 OA
ATOM     17  N   UNL     1       6.747   7.309   6.116  0.00  0.00    -0.313 N 
ATOM     18  H   UNL     1       6.935   4.906   5.195  0.00  0.00    +0.151 HD
ATOM     19  H   UNL     1       6.637   8.297   6.587  0.00  0.00    +0.146 HD
ATOM     20  H   UNL     1       7.119   7.231   5.084  0.00  0.00    +0.146 HD
ENDBRANCH  13  14
BRANCH  13  21
ATOM     21  C   UNL     1       7.394   3.346   7.813  0.00  0.00    +0.010 A 
ATOM     22  C   UNL     1       7.411   2.864   9.080  0.00  0.00    +0.013 A 
ATOM     23  C   UNL     1       8.623   2.529   9.654  0.00  0.00    +0.008 A 
ATOM     24  C   UNL     1       9.760   2.703   8.937  0.00  0.00    +0.045 A 
ATOM     25  S   UNL     1       9.131   3.351   7.397  0.00  0.00    -0.100 S 
ENDBRANCH  13  21
ENDBRANCH  12  13
ENDBRANCH   9  12
ENDBRANCH   5   8
BRANCH   7  26
ATOM     26  S   UNL     1       1.669   2.068  -0.209  0.00  0.00    +0.073 S 
ATOM     27  O   UNL     1       0.362   1.534  -0.374  0.00  0.00    -0.150 OA
ATOM     28  O   UNL     1       2.841   1.318  -0.500  0.00  0.00    -0.150 OA
BRANCH  26  29
ATOM     29  N   UNL     1       1.741   3.438  -1.136  0.00  0.00    -0.213 N 
ATOM     30  H   UNL     1       0.899   3.703  -1.792  0.00  0.00    +0.174 HD
BRANCH  29  31
ATOM     31  C   UNL     1       2.873   4.259  -1.085  0.00  0.00    +0.090 A 
ATOM     32  C   UNL     1       4.132   3.698  -0.921  0.00  0.00    +0.028 A 
ATOM     33  C   UNL     1       5.249   4.510  -0.876  0.00  0.00    +0.002 A 
ATOM     34  C   UNL     1       5.116   5.882  -0.984  0.00  0.00    +0.004 A 
ATOM     35  C   UNL     1       3.864   6.448  -1.143  0.00  0.00    +0.047 A 
ATOM     36  C   UNL     1       2.740   5.641  -1.194  0.00  0.00    +0.142 A 
BRANCH  36  37
ATOM     37  O   UNL     1       1.508   6.197  -1.349  0.00  0.00    -0.493 OA
ATOM     38  C   UNL     1       1.447   7.621  -1.453  0.00  0.00    +0.277 C 
ENDBRANCH  36  37
ENDBRANCH  29  31
ENDBRANCH  26  29
ENDBRANCH   7  26
TORSDOF 9
