REMARK  Name = ZINC00917441
REMARK  7 active torsions:
REMARK  status: ('A' for Active; 'I' for Inactive)
REMARK    1  A    between atoms: C_1  and  C_2
REMARK    2  A    between atoms: C_5  and  C_8
REMARK    3  A    between atoms: N_10  and  N_11
REMARK    4  A    between atoms: C_12  and  C_14
REMARK    5  A    between atoms: C_14  and  C_16
REMARK    6  A    between atoms: C_14  and  S_17
REMARK    7  A    between atoms: S_17  and  C_18
REMARK                            x       y       z     vdW  Elec       q    Type
REMARK                         _______ _______ _______ _____ _____    ______ ____
ROOT
ATOM      1  C   UNL     1      -0.729   1.579   1.267  0.00  0.00    +0.137 C 
ATOM      2  C   UNL     1      -0.013   1.086   0.008  0.00  0.00    +0.029 C 
ENDROOT
BRANCH   1   4
ATOM      3  N   UNL     1       1.052   1.768   2.973  0.00  0.00    -0.233 N 
ATOM      4  C   UNL     1       0.000   1.080   2.488  0.00  0.00    +0.242 C 
ATOM      5  O   UNL     1      -0.360   0.059   3.034  0.00  0.00    -0.273 OA
ATOM      6  H   UNL     1       1.340   2.585   2.536  0.00  0.00    +0.173 HD
BRANCH   3   9
ATOM      7  C   UNL     1       2.782   1.993   4.593  0.00  0.00    +0.260 C 
ATOM      8  O   UNL     1       3.143   3.017   4.046  0.00  0.00    -0.269 OA
ATOM      9  N   UNL     1       1.730   1.304   4.108  0.00  0.00    -0.230 N 
ATOM     10  H   UNL     1       1.442   0.488   4.545  0.00  0.00    +0.173 HD
BRANCH   7  15
ATOM     11  C   UNL     1       5.564   0.088   9.256  0.00  0.00    +0.044 C 
ATOM     12  C   UNL     1       4.835   0.587   8.035  0.00  0.00    -0.050 A 
ATOM     13  C   UNL     1       5.250   1.752   7.414  0.00  0.00    +0.004 A 
ATOM     14  C   UNL     1       4.587   2.214   6.296  0.00  0.00    +0.013 A 
ATOM     15  C   UNL     1       3.497   1.503   5.791  0.00  0.00    +0.038 A 
ATOM     16  C   UNL     1       3.081   0.331   6.425  0.00  0.00    +0.013 A 
ATOM     17  C   UNL     1       3.756  -0.123   7.540  0.00  0.00    +0.004 A 
ENDBRANCH   7  15
ENDBRANCH   3   9
ENDBRANCH   1   4
BRANCH   1  18
ATOM     18  S   UNL     1      -2.427   0.953   1.280  0.00  0.00    -0.093 S 
BRANCH  18  19
ATOM     19  C   UNL     1      -3.072   1.788  -0.131  0.00  0.00    +0.109 A 
ATOM     20  C   UNL     1      -4.424   1.592  -0.530  0.00  0.00    +0.043 A 
ATOM     21  C   UNL     1      -5.451   0.755   0.093  0.00  0.00    -0.025 A 
ATOM     22  C   UNL     1      -6.669   0.750  -0.484  0.00  0.00    -0.004 A 
ATOM     23  S   UNL     1      -6.530   1.849  -1.869  0.00  0.00    -0.073 S 
ATOM     24  C   UNL     1      -4.830   2.315  -1.669  0.00  0.00    +0.113 A 
ATOM     25  N   UNL     1      -3.997   3.107  -2.316  0.00  0.00    -0.228 NA
ATOM     26  C   UNL     1      -2.752   3.246  -1.901  0.00  0.00    +0.223 A 
ATOM     27  N   UNL     1      -2.304   2.603  -0.838  0.00  0.00    -0.229 NA
ATOM     28  C   UNL     1      -7.878  -0.019  -0.046  0.00  0.00    +0.043 C 
ATOM     29  C   UNL     1      -7.431  -1.099   0.949  0.00  0.00    +0.005 C 
ATOM     30  C   UNL     1      -6.506  -0.457   1.988  0.00  0.00    +0.005 C 
ATOM     31  C   UNL     1      -5.174  -0.086   1.336  0.00  0.00    +0.037 C 
ENDBRANCH  18  19
ENDBRANCH   1  18
TORSDOF 5
