REMARK  Name = ZINC10211225
REMARK  11 active torsions:
REMARK  status: ('A' for Active; 'I' for Inactive)
REMARK    1  A    between atoms: C_1  and  C_2
REMARK    2  A    between atoms: C_2  and  C_3
REMARK    3  A    between atoms: C_3  and  N_4
REMARK    4  A    between atoms: C_5  and  N_31
REMARK    5  A    between atoms: C_6  and  C_13
REMARK    6  A    between atoms: C_13  and  C_15
REMARK    7  A    between atoms: C_15  and  S_16
REMARK    8  A    between atoms: S_16  and  C_17
REMARK    9  A    between atoms: N_22  and  C_23
REMARK   10  A    between atoms: C_27  and  C_30
REMARK   11  A    between atoms: C_28  and  C_29
REMARK                            x       y       z     vdW  Elec       q    Type
REMARK                         _______ _______ _______ _____ _____    ______ ____
ROOT
ATOM      1  C   UNL     1       3.334  10.258  -0.608  0.00  0.00    +0.182 C 
ATOM      2  O   UNL     1       4.495  10.611  -0.674  0.00  0.00    -0.291 OA
ENDROOT
BRANCH   1   5
ATOM      3  N   UNL     1       1.549  13.476  -0.821  0.00  0.00    -0.281 N 
ATOM      4  C   UNL     1       2.582  12.583  -0.819  0.00  0.00    +0.116 A 
ATOM      5  C   UNL     1       2.303  11.221  -0.613  0.00  0.00    +0.120 A 
ATOM      6  C   UNL     1       0.903  10.832  -0.397  0.00  0.00    +0.266 A 
ATOM      7  O   UNL     1       0.603   9.668  -0.209  0.00  0.00    -0.267 OA
ATOM      8  N   UNL     1      -0.044  11.793  -0.412  0.00  0.00    -0.274 N 
ATOM      9  H   UNL     1      -1.002  11.545  -0.267  0.00  0.00    +0.173 HD
ATOM     10  C   UNL     1       0.283  13.079  -0.620  0.00  0.00    +0.331 A 
ATOM     11  O   UNL     1      -0.601  13.914  -0.626  0.00  0.00    -0.246 OA
BRANCH   4  12
ATOM     12  N   UNL     1       3.860  13.004  -1.019  0.00  0.00    -0.344 N 
ATOM     13  H   UNL     1       4.596  12.376  -0.941  0.00  0.00    +0.144 HD
ATOM     14  H   UNL     1       4.037  13.932  -1.239  0.00  0.00    +0.144 HD
ENDBRANCH   4  12
BRANCH   3  15
ATOM     15  C   UNL     1       1.829  14.897  -1.041  0.00  0.00    +0.128 C 
BRANCH  15  17
ATOM     16  C   UNL     1       2.386  17.063   0.074  0.00  0.00    +0.005 C 
ATOM     17  C   UNL     1       2.094  15.579   0.303  0.00  0.00    +0.018 C 
ENDBRANCH  15  17
ENDBRANCH   3  15
ENDBRANCH   1   5
BRANCH   1  18
ATOM     18  C   UNL     1       2.997   8.792  -0.521  0.00  0.00    +0.156 C 
BRANCH  18  19
ATOM     19  S   UNL     1       4.527   7.817  -0.536  0.00  0.00    -0.089 S 
BRANCH  19  20
ATOM     20  C   UNL     1       3.970   6.149  -0.430  0.00  0.00    +0.160 A 
ATOM     21  N   UNL     1       2.739   5.681  -0.354  0.00  0.00    -0.133 NA
ATOM     22  N   UNL     1       2.526   4.324  -0.282  0.00  0.00    -0.125 NA
ATOM     23  C   UNL     1       3.553   3.498  -0.279  0.00  0.00    +0.187 A 
ATOM     24  S   UNL     1       4.923   4.638  -0.394  0.00  0.00    -0.024 S 
ATOM     25  N   UNL     1       3.566   2.109  -0.210  0.00  0.00    -0.292 N 
ATOM     26  H   UNL     1       4.410   1.635  -0.147  0.00  0.00    +0.154 HD
BRANCH  25  27
ATOM     27  C   UNL     1       2.364   1.397  -0.232  0.00  0.00    +0.036 A 
ATOM     28  C   UNL     1       1.152   2.075  -0.190  0.00  0.00    +0.023 A 
ATOM     29  C   UNL     1      -0.034   1.369  -0.211  0.00  0.00    +0.002 A 
ATOM     30  C   UNL     1      -0.016  -0.013  -0.273  0.00  0.00    +0.004 A 
ATOM     31  C   UNL     1       1.188  -0.691  -0.314  0.00  0.00    -0.046 A 
ATOM     32  C   UNL     1       2.378   0.009  -0.293  0.00  0.00    -0.026 A 
ATOM     33  C   UNL     1       3.690  -0.731  -0.337  0.00  0.00    +0.046 C 
ATOM     34  C   UNL     1       1.202  -2.197  -0.380  0.00  0.00    +0.044 C 
ENDBRANCH  25  27
ENDBRANCH  19  20
ENDBRANCH  18  19
ENDBRANCH   1  18
TORSDOF 8
