REMARK  Name = ZINC38743803
REMARK  2 active torsions:
REMARK  status: ('A' for Active; 'I' for Inactive)
REMARK    1  A    between atoms: C_1  and  C_2
REMARK    2  A    between atoms: C_4  and  C_8
REMARK                            x       y       z     vdW  Elec       q    Type
REMARK                         _______ _______ _______ _____ _____    ______ ____
ROOT
ATOM      1  C   UNL     1      -0.976  -2.937  -1.266  0.00  0.00    +0.206 C 
ATOM      2  N   UNL     1      -2.456  -2.964  -1.351  0.00  0.00    -0.231 NA
ATOM      3  N   UNL     1      -2.858  -4.375  -1.214  0.00  0.00    -0.224 NA
ATOM      4  C   UNL     1      -1.723  -4.971  -0.481  0.00  0.00    +0.241 C 
ATOM      5  N   UNL     1      -0.556  -4.355  -1.196  0.00  0.00    -0.204 N 
ATOM      6  N   UNL     1       0.396  -5.268  -1.595  0.00  0.00    -0.158 NA
ATOM      7  C   UNL     1       0.188  -6.549  -1.612  0.00  0.00    +0.172 C 
ATOM      8  S   UNL     1      -1.487  -6.733  -0.919  0.00  0.00    -0.048 S 
ATOM      9  N   UNL     1       1.046  -7.551  -2.046  0.00  0.00    -0.337 N 
ATOM     10  H   UNL     1      -2.870  -2.398  -0.626  0.00  0.00    +0.143 HD
ATOM     11  H   UNL     1      -2.972  -4.808  -2.118  0.00  0.00    +0.144 HD
ATOM     12  H   UNL     1       1.924  -7.322  -2.390  0.00  0.00    +0.144 HD
ATOM     13  H   UNL     1       0.768  -8.479  -2.006  0.00  0.00    +0.144 HD
ENDROOT
BRANCH   1  17
ATOM     14  C   UNL     1      -0.018   1.503   0.010  0.00  0.00    +0.067 C 
ATOM     15  C   UNL     1       0.002  -0.004   0.002  0.00  0.00    +0.058 C 
ATOM     16  C   UNL     1      -1.086  -0.777   0.003  0.00  0.00    +0.029 C 
ATOM     17  C   UNL     1      -0.531  -2.190  -0.007  0.00  0.00    +0.190 C 
ATOM     18  N   UNL     1       0.926  -1.973  -0.013  0.00  0.00    -0.177 NA
ATOM     19  N   UNL     1       1.125  -0.756  -0.013  0.00  0.00    -0.159 NA
ENDBRANCH   1  17
TORSDOF 1
