REMARK  Name = ZINC41632527
REMARK  6 active torsions:
REMARK  status: ('A' for Active; 'I' for Inactive)
REMARK    1  A    between atoms: C_1  and  C_2
REMARK    2  A    between atoms: C_5  and  S_8
REMARK    3  A    between atoms: S_8  and  C_9
REMARK    4  A    between atoms: C_9  and  C_10
REMARK    5  A    between atoms: N_12  and  C_13
REMARK    6  A    between atoms: C_16  and  N_20
REMARK                            x       y       z     vdW  Elec       q    Type
REMARK                         _______ _______ _______ _____ _____    ______ ____
ROOT
ATOM      1  C   UNL     1      -6.450   3.555  -0.875  0.00  0.00    +0.228 C 
ATOM      2  O   UNL     1      -6.678   4.732  -1.060  0.00  0.00    -0.275 OA
ATOM      3  N   UNL     1      -7.427   2.643  -1.053  0.00  0.00    -0.282 N 
ATOM      4  H   UNL     1      -7.228   1.697  -0.977  0.00  0.00    +0.155 HD
ENDROOT
BRANCH   3   5
ATOM      5  C   UNL     1      -8.732   3.063  -1.350  0.00  0.00    +0.071 A 
ATOM      6  C   UNL     1      -9.132   3.207  -2.672  0.00  0.00    +0.065 A 
ATOM      7  C   UNL     1     -10.418   3.620  -2.964  0.00  0.00    +0.044 A 
ATOM      8  C   UNL     1     -11.310   3.893  -1.935  0.00  0.00    +0.027 A 
ATOM      9  C   UNL     1     -10.910   3.751  -0.613  0.00  0.00    +0.044 A 
ATOM     10  C   UNL     1      -9.627   3.331  -0.321  0.00  0.00    +0.065 A 
ATOM     11 CL   UNL     1      -9.129   3.145   1.332  0.00  0.00    -0.082 Cl
ATOM     12 CL   UNL     1      -8.017   2.866  -3.958  0.00  0.00    -0.082 Cl
BRANCH   8  13
ATOM     13  N   UNL     1     -12.612   4.312  -2.231  0.00  0.00    -0.358 N 
ATOM     14  H   UNL     1     -12.891   4.412  -3.155  0.00  0.00    +0.142 HD
ATOM     15  H   UNL     1     -13.235   4.503  -1.513  0.00  0.00    +0.142 HD
ENDBRANCH   8  13
ENDBRANCH   3   5
BRANCH   1  16
ATOM     16  C   UNL     1      -5.076   3.111  -0.445  0.00  0.00    +0.173 C 
BRANCH  16  17
ATOM     17  S   UNL     1      -3.993   4.559  -0.293  0.00  0.00    -0.077 S 
BRANCH  17  22
ATOM     18  C   UNL     1      -0.240   1.153   1.105  0.00  0.00    +0.090 C 
ATOM     19  C   UNL     1      -0.912   2.463   0.782  0.00  0.00    +0.149 A 
ATOM     20  N   UNL     1      -2.185   2.608   0.413  0.00  0.00    -0.206 NA
ATOM     21  H   UNL     1      -1.198   5.540   0.386  0.00  0.00    +0.191 HD
ATOM     22  C   UNL     1      -2.446   3.883   0.209  0.00  0.00    +0.185 A 
ATOM     23  N   UNL     1      -1.314   4.580   0.452  0.00  0.00    -0.254 N 
ATOM     24  N   UNL     1      -0.343   3.637   0.826  0.00  0.00    -0.157 NA
ENDBRANCH  17  22
ENDBRANCH  16  17
ENDBRANCH   1  16
TORSDOF 5
