REMARK  Name = ZINC12145921
REMARK  8 active torsions:
REMARK  status: ('A' for Active; 'I' for Inactive)
REMARK    1  A    between atoms: C_1  and  C_2
REMARK    2  A    between atoms: C_2  and  C_3
REMARK    3  A    between atoms: C_2  and  C_4
REMARK    4  A    between atoms: C_2  and  C_5
REMARK    5  A    between atoms: C_8  and  C_11
REMARK    6  A    between atoms: C_13  and  C_29
REMARK    7  A    between atoms: N_17  and  C_22
REMARK    8  A    between atoms: C_22  and  C_23
REMARK                            x       y       z     vdW  Elec       q    Type
REMARK                         _______ _______ _______ _____ _____    ______ ____
ROOT
ATOM      1  C   UNL     1       0.602   5.622   0.025  0.00  0.00    +0.163 A 
ATOM      2  N   UNL     1      -0.721   5.647   0.038  0.00  0.00    -0.220 NA
ATOM      3  C   UNL     1      -1.429   4.517   0.039  0.00  0.00    +0.154 A 
ATOM      4  C   UNL     1      -0.744   3.301   0.027  0.00  0.00    +0.117 A 
ATOM      5  C   UNL     1       0.662   3.321   0.014  0.00  0.00    +0.166 A 
ATOM      6  N   UNL     1       1.288   4.485   0.014  0.00  0.00    -0.208 NA
ATOM      7  N   UNL     1       1.077   2.002   0.003  0.00  0.00    -0.274 N 
ATOM      8  C   UNL     1      -0.014   1.212   0.009  0.00  0.00    +0.329 A 
ATOM      9  O   UNL     1       0.002  -0.004   0.002  0.00  0.00    -0.246 OA
ATOM     10  N   UNL     1      -1.127   1.972   0.018  0.00  0.00    -0.303 N 
ATOM     11  H   UNL     1      -2.039   1.644   0.019  0.00  0.00    +0.171 HD
ENDROOT
BRANCH   1  15
ATOM     12  C   UNL     1       2.727   9.304   0.023  0.00  0.00    -0.042 A 
ATOM     13  C   UNL     1       1.344   9.307   0.036  0.00  0.00    +0.005 A 
ATOM     14  C   UNL     1       0.649   8.115   0.037  0.00  0.00    +0.012 A 
ATOM     15  C   UNL     1       1.343   6.907   0.024  0.00  0.00    +0.019 A 
ATOM     16  C   UNL     1       2.737   6.910   0.017  0.00  0.00    +0.012 A 
ATOM     17  C   UNL     1       3.422   8.108   0.010  0.00  0.00    +0.005 A 
BRANCH  12  19
ATOM     18  C   UNL     1       3.123  11.406   1.278  0.00  0.00    +0.015 C 
ATOM     19  C   UNL     1       3.481  10.610   0.022  0.00  0.00    -0.013 C 
ATOM     20  C   UNL     1       4.985  10.330   0.006  0.00  0.00    +0.015 C 
ATOM     21  C   UNL     1       3.099  11.418  -1.220  0.00  0.00    +0.015 C 
ENDBRANCH  12  19
ENDBRANCH   1  15
BRANCH   3  22
ATOM     22  C   UNL     1      -2.909   4.552   0.053  0.00  0.00    +0.262 C 
ATOM     23  O   UNL     1      -3.542   3.514   0.054  0.00  0.00    -0.269 OA
ATOM     24  N   UNL     1      -3.556   5.734   0.065  0.00  0.00    -0.324 N 
ATOM     25  H   UNL     1      -3.051   6.563   0.065  0.00  0.00    +0.145 HD
ATOM     26  H   UNL     1      -4.526   5.757   0.074  0.00  0.00    +0.145 HD
ENDBRANCH   3  22
BRANCH   7  27
ATOM     27  C   UNL     1       2.467   1.541  -0.014  0.00  0.00    +0.160 C 
BRANCH  27  28
ATOM     28  C   UNL     1       2.937   1.389  -1.462  0.00  0.00    +0.138 C 
ATOM     29  C   UNL     1       4.359   0.789  -1.491  0.00  0.00    +0.035 C 
ATOM     30  C   UNL     1       5.027   1.586  -2.646  0.00  0.00    +0.031 C 
ATOM     31  C   UNL     1       4.343   2.967  -2.487  0.00  0.00    +0.160 C 
ATOM     32  O   UNL     1       2.994   2.674  -2.092  0.00  0.00    -0.375 OA
ENDBRANCH  27  28
ENDBRANCH   7  27
TORSDOF 5
