REMARK  Name = ZINC50674809
REMARK  6 active torsions:
REMARK  status: ('A' for Active; 'I' for Inactive)
REMARK    1  A    between atoms: C_1  and  C_2
REMARK    2  A    between atoms: C_2  and  C_4
REMARK    3  A    between atoms: C_2  and  N_16
REMARK    4  A    between atoms: C_4  and  N_5
REMARK    5  A    between atoms: N_5  and  S_6
REMARK    6  A    between atoms: S_6  and  C_9
REMARK                            x       y       z     vdW  Elec       q    Type
REMARK                         _______ _______ _______ _____ _____    ______ ____
ROOT
ATOM      1  S   UNL     1      -2.272  -3.302  -0.286  0.00  0.00    -0.061 S 
ATOM      2  O   UNL     1      -2.938  -3.266   0.969  0.00  0.00    -0.191 OA
ATOM      3  O   UNL     1      -2.943  -3.047  -1.512  0.00  0.00    -0.191 OA
ENDROOT
BRANCH   1   4
ATOM      4  C   UNL     1      -1.553  -4.905  -0.429  0.00  0.00    +0.070 A 
ATOM      5  C   UNL     1      -1.261  -5.443  -1.675  0.00  0.00    +0.042 A 
ATOM      6  C   UNL     1      -0.698  -6.701  -1.753  0.00  0.00    +0.086 A 
ATOM      7  N   UNL     1      -0.436  -7.394  -0.661  0.00  0.00    -0.350 N 
ATOM      8  C   UNL     1      -0.701  -6.916   0.545  0.00  0.00    +0.095 A 
ATOM      9  C   UNL     1      -1.263  -5.653   0.698  0.00  0.00    +0.066 A 
ATOM     10  N   UNL     1      -0.409  -7.681   1.669  0.00  0.00    -0.345 N 
ATOM     11  H   UNL     1      -0.013  -8.560   1.567  0.00  0.00    +0.144 HD
ATOM     12  H   UNL     1      -0.601  -7.335   2.554  0.00  0.00    +0.144 HD
ATOM     13  H   UNL     1      -0.040  -8.276  -0.744  0.00  0.00    +0.166 HD
ENDBRANCH   1   4
BRANCH   1  14
ATOM     14  N   UNL     1      -1.027  -2.214  -0.192  0.00  0.00    +0.466 NA
BRANCH  14  15
ATOM     15  C   UNL     1      -1.313  -0.783  -0.065  0.00  0.00    -0.132 C 
BRANCH  15  17
ATOM     16  C   UNL     1      -0.295   1.478   0.236  0.00  0.00    -0.015 C 
ATOM     17  C   UNL     1       0.002  -0.004   0.002  0.00  0.00    -0.094 C 
BRANCH  17  18
ATOM     18  N   UNL     1       0.821  -0.520   1.107  0.00  0.00    +0.380 N 
ATOM     19  C   UNL     1       0.147  -0.248   2.382  0.00  0.00    -0.079 C 
ATOM     20  C   UNL     1       0.957  -0.855   3.530  0.00  0.00    -0.019 C 
ATOM     21  C   UNL     1       2.355  -0.231   3.547  0.00  0.00    -0.004 C 
ATOM     22  C   UNL     1       3.020  -0.456   2.187  0.00  0.00    -0.019 C 
ATOM     23  C   UNL     1       2.134   0.136   1.088  0.00  0.00    -0.079 C 
ATOM     24  H   UNL     1       0.942  -1.516   0.998  0.00  0.00    -0.082 HD
ENDBRANCH  17  18
ENDBRANCH  15  17
ENDBRANCH  14  15
ENDBRANCH   1  14
TORSDOF 5
