REMARK  Name = ZINC04185480
REMARK  9 active torsions:
REMARK  status: ('A' for Active; 'I' for Inactive)
REMARK    1  A    between atoms: C_1  and  C_2
REMARK    2  A    between atoms: C_4  and  O_32
REMARK    3  A    between atoms: C_6  and  O_31
REMARK    4  A    between atoms: C_8  and  O_30
REMARK    5  A    between atoms: C_10  and  N_13
REMARK    6  A    between atoms: N_13  and  C_14
REMARK    7  A    between atoms: C_16  and  N_27
REMARK    8  A    between atoms: C_18  and  S_20
REMARK    9  A    between atoms: S_20  and  C_21
REMARK                            x       y       z     vdW  Elec       q    Type
REMARK                         _______ _______ _______ _____ _____    ______ ____
ROOT
ATOM      1  C   UNL     1       0.429   5.757   0.010  0.00  0.00    +0.032 A 
ATOM      2  C   UNL     1       0.566   5.060  -1.185  0.00  0.00    +0.055 A 
ATOM      3  C   UNL     1       0.565   5.741  -2.387  0.00  0.00    +0.129 A 
ATOM      4  C   UNL     1       0.440   7.117  -2.406  0.00  0.00    +0.048 A 
ATOM      5  C   UNL     1       0.308   7.820  -1.214  0.00  0.00    +0.017 A 
ATOM      6  C   UNL     1       0.303   7.139  -0.004  0.00  0.00    +0.038 A 
ENDROOT
BRANCH   3   7
ATOM      7  N   UNL     1       0.705   4.995  -3.658  0.00  0.00    +0.057 N 
ATOM      8  O   UNL     1       0.710   5.594  -4.718  0.00  0.00    -0.126 OA
ATOM      9  O   UNL     1       0.816   3.782  -3.643  0.00  0.00    -0.126 OA
ENDBRANCH   3   7
BRANCH   1  10
ATOM     10  N   UNL     1       0.425   5.067   1.225  0.00  0.00    -0.317 N 
ATOM     11  H   UNL     1       0.334   5.555   2.059  0.00  0.00    +0.149 HD
BRANCH  10  17
ATOM     12  C   UNL     1      -0.024   1.087   0.014  0.00  0.00    +0.041 C 
ATOM     13  C   UNL     1      -0.725   1.583   1.280  0.00  0.00    +0.149 C 
ATOM     14  C   UNL     1       0.026   1.075   2.513  0.00  0.00    +0.174 C 
ATOM     15  C   UNL     1       1.445   1.653   2.511  0.00  0.00    +0.178 C 
ATOM     16  C   UNL     1       1.361   3.182   2.471  0.00  0.00    +0.192 C 
ATOM     17  C   UNL     1       0.558   3.609   1.239  0.00  0.00    +0.235 C 
ATOM     18  O   UNL     1      -0.740   3.012   1.288  0.00  0.00    -0.351 OA
BRANCH  16  19
ATOM     19  O   UNL     1       0.713   3.656   3.652  0.00  0.00    -0.385 OA
ATOM     20  H   UNL     1       0.625   4.618   3.694  0.00  0.00    +0.210 HD
ENDBRANCH  16  19
BRANCH  15  21
ATOM     21  O   UNL     1       2.130   1.242   3.696  0.00  0.00    -0.386 OA
ATOM     22  H   UNL     1       3.037   1.573   3.761  0.00  0.00    +0.210 HD
ENDBRANCH  15  21
BRANCH  14  23
ATOM     23  O   UNL     1       0.091  -0.352   2.478  0.00  0.00    -0.387 OA
ATOM     24  H   UNL     1      -0.774  -0.785   2.473  0.00  0.00    +0.210 HD
ENDBRANCH  14  23
ENDBRANCH  10  17
ENDBRANCH   1  10
BRANCH   5  25
ATOM     25  S   UNL     1       0.149   9.575  -1.239  0.00  0.00    -0.089 S 
BRANCH  25  26
ATOM     26  C   UNL     1       0.372   9.999  -2.934  0.00  0.00    +0.013 A 
ATOM     27  C   UNL     1       1.652  10.184  -3.444  0.00  0.00    +0.015 A 
ATOM     28  C   UNL     1       1.822  10.511  -4.775  0.00  0.00    +0.001 A 
ATOM     29  C   UNL     1       0.721  10.666  -5.597  0.00  0.00    +0.000 A 
ATOM     30  C   UNL     1      -0.554  10.488  -5.092  0.00  0.00    +0.001 A 
ATOM     31  C   UNL     1      -0.732  10.156  -3.764  0.00  0.00    +0.015 A 
ENDBRANCH  25  26
ENDBRANCH   5  25
TORSDOF 8
