REMARK  Name = ZINC20755943
REMARK  8 active torsions:
REMARK  status: ('A' for Active; 'I' for Inactive)
REMARK    1  A    between atoms: C_1  and  C_2
REMARK    2  A    between atoms: C_5  and  N_9
REMARK    3  A    between atoms: C_6  and  C_8
REMARK    4  A    between atoms: N_9  and  S_10
REMARK    5  A    between atoms: S_10  and  C_13
REMARK    6  A    between atoms: C_17  and  C_19
REMARK    7  A    between atoms: N_21  and  N_22
REMARK    8  A    between atoms: C_23  and  C_24
REMARK                            x       y       z     vdW  Elec       q    Type
REMARK                         _______ _______ _______ _____ _____    ______ ____
ROOT
ATOM      1  C   UNL     1       3.803   2.060   0.103  0.00  0.00    +0.109 A 
ATOM      2  C   UNL     1       3.834   3.444   0.120  0.00  0.00    +0.029 A 
ATOM      3  C   UNL     1       2.659   4.167   0.214  0.00  0.00    +0.003 A 
ATOM      4  C   UNL     1       1.447   3.513   0.288  0.00  0.00    +0.013 A 
ATOM      5  C   UNL     1       1.408   2.118   0.276  0.00  0.00    +0.040 A 
ATOM      6  C   UNL     1       2.598   1.394   0.180  0.00  0.00    +0.042 A 
ENDROOT
BRANCH   5   7
ATOM      7  C   UNL     1       0.113   1.410   0.358  0.00  0.00    +0.263 C 
ATOM      8  O   UNL     1       0.083   0.195   0.342  0.00  0.00    -0.268 OA
ATOM      9  N   UNL     1      -1.034   2.112   0.445  0.00  0.00    -0.203 N 
ATOM     10  H   UNL     1      -1.006   3.212   0.459  0.00  0.00    +0.178 HD
BRANCH   9  11
ATOM     11  N   UNL     1      -2.262   1.442   0.516  0.00  0.00    -0.187 NA
ATOM     12  C   UNL     1      -3.367   2.118   0.600  0.00  0.00    +0.144 C 
BRANCH  12  13
ATOM     13  C   UNL     1      -4.659   1.412   0.676  0.00  0.00    +0.065 A 
ATOM     14  C   UNL     1      -4.699   0.014   0.652  0.00  0.00    +0.135 A 
ATOM     15  C   UNL     1      -5.914  -0.640   0.728  0.00  0.00    +0.039 A 
ATOM     16  C   UNL     1      -7.089   0.085   0.817  0.00  0.00    +0.006 A 
ATOM     17  C   UNL     1      -7.059   1.467   0.836  0.00  0.00    +0.039 A 
ATOM     18  C   UNL     1      -5.852   2.137   0.766  0.00  0.00    +0.135 A 
ATOM     19  F   UNL     1      -5.824   3.487   0.784  0.00  0.00    -0.205 F 
ATOM     20  F   UNL     1      -3.553  -0.695   0.560  0.00  0.00    -0.205 F 
ENDBRANCH  12  13
ENDBRANCH   9  11
ENDBRANCH   5   7
BRANCH   1  21
ATOM     21  S   UNL     1       5.306   1.149  -0.018  0.00  0.00    +0.072 S 
ATOM     22  O   UNL     1       6.336   1.996   0.473  0.00  0.00    -0.150 OA
ATOM     23  O   UNL     1       5.048  -0.135   0.534  0.00  0.00    -0.150 OA
BRANCH  21  24
ATOM     24  N   UNL     1       5.611   0.918  -1.629  0.00  0.00    -0.216 N 
ATOM     25  H   UNL     1       5.675  -0.102  -2.036  0.00  0.00    +0.174 HD
BRANCH  24  30
ATOM     26  C   UNL     1       6.323   5.385  -5.049  0.00  0.00    +0.044 C 
ATOM     27  C   UNL     1       6.133   4.198  -4.140  0.00  0.00    -0.050 A 
ATOM     28  C   UNL     1       6.594   4.246  -2.837  0.00  0.00    +0.005 A 
ATOM     29  C   UNL     1       6.423   3.160  -2.002  0.00  0.00    +0.025 A 
ATOM     30  C   UNL     1       5.785   2.018  -2.471  0.00  0.00    +0.051 A 
ATOM     31  C   UNL     1       5.328   1.972  -3.782  0.00  0.00    -0.028 A 
ATOM     32  C   UNL     1       5.499   3.063  -4.611  0.00  0.00    +0.008 A 
ATOM     33  C   UNL     1       4.642   0.733  -4.298  0.00  0.00    +0.046 C 
ENDBRANCH  24  30
ENDBRANCH  21  24
ENDBRANCH   1  21
TORSDOF 6
