REMARK  Name = ZINC20337483
REMARK  7 active torsions:
REMARK  status: ('A' for Active; 'I' for Inactive)
REMARK    1  A    between atoms: C_3  and  C_6
REMARK    2  A    between atoms: N_10  and  C_19
REMARK    3  A    between atoms: C_13  and  N_18
REMARK    4  A    between atoms: C_19  and  C_20
REMARK    5  A    between atoms: C_20  and  C_22
REMARK    6  A    between atoms: C_20  and  O_24
REMARK    7  A    between atoms: C_22  and  O_23
REMARK                            x       y       z     vdW  Elec       q    Type
REMARK                         _______ _______ _______ _____ _____    ______ ____
ROOT
ATOM      1  C   UNL     1      -0.841   3.565   6.573  0.00  0.00    +0.066 C 
ATOM      2  C   UNL     1      -1.366   2.909   5.507  0.00  0.00    +0.191 C 
ATOM      3  C   UNL     1      -0.619   2.777   4.245  0.00  0.00    +0.286 C 
ATOM      4  O   UNL     1       0.237   3.583   3.931  0.00  0.00    -0.266 OA
ATOM      5  N   UNL     1      -0.922   1.727   3.444  0.00  0.00    -0.259 N 
ATOM      6  C   UNL     1      -1.903   0.818   3.863  0.00  0.00    +0.081 A 
ATOM      7  C   UNL     1      -2.039  -0.402   3.219  0.00  0.00    +0.050 A 
ATOM      8  C   UNL     1      -3.011  -1.300   3.638  0.00  0.00    +0.027 A 
ATOM      9  C   UNL     1      -3.846  -0.978   4.700  0.00  0.00    +0.026 A 
ATOM     10  C   UNL     1      -3.712   0.239   5.343  0.00  0.00    +0.050 A 
ATOM     11  C   UNL     1      -2.744   1.138   4.929  0.00  0.00    +0.150 A 
ATOM     12  O   UNL     1      -2.610   2.339   5.561  0.00  0.00    -0.449 OA
ENDROOT
BRANCH   1  15
ATOM     13  C   UNL     1       2.446   5.286   6.989  0.00  0.00    +0.008 A 
ATOM     14  C   UNL     1       1.098   5.088   7.158  0.00  0.00    +0.015 A 
ATOM     15  C   UNL     1       0.513   3.985   6.551  0.00  0.00    +0.016 A 
ATOM     16  S   UNL     1       1.913   3.228   5.741  0.00  0.00    -0.097 S 
ATOM     17  C   UNL     1       3.160   4.404   6.239  0.00  0.00    +0.046 A 
ENDBRANCH   1  15
BRANCH   8  18
ATOM     18  N   UNL     1      -3.150  -2.532   2.989  0.00  0.00    -0.358 N 
ATOM     19  H   UNL     1      -3.920  -3.244   3.321  0.00  0.00    +0.142 HD
ATOM     20  H   UNL     1      -2.489  -2.788   2.148  0.00  0.00    +0.142 HD
ENDBRANCH   8  18
BRANCH   5  21
ATOM     21  C   UNL     1      -0.232   1.541   2.165  0.00  0.00    +0.147 C 
BRANCH  21  22
ATOM     22  C   UNL     1      -1.004   2.265   1.060  0.00  0.00    +0.157 C 
BRANCH  22  23
ATOM     23  O   UNL     1      -0.977   3.673   1.303  0.00  0.00    -0.388 OA
ATOM     24  H   UNL     1      -1.483   4.361   0.610  0.00  0.00    +0.210 HD
ENDBRANCH  22  23
BRANCH  22  25
ATOM     25  C   UNL     1      -0.354   1.969  -0.293  0.00  0.00    +0.188 C 
BRANCH  25  26
ATOM     26  O   UNL     1      -1.141   2.548  -1.336  0.00  0.00    -0.392 OA
ATOM     27  H   UNL     1      -0.829   2.439  -2.386  0.00  0.00    +0.210 HD
ENDBRANCH  25  26
ENDBRANCH  22  25
ENDBRANCH  21  22
ENDBRANCH   5  21
TORSDOF 7
