REMARK  Name = ZINC64538222
REMARK  8 active torsions:
REMARK  status: ('A' for Active; 'I' for Inactive)
REMARK    1  A    between atoms: C_1  and  C_2
REMARK    2  A    between atoms: C_2  and  C_27
REMARK    3  A    between atoms: C_7  and  C_9
REMARK    4  A    between atoms: N_11  and  C_12
REMARK    5  A    between atoms: C_12  and  C_13
REMARK    6  A    between atoms: C_13  and  C_14
REMARK    7  A    between atoms: N_25  and  C_26
REMARK    8  A    between atoms: N_29  and  C_30
REMARK                            x       y       z     vdW  Elec       q    Type
REMARK                         _______ _______ _______ _____ _____    ______ ____
ROOT
ATOM      1  C   UNL     1       0.233   1.554   0.068  0.00  0.00    +0.044 C 
ATOM      2  C   UNL     1      -0.013   0.050  -0.071  0.00  0.00    +0.130 C 
ATOM      3  C   UNL     1      -1.515  -0.194  -0.194  0.00  0.00    +0.179 C 
ATOM      4  N   UNL     1      -2.149   0.017   1.113  0.00  0.00    -0.256 N 
ATOM      5  C   UNL     1      -1.462  -0.232   2.284  0.00  0.00    +0.124 A 
ATOM      6  C   UNL     1      -2.295   0.052   3.311  0.00  0.00    +0.067 A 
ATOM      7  C   UNL     1      -3.499   0.476   2.704  0.00  0.00    +0.148 A 
ATOM      8  N   UNL     1      -3.325   0.425   1.393  0.00  0.00    -0.166 NA
ATOM      9  C   UNL     1      -0.072  -0.718   2.263  0.00  0.00    +0.265 C 
ATOM     10  O   UNL     1       0.465  -1.171   3.256  0.00  0.00    -0.268 OA
ATOM     11  N   UNL     1       0.577  -0.631   1.076  0.00  0.00    -0.284 N 
ATOM     12  C   UNL     1       1.903  -1.237   0.941  0.00  0.00    +0.133 C 
ENDROOT
BRANCH   7  13
ATOM     13  C   UNL     1      -4.728   0.900   3.405  0.00  0.00    +0.264 C 
ATOM     14  O   UNL     1      -4.764   0.905   4.620  0.00  0.00    -0.268 OA
ATOM     15  N   UNL     1      -5.810   1.283   2.697  0.00  0.00    -0.310 N 
ATOM     16  H   UNL     1      -5.781   1.279   1.728  0.00  0.00    +0.149 HD
BRANCH  15  17
ATOM     17  C   UNL     1      -7.029   1.703   3.393  0.00  0.00    +0.109 C 
BRANCH  17  18
ATOM     18  C   UNL     1      -8.097   2.083   2.365  0.00  0.00    +0.052 C 
BRANCH  18  19
ATOM     19  C   UNL     1      -9.351   2.515   3.080  0.00  0.00    -0.040 C 
ATOM     20  C   UNL     1      -9.717   3.781   3.385  0.00  0.00    -0.001 A 
ATOM     21  C   UNL     1      -9.082   5.084   3.153  0.00  0.00    +0.010 A 
ATOM     22  C   UNL     1      -9.705   6.204   3.585  0.00  0.00    +0.001 A 
ATOM     23  C   UNL     1     -10.939   6.152   4.248  0.00  0.00    +0.002 A 
ATOM     24  C   UNL     1     -11.584   4.993   4.498  0.00  0.00    +0.026 A 
ATOM     25  C   UNL     1     -11.020   3.753   4.088  0.00  0.00    +0.043 A 
ATOM     26  N   UNL     1     -11.443   2.519   4.212  0.00  0.00    -0.380 N 
ATOM     27  C   UNL     1     -10.457   1.623   3.596  0.00  0.00    +0.144 C 
ATOM     28  H   UNL     1     -12.271   2.243   4.636  0.00  0.00    +0.160 HD
ENDBRANCH  18  19
ENDBRANCH  17  18
ENDBRANCH  15  17
ENDBRANCH   7  13
BRANCH   2  29
ATOM     29  C   UNL     1       0.662  -0.439  -1.326  0.00  0.00    +0.238 C 
ATOM     30  O   UNL     1       1.040   0.356  -2.160  0.00  0.00    -0.273 OA
ATOM     31  N   UNL     1       0.845  -1.759  -1.522  0.00  0.00    -0.311 N 
ATOM     32  H   UNL     1       0.478  -2.399  -0.892  0.00  0.00    +0.149 HD
BRANCH  31  33
ATOM     33  C   UNL     1       1.599  -2.229  -2.688  0.00  0.00    +0.073 C 
ATOM     34  C   UNL     1       0.664  -2.329  -3.894  0.00  0.00    +0.022 C 
ATOM     35  C   UNL     1       1.451  -2.820  -5.111  0.00  0.00    +0.002 C 
ATOM     36  C   UNL     1       2.046  -4.197  -4.811  0.00  0.00    +0.000 C 
ATOM     37  C   UNL     1       2.981  -4.098  -3.605  0.00  0.00    +0.002 C 
ATOM     38  C   UNL     1       2.194  -3.607  -2.388  0.00  0.00    +0.022 C 
ENDBRANCH  31  33
ENDBRANCH   2  29
TORSDOF 6
