REMARK  Name = ZINC15018349
REMARK  4 active torsions:
REMARK  status: ('A' for Active; 'I' for Inactive)
REMARK    1  A    between atoms: C_1  and  N_2
REMARK    2  A    between atoms: C_6  and  N_23
REMARK    3  A    between atoms: N_10  and  N_11
REMARK    4  A    between atoms: C_12  and  C_14
REMARK                            x       y       z     vdW  Elec       q    Type
REMARK                         _______ _______ _______ _____ _____    ______ ____
ROOT
ATOM      1  C   UNL     1      -0.042   1.448  -0.240  0.00  0.00    +0.138 C 
ATOM      2  N   UNL     1      -0.007  -0.009  -0.090  0.00  0.00    -0.269 N 
ATOM      3  C   UNL     1      -1.118  -0.793   0.199  0.00  0.00    +0.046 A 
ATOM      4  C   UNL     1      -2.453  -0.463   0.409  0.00  0.00    +0.026 A 
ATOM      5  C   UNL     1      -3.376  -1.451   0.685  0.00  0.00    +0.034 A 
ATOM      6  C   UNL     1      -2.988  -2.779   0.758  0.00  0.00    +0.127 A 
ATOM      7  C   UNL     1      -1.668  -3.126   0.552  0.00  0.00    +0.044 A 
ATOM      8  C   UNL     1      -0.730  -2.137   0.273  0.00  0.00    +0.031 A 
ATOM      9  C   UNL     1       0.727  -2.167   0.008  0.00  0.00    +0.153 C 
ATOM     10  N   UNL     1       1.512  -3.217  -0.023  0.00  0.00    -0.174 NA
ATOM     11  C   UNL     1       1.102  -0.757  -0.219  0.00  0.00    +0.271 C 
ATOM     12  O   UNL     1       2.218  -0.345  -0.475  0.00  0.00    -0.268 OA
ENDROOT
BRANCH  10  13
ATOM     13  N   UNL     1       0.965  -4.503   0.079  0.00  0.00    -0.202 N 
ATOM     14  C   UNL     1       1.777  -5.575   0.171  0.00  0.00    +0.265 C 
ATOM     15  O   UNL     1       2.984  -5.426   0.166  0.00  0.00    -0.268 OA
ATOM     16  H   UNL     1       0.003  -4.622   0.083  0.00  0.00    +0.178 HD
BRANCH  14  17
ATOM     17  C   UNL     1       1.202  -6.930   0.278  0.00  0.00    +0.057 A 
ATOM     18  C   UNL     1      -0.184  -7.106   0.278  0.00  0.00    +0.014 A 
ATOM     19  C   UNL     1      -0.715  -8.375   0.378  0.00  0.00    +0.001 A 
ATOM     20  C   UNL     1       0.121  -9.473   0.478  0.00  0.00    +0.001 A 
ATOM     21  C   UNL     1       1.494  -9.308   0.478  0.00  0.00    +0.021 A 
ATOM     22  C   UNL     1       2.041  -8.044   0.373  0.00  0.00    +0.053 A 
ATOM     23 CL   UNL     1       3.764  -7.838   0.366  0.00  0.00    -0.083 Cl
ENDBRANCH  14  17
ENDBRANCH  10  13
BRANCH   6  24
ATOM     24  N   UNL     1      -3.990  -3.826   1.057  0.00  0.00    +0.056 N 
ATOM     25  O   UNL     1      -5.146  -3.523   1.237  0.00  0.00    -0.126 OA
ATOM     26  O   UNL     1      -3.652  -4.986   1.120  0.00  0.00    -0.126 OA
ENDBRANCH   6  24
TORSDOF 3
