REMARK  Name = ZINC16034082
REMARK  6 active torsions:
REMARK  status: ('A' for Active; 'I' for Inactive)
REMARK    1  A    between atoms: C_12  and  C_15
REMARK    2  A    between atoms: C_15  and  C_16
REMARK    3  A    between atoms: C_19  and  O_23
REMARK    4  A    between atoms: C_20  and  O_22
REMARK    5  A    between atoms: N_26  and  C_29
REMARK    6  A    between atoms: C_29  and  C_30
REMARK                            x       y       z     vdW  Elec       q    Type
REMARK                         _______ _______ _______ _____ _____    ______ ____
ROOT
ATOM      1  C   UNL     1      -0.254   1.203   0.253  0.00  0.00    +0.000 A 
ATOM      2  C   UNL     1       0.945   1.880   0.381  0.00  0.00    +0.002 A 
ATOM      3  C   UNL     1       2.134   1.184   0.441  0.00  0.00    +0.023 A 
ATOM      4  C   UNL     1       2.137  -0.207   0.374  0.00  0.00    +0.039 A 
ATOM      5  C   UNL     1       0.924  -0.878   0.246  0.00  0.00    +0.003 A 
ATOM      6  C   UNL     1      -0.261  -0.179   0.185  0.00  0.00    +0.008 A 
ATOM      7  C   UNL     1       1.266  -2.340   0.205  0.00  0.00    +0.136 C 
ATOM      8  C   UNL     1       0.780  -2.999  -1.091  0.00  0.00    +0.122 C 
ATOM      9  C   UNL     1      -0.554  -3.695  -0.702  0.00  0.00    +0.107 C 
ATOM     10  C   UNL     1      -0.743  -3.375   0.797  0.00  0.00    +0.072 C 
ATOM     11  N   UNL     1       0.616  -3.078   1.304  0.00  0.00    -0.295 NA
ATOM     12  C   UNL     1      -1.587  -2.949  -1.517  0.00  0.00    +0.227 C 
ATOM     13  O   UNL     1      -2.777  -3.176  -1.516  0.00  0.00    -0.275 OA
ATOM     14  N   UNL     1      -0.982  -1.998  -2.239  0.00  0.00    -0.237 N 
ATOM     15  C   UNL     1       0.360  -1.936  -2.081  0.00  0.00    +0.229 C 
ATOM     16  O   UNL     1       1.109  -1.160  -2.634  0.00  0.00    -0.275 OA
ATOM     17  C   UNL     1       2.765  -2.394   0.320  0.00  0.00    +0.243 C 
ATOM     18  O   UNL     1       3.455  -3.392   0.328  0.00  0.00    -0.273 OA
ATOM     19  N   UNL     1       3.192  -1.121   0.412  0.00  0.00    -0.283 N 
ATOM     20  H   UNL     1       1.110  -3.934   1.507  0.00  0.00    +0.124 HD
ATOM     21  H   UNL     1       4.125  -0.867   0.496  0.00  0.00    +0.155 HD
ENDROOT
BRANCH  10  22
ATOM     22  C   UNL     1      -1.352  -4.576   1.524  0.00  0.00    +0.054 C 
BRANCH  22  23
ATOM     23  C   UNL     1      -1.641  -4.202   2.955  0.00  0.00    -0.042 A 
ATOM     24  C   UNL     1      -0.675  -4.390   3.926  0.00  0.00    +0.007 A 
ATOM     25  C   UNL     1      -0.935  -4.049   5.240  0.00  0.00    +0.049 A 
ATOM     26  C   UNL     1      -2.167  -3.518   5.587  0.00  0.00    +0.158 A 
ATOM     27  C   UNL     1      -3.139  -3.328   4.610  0.00  0.00    +0.158 A 
ATOM     28  C   UNL     1      -2.870  -3.667   3.294  0.00  0.00    +0.052 A 
BRANCH  27  29
ATOM     29  O   UNL     1      -4.350  -2.806   4.945  0.00  0.00    -0.503 OA
ATOM     30  H   UNL     1      -4.391  -1.842   4.892  0.00  0.00    +0.292 HD
ENDBRANCH  27  29
BRANCH  26  31
ATOM     31  O   UNL     1      -2.425  -3.182   6.879  0.00  0.00    -0.503 OA
ATOM     32  H   UNL     1      -2.190  -2.271   7.104  0.00  0.00    +0.292 HD
ENDBRANCH  26  31
ENDBRANCH  22  23
ENDBRANCH  10  22
BRANCH  14  33
ATOM     33  C   UNL     1      -1.712  -1.099  -3.135  0.00  0.00    +0.151 C 
BRANCH  33  34
ATOM     34  C   UNL     1      -1.792  -1.715  -4.508  0.00  0.00    -0.029 A 
ATOM     35  C   UNL     1      -0.795  -1.470  -5.434  0.00  0.00    +0.008 A 
ATOM     36  C   UNL     1      -0.867  -2.035  -6.694  0.00  0.00    +0.038 A 
ATOM     37  C   UNL     1      -1.938  -2.846  -7.028  0.00  0.00    +0.123 A 
ATOM     38  C   UNL     1      -2.936  -3.090  -6.100  0.00  0.00    +0.038 A 
ATOM     39  C   UNL     1      -2.859  -2.529  -4.839  0.00  0.00    +0.008 A 
ATOM     40  F   UNL     1      -2.010  -3.398  -8.259  0.00  0.00    -0.205 F 
ENDBRANCH  33  34
ENDBRANCH  14  33
TORSDOF 6
