REMARK  Name = ZINC03841007
REMARK  10 active torsions:
REMARK  status: ('A' for Active; 'I' for Inactive)
REMARK    1  A    between atoms: C_1  and  C_2
REMARK    2  A    between atoms: C_5  and  O_33
REMARK    3  A    between atoms: C_7  and  C_30
REMARK    4  A    between atoms: C_7  and  C_31
REMARK    5  A    between atoms: N_16  and  C_17
REMARK    6  A    between atoms: C_18  and  C_20
REMARK    7  A    between atoms: C_20  and  C_21
REMARK    8  A    between atoms: N_23  and  C_24
REMARK    9  A    between atoms: C_24  and  C_25
REMARK   10  A    between atoms: C_31  and  O_32
REMARK                            x       y       z     vdW  Elec       q    Type
REMARK                         _______ _______ _______ _____ _____    ______ ____
ROOT
ATOM      1  C   UNL     1      -1.637  -2.023  -2.220  0.00  0.00    +0.012 C 
ATOM      2  C   UNL     1      -0.944  -2.638  -1.002  0.00  0.00    -0.019 C 
ATOM      3  C   UNL     1       0.531  -2.224  -0.989  0.00  0.00    +0.010 C 
ATOM      4  C   UNL     1       0.657  -0.708  -0.852  0.00  0.00    +0.032 C 
ATOM      5  C   UNL     1       0.013  -0.277   0.469  0.00  0.00    +0.123 C 
ATOM      6  C   UNL     1      -1.468  -0.647   0.441  0.00  0.00    +0.021 C 
ATOM      7  C   UNL     1      -1.636  -2.161   0.277  0.00  0.00    +0.011 C 
ATOM      8  C   UNL     1      -3.148  -2.441   0.161  0.00  0.00    +0.049 C 
ATOM      9  C   UNL     1      -3.348  -3.826  -0.344  0.00  0.00    +0.015 A 
ATOM     10  C   UNL     1      -2.426  -4.644  -0.912  0.00  0.00    +0.058 A 
ATOM     11  N   UNL     1      -2.862  -5.846  -1.284  0.00  0.00    -0.229 NA
ATOM     12  C   UNL     1      -4.112  -6.224  -1.110  0.00  0.00    +0.158 A 
ATOM     13  S   UNL     1      -4.815  -4.821  -0.361  0.00  0.00    -0.057 S 
ATOM     14  N   UNL     1      -4.712  -7.429  -1.440  0.00  0.00    -0.327 N 
ATOM     15  C   UNL     1      -6.133  -7.641  -1.154  0.00  0.00    +0.127 C 
ATOM     16  C   UNL     1      -0.992  -4.168  -1.091  0.00  0.00    +0.054 C 
ATOM     17  C   UNL     1      -2.127  -0.201   1.747  0.00  0.00    +0.016 C 
ATOM     18  H   UNL     1      -4.191  -8.131  -1.859  0.00  0.00    +0.148 HD
ENDROOT
BRANCH   5  19
ATOM     19  O   UNL     1       0.151   1.136   0.632  0.00  0.00    -0.391 OA
ATOM     20  H   UNL     1       1.068   1.442   0.654  0.00  0.00    +0.210 HD
ENDBRANCH   5  19
BRANCH  16  21
ATOM     21  C   UNL     1      -0.474  -4.616  -2.460  0.00  0.00    +0.106 C 
BRANCH  21  22
ATOM     22  C   UNL     1      -0.332  -6.116  -2.477  0.00  0.00    +0.214 C 
ATOM     23  O   UNL     1      -0.618  -6.764  -1.492  0.00  0.00    -0.276 OA
ATOM     24  N   UNL     1       0.111  -6.739  -3.587  0.00  0.00    -0.311 N 
ATOM     25  H   UNL     1       0.340  -6.221  -4.375  0.00  0.00    +0.149 HD
BRANCH  24  26
ATOM     26  C   UNL     1       0.249  -8.197  -3.604  0.00  0.00    +0.146 C 
BRANCH  26  27
ATOM     27  C   UNL     1       0.759  -8.638  -4.952  0.00  0.00    +0.007 A 
ATOM     28  C   UNL     1       2.039  -8.799  -5.369  0.00  0.00    +0.013 A 
ATOM     29  C   UNL     1       2.273  -9.218  -6.665  0.00  0.00    +0.008 A 
ATOM     30  C   UNL     1       1.217  -9.456  -7.480  0.00  0.00    +0.045 A 
ATOM     31  S   UNL     1      -0.165  -9.092  -6.410  0.00  0.00    -0.100 S 
ENDBRANCH  26  27
ENDBRANCH  24  26
ENDBRANCH  21  22
ENDBRANCH  16  21
BRANCH   6  32
ATOM     32  C   UNL     1      -2.145   0.064  -0.732  0.00  0.00    +0.165 C 
BRANCH  32  33
ATOM     33  O   UNL     1      -2.149   1.474  -0.497  0.00  0.00    -0.394 OA
ATOM     34  H   UNL     1      -2.564   1.989  -1.202  0.00  0.00    +0.209 HD
ENDBRANCH  32  33
ENDBRANCH   6  32
TORSDOF 7
