REMARK  Name = ZINC23982316
REMARK  8 active torsions:
REMARK  status: ('A' for Active; 'I' for Inactive)
REMARK    1  A    between atoms: C_1  and  O_2
REMARK    2  A    between atoms: O_2  and  C_3
REMARK    3  A    between atoms: C_8  and  C_9
REMARK    4  A    between atoms: C_9  and  C_11
REMARK    5  A    between atoms: C_9  and  N_29
REMARK    6  A    between atoms: C_11  and  N_12
REMARK    7  A    between atoms: C_13  and  C_15
REMARK    8  A    between atoms: C_15  and  N_16
REMARK                            x       y       z     vdW  Elec       q    Type
REMARK                         _______ _______ _______ _____ _____    ______ ____
ROOT
ATOM      1  C   UNL     1      -2.627   1.774  -7.505  0.00  0.00    +0.093 C 
ENDROOT
BRANCH   1   2
ATOM      2  N   UNL     1      -2.639   0.339  -7.209  0.00  0.00    -0.315 N 
ATOM      3  C   UNL     1      -2.834  -0.087  -5.945  0.00  0.00    +0.231 C 
ATOM      4  O   UNL     1      -3.000   0.718  -5.053  0.00  0.00    -0.274 OA
ATOM      5  H   UNL     1      -2.489  -0.391  -8.018  0.00  0.00    +0.149 HD
BRANCH   3   6
ATOM      6  C   UNL     1      -2.847  -1.562  -5.641  0.00  0.00    +0.212 C 
BRANCH   6   7
ATOM      7  N   UNL     1      -3.076  -1.764  -4.208  0.00  0.00    -0.233 N 
ATOM      8  C   UNL     1      -4.313  -1.894  -3.662  0.00  0.00    +0.226 C 
ATOM      9  O   UNL     1      -5.354  -2.075  -4.256  0.00  0.00    -0.275 OA
ATOM     10  C   UNL     1      -4.132  -1.770  -2.180  0.00  0.00    +0.091 C 
ATOM     11  C   UNL     1      -5.013  -2.609  -1.277  0.00  0.00    +0.040 C 
ATOM     12  C   UNL     1      -4.398  -2.565   0.106  0.00  0.00    -0.030 C 
ATOM     13  C   UNL     1      -3.171  -2.211   0.350  0.00  0.00    -0.030 C 
ATOM     14  C   UNL     1      -2.165  -1.821  -0.712  0.00  0.00    +0.040 C 
ATOM     15  C   UNL     1      -2.691  -2.348  -2.031  0.00  0.00    +0.091 C 
ATOM     16  C   UNL     1      -2.071  -1.838  -3.296  0.00  0.00    +0.226 C 
ATOM     17  O   UNL     1      -0.907  -1.550  -3.472  0.00  0.00    -0.275 OA
ENDBRANCH   6   7
ENDBRANCH   3   6
ENDBRANCH   1   2
BRANCH   1  18
ATOM     18  C   UNL     1      -2.270   1.988  -8.977  0.00  0.00    -0.017 C 
BRANCH  18  24
ATOM     19  C   UNL     1      -4.483   2.191 -10.138  0.00  0.00    +0.122 A 
ATOM     20  C   UNL     1      -5.487   1.671 -10.942  0.00  0.00    +0.046 A 
ATOM     21  C   UNL     1      -5.375   0.389 -11.442  0.00  0.00    +0.004 A 
ATOM     22  C   UNL     1      -4.261  -0.376 -11.146  0.00  0.00    +0.000 A 
ATOM     23  C   UNL     1      -3.257   0.142 -10.348  0.00  0.00    +0.005 A 
ATOM     24  C   UNL     1      -3.365   1.425  -9.846  0.00  0.00    -0.018 A 
BRANCH  19  26
ATOM     25  C   UNL     1      -5.773   4.182  -9.982  0.00  0.00    +0.277 C 
ATOM     26  O   UNL     1      -4.593   3.451  -9.641  0.00  0.00    -0.495 OA
ENDBRANCH  19  26
ENDBRANCH  18  24
BRANCH  18  27
ATOM     27  N   UNL     1      -1.005   1.305  -9.279  0.00  0.00    +0.385 N 
ATOM     28  C   UNL     1      -0.600   1.533 -10.690  0.00  0.00    -0.078 C 
ATOM     29  C   UNL     1       0.919   1.227 -10.677  0.00  0.00    -0.020 C 
ATOM     30  C   UNL     1       1.374   1.792  -9.311  0.00  0.00    -0.020 C 
ATOM     31  C   UNL     1       0.098   1.842  -8.451  0.00  0.00    -0.078 C 
ATOM     32  H   UNL     1      -1.183   0.240  -9.071  0.00  0.00    -0.081 HD
ENDBRANCH  18  27
ENDBRANCH   1  18
TORSDOF 7
