REMARK  Name = ZINC66563331
REMARK  3 active torsions:
REMARK  status: ('A' for Active; 'I' for Inactive)
REMARK    1  A    between atoms: C_2  and  C_12
REMARK    2  A    between atoms: C_12  and  N_13
REMARK    3  A    between atoms: C_18  and  C_20
REMARK                            x       y       z     vdW  Elec       q    Type
REMARK                         _______ _______ _______ _____ _____    ______ ____
ROOT
ATOM      1  C   UNL     1       0.769   3.981  -0.258  0.00  0.00    -0.041 C 
ENDROOT
BRANCH   1   3
ATOM      2  C   UNL     1      -0.964   2.192  -0.504  0.00  0.00    +0.052 A 
ATOM      3  C   UNL     1       0.373   2.542  -0.470  0.00  0.00    -0.046 A 
ATOM      4  C   UNL     1       1.347   1.574  -0.631  0.00  0.00    +0.023 A 
ATOM      5  C   UNL     1       0.987   0.253  -0.828  0.00  0.00    +0.065 A 
ATOM      6  C   UNL     1      -0.352  -0.103  -0.864  0.00  0.00    +0.163 A 
ATOM      7  C   UNL     1      -1.331   0.870  -0.699  0.00  0.00    +0.162 A 
ATOM      8  O   UNL     1      -2.652   0.540  -0.724  0.00  0.00    -0.485 OA
ATOM      9  C   UNL     1      -2.987  -0.731  -1.292  0.00  0.00    +0.270 C 
ATOM     10  C   UNL     1      -2.029  -1.783  -0.717  0.00  0.00    +0.270 C 
ATOM     11  O   UNL     1      -0.691  -1.406  -1.062  0.00  0.00    -0.485 OA
ATOM     12 BR   UNL     1       3.175   2.057  -0.582  0.00  0.00    -0.050 Br
ENDBRANCH   1   3
BRANCH   1  13
ATOM     13  N   UNL     1       1.262   4.155   1.115  0.00  0.00    +0.390 N 
ATOM     14  C   UNL     1       0.181   3.860   2.063  0.00  0.00    -0.077 C 
ATOM     15  C   UNL     1       0.711   3.961   3.495  0.00  0.00    -0.019 C 
ATOM     16  C   UNL     1       1.234   5.379   3.740  0.00  0.00    -0.003 C 
ATOM     17  C   UNL     1       2.309   5.704   2.699  0.00  0.00    -0.006 C 
ATOM     18  C   UNL     1       1.720   5.538   1.297  0.00  0.00    +0.019 C 
ATOM     19  H   UNL     1       2.031   3.523   1.278  0.00  0.00    -0.080 HD
BRANCH  18  20
ATOM     20  C   UNL     1       2.774   5.856   0.269  0.00  0.00    +0.197 C 
ATOM     21  O   UNL     1       3.488   4.975  -0.161  0.00  0.00    -0.278 OA
ATOM     22  N   UNL     1       2.925   7.121  -0.173  0.00  0.00    -0.331 N 
ATOM     23  H   UNL     1       2.354   7.826   0.171  0.00  0.00    +0.145 HD
ATOM     24  H   UNL     1       3.603   7.326  -0.835  0.00  0.00    +0.145 HD
ENDBRANCH  18  20
ENDBRANCH   1  13
TORSDOF 3
