REMARK  Name = ZINC20339323
REMARK  7 active torsions:
REMARK  status: ('A' for Active; 'I' for Inactive)
REMARK    1  A    between atoms: C_1  and  O_2
REMARK    2  A    between atoms: O_2  and  C_3
REMARK    3  A    between atoms: C_6  and  C_9
REMARK    4  A    between atoms: N_13  and  C_22
REMARK    5  A    between atoms: C_16  and  N_21
REMARK    6  A    between atoms: C_22  and  C_23
REMARK    7  A    between atoms: C_23  and  O_24
REMARK                            x       y       z     vdW  Elec       q    Type
REMARK                         _______ _______ _______ _____ _____    ______ ____
ROOT
ATOM      1  C   UNL     1       3.396  -0.271   1.258  0.00  0.00    +0.059 C 
ATOM      2  C   UNL     1       2.473   0.091   0.337  0.00  0.00    +0.191 C 
ATOM      3  C   UNL     1       1.480  -0.873  -0.179  0.00  0.00    +0.286 C 
ATOM      4  O   UNL     1       1.703  -2.069  -0.180  0.00  0.00    -0.266 OA
ATOM      5  N   UNL     1       0.313  -0.374  -0.652  0.00  0.00    -0.259 N 
ATOM      6  C   UNL     1       0.104   1.010  -0.615  0.00  0.00    +0.081 A 
ATOM      7  C   UNL     1      -1.164   1.526  -0.835  0.00  0.00    +0.050 A 
ATOM      8  C   UNL     1      -1.370   2.898  -0.791  0.00  0.00    +0.027 A 
ATOM      9  C   UNL     1      -0.305   3.754  -0.538  0.00  0.00    +0.026 A 
ATOM     10  C   UNL     1       0.961   3.241  -0.325  0.00  0.00    +0.050 A 
ATOM     11  C   UNL     1       1.170   1.873  -0.363  0.00  0.00    +0.150 A 
ATOM     12  O   UNL     1       2.418   1.366  -0.156  0.00  0.00    -0.449 OA
ENDROOT
BRANCH   1  16
ATOM     13  C   UNL     1       3.137  -4.063   3.142  0.00  0.00    +0.120 A 
ATOM     14  C   UNL     1       4.381  -3.530   2.827  0.00  0.00    +0.046 A 
ATOM     15  C   UNL     1       4.471  -2.300   2.215  0.00  0.00    +0.011 A 
ATOM     16  C   UNL     1       3.306  -1.586   1.911  0.00  0.00    -0.021 A 
ATOM     17  C   UNL     1       2.056  -2.125   2.235  0.00  0.00    +0.011 A 
ATOM     18  C   UNL     1       1.978  -3.359   2.842  0.00  0.00    +0.046 A 
BRANCH  13  20
ATOM     19  C   UNL     1       1.745  -5.767   4.041  0.00  0.00    +0.277 C 
ATOM     20  O   UNL     1       3.054  -5.277   3.745  0.00  0.00    -0.495 OA
ENDBRANCH  13  20
ENDBRANCH   1  16
BRANCH   8  21
ATOM     21  N   UNL     1      -2.650   3.421  -1.006  0.00  0.00    -0.358 N 
ATOM     22  H   UNL     1      -2.813   4.508  -0.972  0.00  0.00    +0.142 HD
ATOM     23  H   UNL     1      -3.492   2.744  -1.211  0.00  0.00    +0.142 HD
ENDBRANCH   8  21
BRANCH   5  24
ATOM     24  C   UNL     1      -0.714  -1.268  -1.194  0.00  0.00    +0.142 C 
BRANCH  24  25
ATOM     25  C   UNL     1      -0.486  -1.456  -2.695  0.00  0.00    +0.175 C 
BRANCH  25  26
ATOM     26  O   UNL     1       0.755  -2.132  -2.908  0.00  0.00    -0.393 OA
ATOM     27  H   UNL     1       1.091  -2.357  -3.931  0.00  0.00    +0.209 HD
ENDBRANCH  25  26
ENDBRANCH  24  25
ENDBRANCH   5  24
TORSDOF 6
