REMARK  Name = ZINC05261920
REMARK  3 active torsions:
REMARK  status: ('A' for Active; 'I' for Inactive)
REMARK    1  A    between atoms: C_9  and  C_11
REMARK    2  A    between atoms: C_11  and  C_28
REMARK    3  A    between atoms: C_15  and  N_25
REMARK                            x       y       z     vdW  Elec       q    Type
REMARK                         _______ _______ _______ _____ _____    ______ ____
ROOT
ATOM      1  C   UNL     1       1.237   6.011   0.114  0.00  0.00    +0.137 C 
ATOM      2  C   UNL     1      -0.145   5.361  -0.034  0.00  0.00    +0.068 C 
ATOM      3  C   UNL     1      -0.054   3.857   0.001  0.00  0.00    -0.022 A 
ATOM      4  C   UNL     1      -1.236   3.133   0.020  0.00  0.00    +0.038 A 
ATOM      5  C   UNL     1      -1.218   1.753   0.017  0.00  0.00    +0.127 A 
ATOM      6  C   UNL     1      -0.013   1.076   0.008  0.00  0.00    +0.034 A 
ATOM      7  C   UNL     1       1.171   1.784   0.001  0.00  0.00    +0.025 A 
ATOM      8  C   UNL     1       1.159   3.175   0.001  0.00  0.00    +0.033 A 
ATOM      9  N   UNL     1       2.345   3.873   0.022  0.00  0.00    -0.325 N 
ATOM     10  C   UNL     1       2.212   5.165  -0.698  0.00  0.00    +0.101 C 
ATOM     11  C   UNL     1       3.643   5.712  -0.720  0.00  0.00    +0.026 C 
ATOM     12  C   UNL     1       4.535   4.444  -0.681  0.00  0.00    +0.021 C 
ATOM     13  C   UNL     1       3.539   3.258  -0.568  0.00  0.00    +0.105 C 
ENDROOT
BRANCH   1  22
ATOM     14  C   UNL     1       0.593  11.718  -1.709  0.00  0.00    +0.002 A 
ATOM     15  C   UNL     1       1.760  11.435  -2.404  0.00  0.00    +0.002 A 
ATOM     16  C   UNL     1       2.342  10.202  -2.316  0.00  0.00    +0.030 A 
ATOM     17  C   UNL     1       1.760   9.212  -1.520  0.00  0.00    +0.089 A 
ATOM     18  C   UNL     1       0.578   9.498  -0.816  0.00  0.00    +0.066 A 
ATOM     19  C   UNL     1       0.000  10.756  -0.918  0.00  0.00    +0.028 A 
ATOM     20  N   UNL     1       0.250   8.342  -0.137  0.00  0.00    -0.340 N 
ATOM     21  H   UNL     1      -0.544   8.208   0.457  0.00  0.00    +0.167 HD
ATOM     22  C   UNL     1       1.207   7.418  -0.424  0.00  0.00    +0.130 A 
ATOM     23  N   UNL     1       2.088   7.926  -1.235  0.00  0.00    -0.231 NA
ENDBRANCH   1  22
BRANCH   5  24
ATOM     24  N   UNL     1      -2.491   0.997   0.029  0.00  0.00    +0.056 N 
ATOM     25  O   UNL     1      -2.476  -0.221   0.031  0.00  0.00    -0.126 OA
ATOM     26  O   UNL     1      -3.553   1.593   0.038  0.00  0.00    -0.126 OA
ENDBRANCH   5  24
BRANCH   1  27
ATOM     27  C   UNL     1       1.639   6.022   1.530  0.00  0.00    +0.079 C 
ATOM     28  N   UNL     1       1.949   6.031   2.623  0.00  0.00    -0.195 NA
ENDBRANCH   1  27
TORSDOF 3
