REMARK  Name = ZINC56163196
REMARK  11 active torsions:
REMARK  status: ('A' for Active; 'I' for Inactive)
REMARK    1  A    between atoms: C_1  and  C_2
REMARK    2  A    between atoms: C_2  and  C_3
REMARK    3  A    between atoms: N_5  and  C_6
REMARK    4  A    between atoms: C_9  and  N_12
REMARK    5  A    between atoms: N_12  and  C_13
REMARK    6  A    between atoms: C_13  and  C_15
REMARK    7  A    between atoms: C_13  and  C_16
REMARK    8  A    between atoms: N_21  and  C_22
REMARK    9  A    between atoms: C_22  and  C_23
REMARK   10  A    between atoms: C_22  and  C_24
REMARK   11  A    between atoms: C_22  and  C_25
REMARK                            x       y       z     vdW  Elec       q    Type
REMARK                         _______ _______ _______ _____ _____    ______ ____
ROOT
ATOM      1  N   UNL     1       3.793  -3.393  -5.914  0.00  0.00    -0.333 N 
ATOM      2  H   UNL     1       4.194  -2.726  -6.492  0.00  0.00    +0.147 HD
ENDROOT
BRANCH   1   6
ATOM      3  C   UNL     1       1.588  -2.210  -2.580  0.00  0.00    +0.033 A 
ATOM      4  C   UNL     1       2.162  -1.254  -3.408  0.00  0.00    +0.025 A 
ATOM      5  C   UNL     1       2.892  -1.646  -4.512  0.00  0.00    +0.025 A 
ATOM      6  C   UNL     1       3.053  -2.996  -4.795  0.00  0.00    +0.028 A 
ATOM      7  C   UNL     1       2.479  -3.952  -3.967  0.00  0.00    +0.025 A 
ATOM      8  C   UNL     1       1.753  -3.560  -2.860  0.00  0.00    +0.025 A 
BRANCH   3  11
ATOM      9  C   UNL     1       0.888  -2.545  -0.329  0.00  0.00    +0.217 C 
ATOM     10  O   UNL     1       1.499  -3.593  -0.308  0.00  0.00    -0.275 OA
ATOM     11  N   UNL     1       0.847  -1.812  -1.460  0.00  0.00    -0.286 N 
ATOM     12  H   UNL     1       0.304  -1.009  -1.497  0.00  0.00    +0.155 HD
BRANCH   9  14
ATOM     13  C   UNL     1       0.379  -3.073   2.040  0.00  0.00    +0.013 C 
ATOM     14  C   UNL     1       0.175  -2.063   0.908  0.00  0.00    +0.093 C 
ENDBRANCH   9  14
ENDBRANCH   3  11
ENDBRANCH   1   6
BRANCH   1  15
ATOM     15  C   UNL     1       3.962  -4.818  -6.212  0.00  0.00    +0.154 C 
ATOM     16  C   UNL     1       2.759  -5.318  -7.013  0.00  0.00    +0.038 C 
BRANCH  15  17
ATOM     17  C   UNL     1       5.220  -5.016  -7.019  0.00  0.00    +0.240 C 
ATOM     18  O   UNL     1       5.907  -4.062  -7.315  0.00  0.00    -0.273 OA
ATOM     19  N   UNL     1       5.581  -6.254  -7.410  0.00  0.00    -0.239 N 
ATOM     20  C   UNL     1       6.706  -6.431  -8.132  0.00  0.00    +0.306 C 
ATOM     21  O   UNL     1       7.394  -5.475  -8.429  0.00  0.00    -0.252 OA
ATOM     22  N   UNL     1       7.067  -7.669  -8.523  0.00  0.00    -0.294 N 
ATOM     23  H   UNL     1       5.032  -7.017  -7.173  0.00  0.00    +0.159 HD
ATOM     24  H   UNL     1       6.518  -8.432  -8.286  0.00  0.00    +0.151 HD
BRANCH  22  25
ATOM     25  C   UNL     1       8.290  -7.862  -9.307  0.00  0.00    +0.028 C 
ATOM     26  C   UNL     1       9.493  -7.362  -8.506  0.00  0.00    +0.031 C 
ATOM     27  C   UNL     1       8.467  -9.349  -9.619  0.00  0.00    +0.031 C 
ATOM     28  C   UNL     1       8.185  -7.076 -10.616  0.00  0.00    +0.031 C 
ENDBRANCH  22  25
ENDBRANCH  15  17
ENDBRANCH   1  15
TORSDOF 6
