REMARK  Name = ZINC30895158
REMARK  4 active torsions:
REMARK  status: ('A' for Active; 'I' for Inactive)
REMARK    1  A    between atoms: C_10  and  C_12
REMARK    2  A    between atoms: C_12  and  N_13
REMARK    3  A    between atoms: C_14  and  C_16
REMARK    4  A    between atoms: C_20  and  N_22
REMARK                            x       y       z     vdW  Elec       q    Type
REMARK                         _______ _______ _______ _____ _____    ______ ____
ROOT
ATOM      1  N   UNL     1      -2.417   4.128  -0.902  0.00  0.00    -0.311 N 
ATOM      2  C   UNL     1      -2.577   5.167  -1.746  0.00  0.00    +0.244 C 
ATOM      3  O   UNL     1      -1.691   5.460  -2.524  0.00  0.00    -0.270 OA
ATOM      4  H   UNL     1      -3.219   3.862  -0.198  0.00  0.00    +0.149 HD
ENDROOT
BRANCH   2   5
ATOM      5  C   UNL     1      -3.832   5.949  -1.725  0.00  0.00    +0.039 A 
ATOM      6  C   UNL     1      -4.852   5.614  -0.833  0.00  0.00    +0.013 A 
ATOM      7  C   UNL     1      -6.020   6.348  -0.819  0.00  0.00    +0.003 A 
ATOM      8  C   UNL     1      -6.181   7.414  -1.686  0.00  0.00    +0.033 A 
ATOM      9  C   UNL     1      -5.174   7.751  -2.572  0.00  0.00    +0.127 A 
ATOM     10  C   UNL     1      -3.999   7.028  -2.593  0.00  0.00    +0.045 A 
BRANCH   9  11
ATOM     11  N   UNL     1      -5.355   8.894  -3.496  0.00  0.00    +0.056 N 
ATOM     12  O   UNL     1      -6.390   9.535  -3.475  0.00  0.00    -0.126 OA
ATOM     13  O   UNL     1      -4.469   9.192  -4.277  0.00  0.00    -0.126 OA
ENDBRANCH   9  11
ENDBRANCH   2   5
BRANCH   1  14
ATOM     14  C   UNL     1      -1.174   3.353  -0.923  0.00  0.00    +0.112 C 
BRANCH  14  24
ATOM     15  C   UNL     1       2.485   0.174   0.188  0.00  0.00    +0.000 A 
ATOM     16  C   UNL     1       2.410   1.555   0.184  0.00  0.00    +0.000 A 
ATOM     17  C   UNL     1       1.179   2.174   0.128  0.00  0.00    +0.004 A 
ATOM     18  C   UNL     1       0.012   1.422   0.075  0.00  0.00    -0.040 A 
ATOM     19  C   UNL     1       0.087   0.047   0.073  0.00  0.00    -0.044 A 
ATOM     20  C   UNL     1       1.328  -0.574   0.133  0.00  0.00    +0.004 A 
ATOM     21  C   UNL     1      -1.135  -0.831   0.001  0.00  0.00    +0.035 C 
ATOM     22  C   UNL     1      -2.386  -0.042   0.380  0.00  0.00    +0.005 C 
ATOM     23  C   UNL     1      -2.419   1.244  -0.455  0.00  0.00    +0.010 C 
ATOM     24  C   UNL     1      -1.299   2.163   0.031  0.00  0.00    +0.036 C 
ENDBRANCH  14  24
ENDBRANCH   1  14
TORSDOF 4
