REMARK  Name = ZINC39730022
REMARK  7 active torsions:
REMARK  status: ('A' for Active; 'I' for Inactive)
REMARK    1  A    between atoms: C_1  and  C_2
REMARK    2  A    between atoms: C_2  and  S_3
REMARK    3  A    between atoms: S_3  and  C_4
REMARK    4  A    between atoms: C_10  and  C_24
REMARK    5  A    between atoms: C_15  and  C_19
REMARK    6  A    between atoms: C_15  and  C_20
REMARK    7  A    between atoms: C_27  and  N_30
REMARK                            x       y       z     vdW  Elec       q    Type
REMARK                         _______ _______ _______ _____ _____    ______ ____
ROOT
ATOM      1  C   UNL     1       0.818  -2.359   1.317  0.00  0.00    +0.182 C 
ATOM      2  N   UNL     1       0.210  -2.888   0.262  0.00  0.00    -0.154 NA
ATOM      3  C   UNL     1       0.210  -4.194   0.042  0.00  0.00    +0.250 C 
ATOM      4  O   UNL     1      -0.399  -4.640  -0.911  0.00  0.00    -0.273 OA
ATOM      5  C   UNL     1       0.948  -5.129   0.947  0.00  0.00    +0.156 C 
ATOM      6  C   UNL     1       0.092  -6.324   1.354  0.00  0.00    +0.073 C 
ATOM      7  C   UNL     1       0.844  -7.109   2.409  0.00  0.00    +0.025 C 
ATOM      8  C   UNL     1       1.670  -6.432   3.311  0.00  0.00    +0.051 C 
ATOM      9  C   UNL     1       2.401  -7.193   4.392  0.00  0.00    +0.062 C 
ATOM     10  C   UNL     1       1.605  -8.450   4.753  0.00  0.00    -0.023 C 
ATOM     11  C   UNL     1       1.407  -9.286   3.485  0.00  0.00    +0.086 C 
ATOM     12  C   UNL     1       0.696  -8.453   2.453  0.00  0.00    +0.162 C 
ATOM     13  O   UNL     1      -0.104  -9.057   1.555  0.00  0.00    -0.292 OA
ATOM     14  C   UNL     1       0.243  -8.050   5.323  0.00  0.00    +0.011 C 
ATOM     15  C   UNL     1       2.380  -9.267   5.790  0.00  0.00    +0.011 C 
ATOM     16  N   UNL     1       1.851  -5.127   3.223  0.00  0.00    -0.236 NA
ATOM     17  C   UNL     1       1.426  -4.421   2.185  0.00  0.00    +0.145 C 
ATOM     18  N   UNL     1       1.388  -3.107   2.261  0.00  0.00    -0.208 NA
ENDROOT
BRANCH   6  19
ATOM     19  C   UNL     1      -0.163  -7.199   0.154  0.00  0.00    -0.039 A 
ATOM     20  C   UNL     1       0.898  -7.773  -0.520  0.00  0.00    +0.006 A 
ATOM     21  C   UNL     1       0.665  -8.576  -1.621  0.00  0.00    +0.033 A 
ATOM     22  C   UNL     1      -0.630  -8.805  -2.048  0.00  0.00    +0.126 A 
ATOM     23  C   UNL     1      -1.691  -8.231  -1.373  0.00  0.00    +0.033 A 
ATOM     24  C   UNL     1      -1.458  -7.432  -0.269  0.00  0.00    +0.006 A 
BRANCH  22  25
ATOM     25  N   UNL     1      -0.880  -9.663  -3.227  0.00  0.00    +0.056 N 
ATOM     26  O   UNL     1       0.049 -10.164  -3.818  0.00  0.00    -0.126 OA
ATOM     27  O   UNL     1      -2.012  -9.863  -3.600  0.00  0.00    -0.126 OA
ENDBRANCH  22  25
ENDBRANCH   6  19
BRANCH   1  28
ATOM     28  S   UNL     1       0.879  -0.605   1.472  0.00  0.00    -0.089 S 
BRANCH  28  30
ATOM     29  C   UNL     1      -0.019   1.526   0.010  0.00  0.00    +0.016 C 
ATOM     30  C   UNL     1       0.002  -0.004   0.002  0.00  0.00    +0.074 C 
ENDBRANCH  28  30
ENDBRANCH   1  28
TORSDOF 4
