REMARK  Name = ZINC67332879
REMARK  8 active torsions:
REMARK  status: ('A' for Active; 'I' for Inactive)
REMARK    1  A    between atoms: C_1  and  C_2
REMARK    2  A    between atoms: C_3  and  S_24
REMARK    3  A    between atoms: C_5  and  C_7
REMARK    4  A    between atoms: N_9  and  C_10
REMARK    5  A    between atoms: C_10  and  C_11
REMARK    6  A    between atoms: N_16  and  C_17
REMARK    7  A    between atoms: C_17  and  C_18
REMARK    8  A    between atoms: S_24  and  N_27
REMARK                            x       y       z     vdW  Elec       q    Type
REMARK                         _______ _______ _______ _____ _____    ______ ____
ROOT
ATOM      1  C   UNL     1       1.076  -3.942  -0.025  0.00  0.00    +0.251 C 
ATOM      2  O   UNL     1       0.342  -4.913  -0.028  0.00  0.00    -0.270 OA
ATOM      3  N   UNL     1       2.413  -4.108  -0.033  0.00  0.00    -0.312 N 
ATOM      4  H   UNL     1       2.998  -3.334  -0.031  0.00  0.00    +0.149 HD
ENDROOT
BRANCH   1   9
ATOM      5  C   UNL     1      -0.018   1.503   0.010  0.00  0.00    +0.053 C 
ATOM      6  C   UNL     1       0.002  -0.004   0.002  0.00  0.00    +0.014 A 
ATOM      7  C   UNL     1      -1.056  -0.852   0.002  0.00  0.00    +0.116 A 
ATOM      8  C   UNL     1      -0.827  -2.207  -0.007  0.00  0.00    +0.049 A 
ATOM      9  C   UNL     1       0.505  -2.592  -0.015  0.00  0.00    +0.076 A 
ATOM     10  S   UNL     1       1.341  -1.018  -0.017  0.00  0.00    -0.087 S 
BRANCH   7  11
ATOM     11  S   UNL     1      -2.703  -0.224   0.014  0.00  0.00    +0.057 S 
ATOM     12  O   UNL     1      -2.768   0.764  -1.006  0.00  0.00    -0.153 OA
ATOM     13  O   UNL     1      -3.567  -1.352   0.038  0.00  0.00    -0.153 OA
BRANCH  11  14
ATOM     14  N   UNL     1      -2.915   0.566   1.453  0.00  0.00    -0.203 NA
ATOM     15  H   UNL     1      -3.526   1.318   1.508  0.00  0.00    +0.144 HD
ATOM     16  H   UNL     1      -2.430   0.277   2.242  0.00  0.00    +0.144 HD
ENDBRANCH  11  14
ENDBRANCH   7  11
ENDBRANCH   1   9
BRANCH   3  17
ATOM     17  C   UNL     1       2.984  -5.457  -0.043  0.00  0.00    +0.089 C 
BRANCH  17  18
ATOM     18  C   UNL     1       4.511  -5.365  -0.050  0.00  0.00    -0.051 C 
ATOM     19  C   UNL     1       5.123  -6.773   0.110  0.00  0.00    -0.016 C 
ATOM     20  C   UNL     1       6.348  -6.520   1.027  0.00  0.00    -0.020 C 
ATOM     21  C   UNL     1       5.814  -5.407   1.963  0.00  0.00    -0.078 C 
ATOM     22  N   UNL     1       4.970  -4.554   1.093  0.00  0.00    +0.383 N 
ATOM     23  H   UNL     1       4.172  -4.220   1.614  0.00  0.00    -0.081 HD
BRANCH  22  24
ATOM     24  C   UNL     1       5.753  -3.411   0.606  0.00  0.00    -0.075 C 
BRANCH  24  25
ATOM     25  C   UNL     1       6.121  -2.505   1.783  0.00  0.00    -0.028 C 
ATOM     26  C   UNL     1       4.848  -1.899   2.377  0.00  0.00    +0.002 C 
ATOM     27  C   UNL     1       5.215  -0.994   3.554  0.00  0.00    +0.000 C 
ATOM     28  C   UNL     1       6.135   0.128   3.067  0.00  0.00    +0.000 C 
ATOM     29  C   UNL     1       7.408  -0.478   2.473  0.00  0.00    +0.000 C 
ATOM     30  C   UNL     1       7.040  -1.384   1.296  0.00  0.00    +0.002 C 
ENDBRANCH  24  25
ENDBRANCH  22  24
ENDBRANCH  17  18
ENDBRANCH   3  17
TORSDOF 7
