REMARK  Name = ZINC12635714
REMARK  6 active torsions:
REMARK  status: ('A' for Active; 'I' for Inactive)
REMARK    1  A    between atoms: C_1  and  C_2
REMARK    2  A    between atoms: C_6  and  O_9
REMARK    3  A    between atoms: C_7  and  C_8
REMARK    4  A    between atoms: O_9  and  C_10
REMARK    5  A    between atoms: C_10  and  C_11
REMARK    6  A    between atoms: N_13  and  N_14
REMARK                            x       y       z     vdW  Elec       q    Type
REMARK                         _______ _______ _______ _____ _____    ______ ____
ROOT
ATOM      1  C   UNL     1       0.083  -4.787   3.662  0.00  0.00    +0.270 C 
ATOM      2  O   UNL     1       0.077  -4.055   4.629  0.00  0.00    -0.270 OA
ATOM      3  N   UNL     1       0.101  -6.125   3.830  0.00  0.00    -0.202 N 
ATOM      4  H   UNL     1       0.105  -6.710   3.056  0.00  0.00    +0.177 HD
ENDROOT
BRANCH   3   5
ATOM      5  N   UNL     1       0.114  -6.669   5.120  0.00  0.00    -0.162 NA
ATOM      6  C   UNL     1       0.132  -7.970   5.283  0.00  0.00    +0.158 C 
ATOM      7  C   UNL     1       0.142  -8.684   6.576  0.00  0.00    +0.029 A 
ATOM      8  C   UNL     1       0.136  -8.293   7.907  0.00  0.00    +0.012 A 
ATOM      9  C   UNL     1       0.150  -9.252   8.902  0.00  0.00    +0.001 A 
ATOM     10  C   UNL     1       0.169 -10.600   8.580  0.00  0.00    +0.001 A 
ATOM     11  C   UNL     1       0.175 -11.008   7.261  0.00  0.00    +0.012 A 
ATOM     12  C   UNL     1       0.161 -10.056   6.246  0.00  0.00    +0.023 A 
ATOM     13  C   UNL     1       0.162 -10.118   4.777  0.00  0.00    +0.103 C 
ATOM     14  N   UNL     1       0.140  -8.901   4.291  0.00  0.00    -0.326 N 
ATOM     15  N   UNL     1       0.179 -11.277   4.027  0.00  0.00    -0.344 N 
ATOM     16  H   UNL     1       0.191 -12.141   4.469  0.00  0.00    +0.144 HD
ATOM     17  H   UNL     1       0.179 -11.228   3.058  0.00  0.00    +0.144 HD
ATOM     18  H   UNL     1       0.132  -8.690   3.344  0.00  0.00    +0.169 HD
ENDBRANCH   3   5
BRANCH   1  19
ATOM     19  C   UNL     1       0.069  -4.202   2.274  0.00  0.00    +0.326 C 
BRANCH  19  20
ATOM     20  O   UNL     1       0.050  -2.776   2.358  0.00  0.00    -0.482 OA
BRANCH  20  26
ATOM     21  C   UNL     1      -0.018   1.503   0.010  0.00  0.00    +0.044 C 
ATOM     22  C   UNL     1       0.002  -0.004   0.002  0.00  0.00    -0.044 A 
ATOM     23  C   UNL     1       0.006  -0.688  -1.200  0.00  0.00    +0.004 A 
ATOM     24  C   UNL     1       0.024  -2.071  -1.211  0.00  0.00    +0.004 A 
ATOM     25  C   UNL     1       0.039  -2.772  -0.020  0.00  0.00    +0.046 A 
ATOM     26  C   UNL     1       0.035  -2.088   1.186  0.00  0.00    +0.124 A 
ATOM     27  C   UNL     1       0.023  -0.700   1.195  0.00  0.00    -0.006 A 
ATOM     28  C   UNL     1       0.026   0.046   2.504  0.00  0.00    +0.048 C 
ENDBRANCH  20  26
ENDBRANCH  19  20
ENDBRANCH   1  19
TORSDOF 4
