REMARK  Name = ZINC59936724
REMARK  11 active torsions:
REMARK  status: ('A' for Active; 'I' for Inactive)
REMARK    1  A    between atoms: C_1  and  C_2
REMARK    2  A    between atoms: C_2  and  C_3
REMARK    3  A    between atoms: C_2  and  C_4
REMARK    4  A    between atoms: C_2  and  O_5
REMARK    5  A    between atoms: O_5  and  C_6
REMARK    6  A    between atoms: C_11  and  N_14
REMARK    7  A    between atoms: C_15  and  C_17
REMARK    8  A    between atoms: C_17  and  C_18
REMARK    9  A    between atoms: C_18  and  C_19
REMARK   10  A    between atoms: C_19  and  C_20
REMARK   11  A    between atoms: C_20  and  C_21
REMARK                            x       y       z     vdW  Elec       q    Type
REMARK                         _______ _______ _______ _____ _____    ______ ____
ROOT
ATOM      1  N   UNL     1       5.126  -3.322  -4.256  0.00  0.00    -0.312 N 
ATOM      2  C   UNL     1       6.220  -3.230  -5.038  0.00  0.00    +0.213 C 
ATOM      3  O   UNL     1       6.521  -2.166  -5.538  0.00  0.00    -0.276 OA
ATOM      4  H   UNL     1       4.886  -4.172  -3.857  0.00  0.00    +0.149 HD
ENDROOT
BRANCH   1  10
ATOM      5  C   UNL     1       1.952  -0.085  -1.337  0.00  0.00    +0.403 C 
ATOM      6  O   UNL     1       2.488   0.619  -0.503  0.00  0.00    -0.226 OA
ATOM      7  N   UNL     1       2.641  -0.485  -2.424  0.00  0.00    -0.267 N 
ATOM      8  C   UNL     1       2.005  -1.331  -3.443  0.00  0.00    +0.113 C 
ATOM      9  C   UNL     1       2.874  -2.573  -3.666  0.00  0.00    +0.041 C 
ATOM     10  C   UNL     1       4.300  -2.137  -4.011  0.00  0.00    +0.076 C 
ATOM     11  C   UNL     1       4.888  -1.339  -2.845  0.00  0.00    +0.041 C 
ATOM     12  C   UNL     1       4.040  -0.078  -2.616  0.00  0.00    +0.113 C 
BRANCH   5  13
ATOM     13  O   UNL     1       0.671  -0.465  -1.174  0.00  0.00    -0.445 OA
BRANCH  13  15
ATOM     14  C   UNL     1      -0.019   1.526   0.010  0.00  0.00    +0.055 C 
ATOM     15  C   UNL     1       0.002  -0.004   0.002  0.00  0.00    +0.107 C 
ATOM     16  C   UNL     1       0.742  -0.511   1.242  0.00  0.00    +0.055 C 
ATOM     17  C   UNL     1      -1.433  -0.534   0.013  0.00  0.00    +0.055 C 
ENDBRANCH  13  15
ENDBRANCH   5  13
ENDBRANCH   1  10
BRANCH   2  18
ATOM     18  C   UNL     1       7.070  -4.448  -5.291  0.00  0.00    +0.096 C 
BRANCH  18  19
ATOM     19  C   UNL     1       8.241  -4.074  -6.202  0.00  0.00    +0.009 C 
BRANCH  19  20
ATOM     20  C   UNL     1       9.103  -5.311  -6.459  0.00  0.00    +0.002 C 
BRANCH  20  21
ATOM     21  C   UNL     1      10.274  -4.936  -7.371  0.00  0.00    +0.016 C 
BRANCH  21  22
ATOM     22  C   UNL     1      11.136  -6.173  -7.627  0.00  0.00    +0.069 C 
ATOM     23  C   UNL     1      12.306  -5.846  -8.580  0.00  0.00    +0.108 C 
ATOM     24  C   UNL     1      13.625  -6.519  -8.189  0.00  0.00    +0.105 C 
ATOM     25  C   UNL     1      13.526  -7.385  -6.915  0.00  0.00    +0.093 C 
ATOM     26  S   UNL     1      12.040  -6.680  -6.100  0.00  0.00    -0.154 S 
ATOM     27  N   UNL     1      14.537  -5.394  -7.927  0.00  0.00    -0.294 N 
ATOM     28  C   UNL     1      13.879  -4.244  -8.126  0.00  0.00    +0.300 C 
ATOM     29  O   UNL     1      14.394  -3.152  -7.980  0.00  0.00    -0.253 OA
ATOM     30  N   UNL     1      12.609  -4.408  -8.492  0.00  0.00    -0.294 N 
ATOM     31  H   UNL     1      15.464  -5.473  -7.654  0.00  0.00    +0.151 HD
ATOM     32  H   UNL     1      11.985  -3.689  -8.675  0.00  0.00    +0.151 HD
ENDBRANCH  21  22
ENDBRANCH  20  21
ENDBRANCH  19  20
ENDBRANCH  18  19
ENDBRANCH   2  18
TORSDOF 8
