REMARK  Name = ZINC35709710
REMARK  7 active torsions:
REMARK  status: ('A' for Active; 'I' for Inactive)
REMARK    1  A    between atoms: C_1  and  C_2
REMARK    2  A    between atoms: C_3  and  C_26
REMARK    3  A    between atoms: C_4  and  C_19
REMARK    4  A    between atoms: C_7  and  C_12
REMARK    5  A    between atoms: C_13  and  N_15
REMARK    6  A    between atoms: N_15  and  C_16
REMARK    7  A    between atoms: N_28  and  C_29
REMARK                            x       y       z     vdW  Elec       q    Type
REMARK                         _______ _______ _______ _____ _____    ______ ____
ROOT
ATOM      1  C   UNL     1      -0.819   1.449   0.038  0.00  0.00    +0.066 C 
ATOM      2  C   UNL     1      -0.455  -0.011   0.124  0.00  0.00    +0.051 C 
ATOM      3  C   UNL     1      -1.439  -0.970   0.004  0.00  0.00    +0.060 C 
ATOM      4  C   UNL     1      -1.025  -2.422   0.098  0.00  0.00    +0.148 C 
ATOM      5  N   UNL     1       0.420  -2.700   0.312  0.00  0.00    -0.267 N 
ATOM      6  C   UNL     1       1.020  -3.939   0.427  0.00  0.00    +0.048 C 
ATOM      7  C   UNL     1       2.357  -3.972   0.620  0.00  0.00    +0.072 C 
ATOM      8  S   UNL     1       2.770  -2.239   0.640  0.00  0.00    -0.060 S 
ATOM      9  C   UNL     1       1.234  -1.606   0.404  0.00  0.00    +0.166 C 
ATOM     10  N   UNL     1       0.808  -0.364   0.309  0.00  0.00    -0.230 NA
ENDROOT
BRANCH   4  11
ATOM     11  C   UNL     1      -1.791  -3.051   1.232  0.00  0.00    -0.022 A 
ATOM     12  C   UNL     1      -1.524  -2.680   2.536  0.00  0.00    +0.007 A 
ATOM     13  C   UNL     1      -2.227  -3.257   3.577  0.00  0.00    +0.020 A 
ATOM     14  C   UNL     1      -3.198  -4.206   3.314  0.00  0.00    +0.041 A 
ATOM     15  C   UNL     1      -3.465  -4.577   2.008  0.00  0.00    +0.020 A 
ATOM     16  C   UNL     1      -2.765  -3.996   0.967  0.00  0.00    +0.007 A 
ATOM     17 CL   UNL     1      -4.081  -4.931   4.620  0.00  0.00    -0.084 Cl
ENDBRANCH   4  11
BRANCH   3  18
ATOM     18  C   UNL     1      -2.780  -0.611  -0.197  0.00  0.00    +0.244 C 
ATOM     19  O   UNL     1      -3.110   0.562  -0.156  0.00  0.00    -0.270 OA
ATOM     20  N   UNL     1      -3.704  -1.563  -0.436  0.00  0.00    -0.315 N 
ATOM     21  C   UNL     1      -5.084  -1.183  -0.750  0.00  0.00    +0.128 C 
ATOM     22  H   UNL     1      -3.456  -2.500  -0.400  0.00  0.00    +0.149 HD
ENDBRANCH   3  18
BRANCH   6  23
ATOM     23  C   UNL     1       0.232  -5.177   0.342  0.00  0.00    +0.091 C 
ATOM     24  C   UNL     1       0.819  -6.366   0.580  0.00  0.00    +0.239 C 
ATOM     25  O   UNL     1       2.156  -6.432   0.791  0.00  0.00    -0.271 OA
BRANCH  24  26
ATOM     26  N   UNL     1       0.055  -7.521   0.610  0.00  0.00    -0.309 N 
ATOM     27  H   UNL     1      -0.888  -7.485   0.385  0.00  0.00    +0.149 HD
BRANCH  26  28
ATOM     28  C   UNL     1       0.672  -8.797   0.979  0.00  0.00    +0.073 C 
ATOM     29  C   UNL     1       0.388 -10.005   0.083  0.00  0.00    +0.024 C 
ATOM     30  C   UNL     1      -0.253  -9.913   1.470  0.00  0.00    +0.024 C 
ENDBRANCH  26  28
ENDBRANCH  24  26
ENDBRANCH   6  23
TORSDOF 5
