REMARK  Name = ZINC62158877
REMARK  7 active torsions:
REMARK  status: ('A' for Active; 'I' for Inactive)
REMARK    1  A    between atoms: C_1  and  C_2
REMARK    2  A    between atoms: C_6  and  C_12
REMARK    3  A    between atoms: N_10  and  C_11
REMARK    4  A    between atoms: C_12  and  N_13
REMARK    5  A    between atoms: N_13  and  S_14
REMARK    6  A    between atoms: S_14  and  C_17
REMARK    7  A    between atoms: C_21  and  N_23
REMARK                            x       y       z     vdW  Elec       q    Type
REMARK                         _______ _______ _______ _____ _____    ______ ____
ROOT
ATOM      1  N   UNL     1       1.464  -6.290  -1.544  0.00  0.00    -0.186 NA
ATOM      2  H   UNL     1       2.184  -5.646  -1.454  0.00  0.00    +0.148 HD
ENDROOT
BRANCH   1   3
ATOM      3  S   UNL     1       1.803  -7.855  -1.969  0.00  0.00    +0.059 S 
ATOM      4  O   UNL     1       3.210  -7.930  -2.153  0.00  0.00    -0.153 OA
ATOM      5  O   UNL     1       1.110  -8.685  -1.046  0.00  0.00    -0.153 OA
BRANCH   3   6
ATOM      6  C   UNL     1       1.073  -8.136  -3.547  0.00  0.00    +0.107 A 
ATOM      7  C   UNL     1      -0.225  -8.604  -3.635  0.00  0.00    +0.028 A 
ATOM      8  C   UNL     1      -0.798  -8.825  -4.873  0.00  0.00    +0.004 A 
ATOM      9  C   UNL     1      -0.074  -8.578  -6.024  0.00  0.00    +0.033 A 
ATOM     10  C   UNL     1       1.224  -8.109  -5.936  0.00  0.00    +0.128 A 
ATOM     11  C   UNL     1       1.795  -7.884  -4.698  0.00  0.00    +0.061 A 
BRANCH  10  12
ATOM     12  N   UNL     1       2.000  -7.845  -7.169  0.00  0.00    +0.056 N 
ATOM     13  O   UNL     1       1.499  -8.039  -8.252  0.00  0.00    -0.126 OA
ATOM     14  O   UNL     1       3.135  -7.435  -7.092  0.00  0.00    -0.126 OA
ENDBRANCH  10  12
ENDBRANCH   3   6
ENDBRANCH   1   3
BRANCH   1  15
ATOM     15  C   UNL     1       0.079  -5.880  -1.306  0.00  0.00    +0.141 C 
BRANCH  15  21
ATOM     16  C   UNL     1      -0.018   1.503   0.010  0.00  0.00    +0.063 C 
ATOM     17  C   UNL     1       0.002  -0.004   0.002  0.00  0.00    +0.016 A 
ATOM     18  C   UNL     1       0.008  -0.769  -1.101  0.00  0.00    +0.031 A 
ATOM     19  C   UNL     1       0.030  -2.164  -0.655  0.00  0.00    +0.000 A 
ATOM     20  C   UNL     1       0.044  -3.394  -1.316  0.00  0.00    +0.015 A 
ATOM     21  C   UNL     1       0.064  -4.552  -0.593  0.00  0.00    -0.031 A 
ATOM     22  C   UNL     1       0.069  -4.517   0.795  0.00  0.00    +0.007 A 
ATOM     23  C   UNL     1       0.055  -3.315   1.468  0.00  0.00    +0.027 A 
ATOM     24  C   UNL     1       0.035  -2.122   0.751  0.00  0.00    +0.049 A 
ATOM     25  N   UNL     1       0.023  -0.795   1.118  0.00  0.00    -0.347 N 
ATOM     26  C   UNL     1       0.030  -0.304   2.498  0.00  0.00    +0.149 C 
ENDBRANCH  15  21
ENDBRANCH   1  15
TORSDOF 5
