REMARK  Name = ZINC39530741
REMARK  10 active torsions:
REMARK  status: ('A' for Active; 'I' for Inactive)
REMARK    1  A    between atoms: C_1  and  C_2
REMARK    2  A    between atoms: C_2  and  C_3
REMARK    3  A    between atoms: C_2  and  S_4
REMARK    4  A    between atoms: S_4  and  C_7
REMARK    5  A    between atoms: C_9  and  S_30
REMARK    6  A    between atoms: C_12  and  N_13
REMARK    7  A    between atoms: C_17  and  S_20
REMARK    8  A    between atoms: S_20  and  O_23
REMARK    9  A    between atoms: O_23  and  C_24
REMARK   10  A    between atoms: S_30  and  C_31
REMARK                            x       y       z     vdW  Elec       q    Type
REMARK                         _______ _______ _______ _____ _____    ______ ____
ROOT
ATOM      1  N   UNL     1      -0.349  -2.603  -1.776  0.00  0.00    -0.330 N 
ATOM      2  C   UNL     1       1.070  -2.217  -1.820  0.00  0.00    +0.086 C 
ATOM      3  C   UNL     1       1.698  -2.820  -3.081  0.00  0.00    -0.061 C 
ATOM      4  N   UNL     1       0.922  -2.409  -4.258  0.00  0.00    +0.398 N 
ATOM      5  C   UNL     1      -0.433  -2.971  -4.184  0.00  0.00    +0.133 C 
ATOM      6  C   UNL     1      -1.165  -2.381  -2.980  0.00  0.00    +0.115 C 
ATOM      7  H   UNL     1       0.866  -1.403  -4.287  0.00  0.00    -0.083 HD
ATOM      8  H   UNL     1       1.378  -2.744  -5.093  0.00  0.00    -0.083 HD
ENDROOT
BRANCH   1  14
ATOM      9  C   UNL     1      -1.516  -2.359   0.325  0.00  0.00    +0.110 A 
ATOM     10  C   UNL     1      -2.069  -2.919   1.459  0.00  0.00    +0.043 A 
ATOM     11  C   UNL     1      -2.012  -4.293   1.654  0.00  0.00    +0.010 A 
ATOM     12  C   UNL     1      -1.397  -5.103   0.708  0.00  0.00    +0.016 A 
ATOM     13  C   UNL     1      -0.844  -4.543  -0.426  0.00  0.00    +0.026 A 
ATOM     14  C   UNL     1      -0.906  -3.170  -0.623  0.00  0.00    +0.055 A 
BRANCH   9  15
ATOM     15  S   UNL     1      -1.589  -0.616   0.076  0.00  0.00    +0.001 S 
ATOM     16  O   UNL     1      -0.728  -0.370  -1.027  0.00  0.00    -0.169 OA
ATOM     17  O   UNL     1      -1.309  -0.056   1.352  0.00  0.00    -0.169 OA
BRANCH  15  19
ATOM     18  C   UNL     1      -3.493   1.217  -0.629  0.00  0.00    +0.032 C 
ATOM     19  C   UNL     1      -3.311  -0.283  -0.388  0.00  0.00    +0.130 C 
ATOM     20  C   UNL     1      -3.651  -1.050  -1.668  0.00  0.00    +0.032 C 
ENDBRANCH  15  19
ENDBRANCH   9  15
BRANCH  11  21
ATOM     21  S   UNL     1      -2.718  -5.007   3.102  0.00  0.00    -0.129 S 
ATOM     22  C   UNL     1      -2.402  -6.783   2.913  0.00  0.00    +0.090 C 
ENDBRANCH  11  21
ENDBRANCH   1  14
BRANCH   5  23
ATOM     23  S   UNL     1      -1.339  -2.567  -5.703  0.00  0.00    +0.109 S 
ATOM     24  O   UNL     1      -2.584  -3.251  -5.727  0.00  0.00    -0.138 OA
ATOM     25  O   UNL     1      -1.274  -1.170  -5.955  0.00  0.00    -0.138 OA
BRANCH  23  26
ATOM     26  O   UNL     1      -0.526  -3.201  -6.823  0.00  0.00    -0.347 OA
BRANCH  26  27
ATOM     27  C   UNL     1      -0.656  -4.552  -6.904  0.00  0.00    +0.156 A 
ATOM     28  C   UNL     1       0.203  -5.376  -6.191  0.00  0.00    +0.048 A 
ATOM     29  C   UNL     1       0.068  -6.748  -6.274  0.00  0.00    +0.004 A 
ATOM     30  C   UNL     1      -0.920  -7.301  -7.067  0.00  0.00    +0.000 A 
ATOM     31  C   UNL     1      -1.777  -6.481  -7.779  0.00  0.00    +0.004 A 
ATOM     32  C   UNL     1      -1.651  -5.108  -7.694  0.00  0.00    +0.048 A 
ENDBRANCH  26  27
ENDBRANCH  23  26
ENDBRANCH   5  23
TORSDOF 7
