REMARK  Name = ZINC39394908
REMARK  8 active torsions:
REMARK  status: ('A' for Active; 'I' for Inactive)
REMARK    1  A    between atoms: C_1  and  N_2
REMARK    2  A    between atoms: N_2  and  C_3
REMARK    3  A    between atoms: N_2  and  C_10
REMARK    4  A    between atoms: C_3  and  C_4
REMARK    5  A    between atoms: C_10  and  C_11
REMARK    6  A    between atoms: C_13  and  C_17
REMARK    7  A    between atoms: N_19  and  C_20
REMARK    8  A    between atoms: C_20  and  C_21
REMARK                            x       y       z     vdW  Elec       q    Type
REMARK                         _______ _______ _______ _____ _____    ______ ____
ROOT
ATOM      1  C   UNL     1      -0.106  -0.083  -2.424  0.00  0.00    +0.107 C 
ATOM      2  C   UNL     1       0.325   0.757  -3.340  0.00  0.00    +0.045 C 
ATOM      3  C   UNL     1      -0.752   0.884  -4.401  0.00  0.00    +0.204 C 
ATOM      4  N   UNL     1      -1.619  -0.291  -4.125  0.00  0.00    -0.140 NA
ATOM      5  O   UNL     1      -1.343  -0.558  -2.704  0.00  0.00    -0.412 OA
ATOM      6  H   UNL     1      -1.352  -1.079  -4.696  0.00  0.00    +0.168 HD
ENDROOT
BRANCH   3   7
ATOM      7  C   UNL     1      -1.518   2.171  -4.233  0.00  0.00    +0.237 C 
ATOM      8  O   UNL     1      -2.601   2.165  -3.686  0.00  0.00    -0.274 OA
ATOM      9  N   UNL     1      -1.001   3.328  -4.691  0.00  0.00    -0.311 N 
ATOM     10  H   UNL     1      -0.136   3.333  -5.128  0.00  0.00    +0.149 HD
BRANCH   9  11
ATOM     11  C   UNL     1      -1.747   4.579  -4.528  0.00  0.00    +0.137 C 
BRANCH  11  12
ATOM     12  C   UNL     1      -0.943   5.733  -5.129  0.00  0.00    +0.173 C 
ATOM     13  C   UNL     1      -1.762   7.008  -5.143  0.00  0.00    -0.019 C 
ATOM     14  C   UNL     1      -1.869   7.328  -6.431  0.00  0.00    +0.065 C 
ATOM     15  C   UNL     1      -2.678   8.605  -6.578  0.00  0.00    +0.057 C 
ATOM     16  C   UNL     1      -3.408   8.777  -5.228  0.00  0.00    +0.011 C 
ATOM     17  C   UNL     1      -2.474   8.006  -4.267  0.00  0.00    +0.035 C 
ATOM     18  N   UNL     1      -1.219   6.407  -7.193  0.00  0.00    -0.158 NA
ATOM     19  N   UNL     1      -0.678   5.496  -6.559  0.00  0.00    -0.178 NA
ENDBRANCH  11  12
ENDBRANCH   9  11
ENDBRANCH   3   7
BRANCH   1  20
ATOM     20  C   UNL     1       0.690  -0.478  -1.207  0.00  0.00    -0.001 C 
BRANCH  20  22
ATOM     21  C   UNL     1      -0.018   1.465   0.010  0.00  0.00    -0.095 C 
ATOM     22  N   UNL     1       0.002  -0.004   0.002  0.00  0.00    +0.385 N 
ATOM     23  H   UNL     1      -0.945  -0.353   0.009  0.00  0.00    -0.081 HD
BRANCH  22  24
ATOM     24  C   UNL     1       0.713  -0.491   1.192  0.00  0.00    -0.043 C 
BRANCH  24  25
ATOM     25  C   UNL     1      -0.059  -0.109   2.429  0.00  0.00    -0.064 A 
ATOM     26  C   UNL     1       0.188   1.099   3.053  0.00  0.00    +0.002 A 
ATOM     27  C   UNL     1      -0.520   1.449   4.188  0.00  0.00    +0.000 A 
ATOM     28  C   UNL     1      -1.476   0.591   4.698  0.00  0.00    +0.000 A 
ATOM     29  C   UNL     1      -1.724  -0.617   4.073  0.00  0.00    +0.000 A 
ATOM     30  C   UNL     1      -1.019  -0.965   2.936  0.00  0.00    +0.002 A 
ENDBRANCH  24  25
ENDBRANCH  22  24
ENDBRANCH  20  22
ENDBRANCH   1  20
TORSDOF 7
