REMARK  Name = ZINC28888554
REMARK  7 active torsions:
REMARK  status: ('A' for Active; 'I' for Inactive)
REMARK    1  A    between atoms: C_1  and  C_2
REMARK    2  A    between atoms: C_9  and  N_14
REMARK    3  A    between atoms: N_14  and  C_15
REMARK    4  A    between atoms: C_15  and  C_17
REMARK    5  A    between atoms: C_15  and  C_18
REMARK    6  A    between atoms: N_20  and  C_21
REMARK    7  A    between atoms: C_21  and  C_22
REMARK                            x       y       z     vdW  Elec       q    Type
REMARK                         _______ _______ _______ _____ _____    ______ ____
ROOT
ATOM      1  N   UNL     1       6.096   0.013  -3.103  0.00  0.00    -0.333 N 
ATOM      2  H   UNL     1       6.486  -0.555  -2.246  0.00  0.00    +0.147 HD
ENDROOT
BRANCH   1  10
ATOM      3  C   UNL     1      11.523   1.113  -8.506  0.00  0.00    +0.062 C 
ATOM      4  C   UNL     1      10.735   1.188  -7.197  0.00  0.00    +0.256 C 
ATOM      5  C   UNL     1      11.207   0.103  -6.264  0.00  0.00    +0.258 C 
ATOM      6  O   UNL     1      12.348  -0.304  -6.331  0.00  0.00    -0.271 OA
ATOM      7  N   UNL     1      10.355  -0.414  -5.352  0.00  0.00    -0.279 N 
ATOM      8  C   UNL     1       9.033   0.050  -5.317  0.00  0.00    +0.077 A 
ATOM      9  C   UNL     1       8.226  -0.198  -4.220  0.00  0.00    +0.050 A 
ATOM     10  C   UNL     1       6.916   0.265  -4.208  0.00  0.00    +0.030 A 
ATOM     11  C   UNL     1       6.423   0.983  -5.290  0.00  0.00    +0.026 A 
ATOM     12  C   UNL     1       7.231   1.235  -6.383  0.00  0.00    +0.049 A 
ATOM     13  C   UNL     1       8.535   0.771  -6.401  0.00  0.00    +0.143 A 
ATOM     14  O   UNL     1       9.342   1.014  -7.470  0.00  0.00    -0.478 OA
ATOM     15  H   UNL     1      10.703  -1.187  -4.651  0.00  0.00    +0.155 HD
ENDBRANCH   1  10
BRANCH   1  16
ATOM     16  C   UNL     1       4.716   0.507  -3.088  0.00  0.00    +0.154 C 
ATOM     17  C   UNL     1       3.808  -0.494  -3.806  0.00  0.00    +0.038 C 
BRANCH  16  18
ATOM     18  C   UNL     1       4.257   0.669  -1.662  0.00  0.00    +0.233 C 
ATOM     19  O   UNL     1       5.007   0.399  -0.748  0.00  0.00    -0.274 OA
ATOM     20  N   UNL     1       3.011   1.114  -1.401  0.00  0.00    -0.309 N 
ATOM     21  H   UNL     1       2.331   1.359  -2.230  0.00  0.00    +0.149 HD
BRANCH  20  22
ATOM     22  C   UNL     1       2.565   1.272  -0.015  0.00  0.00    +0.146 C 
BRANCH  22  23
ATOM     23  C   UNL     1       1.146   1.780   0.001  0.00  0.00    +0.007 A 
ATOM     24  C   UNL     1      -0.013   1.076   0.008  0.00  0.00    +0.013 A 
ATOM     25  C   UNL     1      -1.213   1.761   0.017  0.00  0.00    +0.008 A 
ATOM     26  C   UNL     1      -1.196   3.116   0.030  0.00  0.00    +0.045 A 
ATOM     27  S   UNL     1       0.555   3.464   0.015  0.00  0.00    -0.100 S 
ENDBRANCH  22  23
ENDBRANCH  20  22
ENDBRANCH  16  18
ENDBRANCH   1  16
TORSDOF 5
