REMARK  Name = ZINC06829846
REMARK  3 active torsions:
REMARK  status: ('A' for Active; 'I' for Inactive)
REMARK    1  A    between atoms: C_8  and  C_10
REMARK    2  A    between atoms: N_12  and  N_13
REMARK    3  A    between atoms: N_13  and  C_14
REMARK                            x       y       z     vdW  Elec       q    Type
REMARK                         _______ _______ _______ _____ _____    ______ ____
ROOT
ATOM      1  C   UNL     1       3.124  -4.013  -0.058  0.00  0.00    +0.268 C 
ATOM      2  O   UNL     1       2.293  -4.902  -0.051  0.00  0.00    -0.268 OA
ATOM      3  N   UNL     1       4.437  -4.318  -0.071  0.00  0.00    -0.232 N 
ATOM      4  H   UNL     1       5.099  -3.609  -0.076  0.00  0.00    +0.173 HD
ENDROOT
BRANCH   1  12
ATOM      5  C   UNL     1      -0.019   1.352  -0.018  0.00  0.00    +0.001 A 
ATOM      6  C   UNL     1       1.154   2.097  -0.029  0.00  0.00    +0.001 A 
ATOM      7  C   UNL     1       2.372   1.448  -0.042  0.00  0.00    +0.016 A 
ATOM      8  C   UNL     1       2.407   0.069  -0.044  0.00  0.00    +0.021 A 
ATOM      9  C   UNL     1       1.229  -0.714  -0.033  0.00  0.00    +0.008 A 
ATOM     10  C   UNL     1      -0.000  -0.006  -0.020  0.00  0.00    +0.010 A 
ATOM     11  C   UNL     1       1.431  -2.107  -0.037  0.00  0.00    +0.068 A 
ATOM     12  C   UNL     1       2.696  -2.609  -0.051  0.00  0.00    +0.095 A 
ATOM     13  S   UNL     1       3.707  -1.138  -0.059  0.00  0.00    -0.082 S 
ATOM     14 CL   UNL     1       0.069  -3.184  -0.025  0.00  0.00    -0.082 Cl
ENDBRANCH   1  12
BRANCH   3  15
ATOM     15  N   UNL     1       4.845  -5.658  -0.077  0.00  0.00    -0.268 N 
ATOM     16  H   UNL     1       4.186  -6.366   0.002  0.00  0.00    +0.170 HD
BRANCH  15  17
ATOM     17  C   UNL     1       6.167  -5.967  -0.195  0.00  0.00    +0.025 C 
ATOM     18  C   UNL     1       6.580  -7.409  -0.327  0.00  0.00    +0.052 C 
ATOM     19  C   UNL     1       7.872  -7.497  -1.145  0.00  0.00    +0.014 C 
ATOM     20  C   UNL     1       8.950  -6.652  -0.459  0.00  0.00    +0.079 C 
ATOM     21  C   UNL     1       8.451  -5.237  -0.315  0.00  0.00    +0.158 C 
ATOM     22  O   UNL     1       9.244  -4.317  -0.307  0.00  0.00    -0.293 OA
ATOM     23  C   UNL     1       7.082  -4.974  -0.197  0.00  0.00    +0.066 C 
ENDBRANCH  15  17
ENDBRANCH   3  15
TORSDOF 3
