REMARK  Name = ZINC37063163
REMARK  7 active torsions:
REMARK  status: ('A' for Active; 'I' for Inactive)
REMARK    1  A    between atoms: C_1  and  C_2
REMARK    2  A    between atoms: C_2  and  C_3
REMARK    3  A    between atoms: C_6  and  S_10
REMARK    4  A    between atoms: C_8  and  N_9
REMARK    5  A    between atoms: S_10  and  N_13
REMARK    6  A    between atoms: C_15  and  C_22
REMARK    7  A    between atoms: C_18  and  C_21
REMARK                            x       y       z     vdW  Elec       q    Type
REMARK                         _______ _______ _______ _____ _____    ______ ____
ROOT
ATOM      1  C   UNL     1       0.707  -0.490  -1.238  0.00  0.00    -0.027 A 
ATOM      2  C   UNL     1      -0.021  -0.817  -2.365  0.00  0.00    +0.007 A 
ATOM      3  C   UNL     1       0.625  -1.264  -3.502  0.00  0.00    +0.029 A 
ATOM      4  C   UNL     1       2.003  -1.384  -3.517  0.00  0.00    +0.107 A 
ATOM      5  C   UNL     1       2.737  -1.058  -2.394  0.00  0.00    +0.051 A 
ATOM      6  C   UNL     1       2.092  -0.604  -1.251  0.00  0.00    +0.030 A 
ENDROOT
BRANCH   6   7
ATOM      7  N   UNL     1       2.832  -0.269  -0.115  0.00  0.00    -0.358 N 
ATOM      8  H   UNL     1       2.380   0.044   0.684  0.00  0.00    +0.142 HD
ATOM      9  H   UNL     1       3.799  -0.349  -0.125  0.00  0.00    +0.142 HD
ENDBRANCH   6   7
BRANCH   4  10
ATOM     10  S   UNL     1       2.821  -1.954  -4.969  0.00  0.00    +0.061 S 
ATOM     11  O   UNL     1       4.065  -2.497  -4.548  0.00  0.00    -0.153 OA
ATOM     12  O   UNL     1       1.868  -2.712  -5.702  0.00  0.00    -0.153 OA
BRANCH  10  13
ATOM     13  N   UNL     1       3.173  -0.622  -5.888  0.00  0.00    -0.176 NA
ATOM     14  C   UNL     1       2.215  -0.125  -6.884  0.00  0.00    +0.112 C 
ATOM     15  C   UNL     1       1.952   1.361  -6.618  0.00  0.00    +0.002 C 
ATOM     16  C   UNL     1       3.284   2.114  -6.596  0.00  0.00    +0.009 C 
ATOM     17  C   UNL     1       4.163   1.569  -5.468  0.00  0.00    +0.002 C 
ATOM     18  C   UNL     1       4.448   0.090  -5.717  0.00  0.00    +0.112 C 
ATOM     19  C   UNL     1       3.434   1.728  -4.132  0.00  0.00    +0.009 C 
ATOM     20  C   UNL     1       1.062   1.929  -7.725  0.00  0.00    +0.009 C 
ENDBRANCH  10  13
ENDBRANCH   4  10
BRANCH   1  22
ATOM     21  C   UNL     1      -0.019   1.526   0.010  0.00  0.00    +0.009 C 
ATOM     22  C   UNL     1       0.002  -0.004   0.002  0.00  0.00    +0.033 C 
ENDBRANCH   1  22
TORSDOF 4
