REMARK  Name = ZINC25383104
REMARK  12 active torsions:
REMARK  status: ('A' for Active; 'I' for Inactive)
REMARK    1  A    between atoms: C_1  and  C_2
REMARK    2  A    between atoms: C_2  and  C_3
REMARK    3  A    between atoms: C_6  and  C_9
REMARK    4  A    between atoms: C_9  and  C_11
REMARK    5  A    between atoms: C_9  and  N_27
REMARK    6  A    between atoms: C_11  and  N_12
REMARK    7  A    between atoms: C_13  and  C_15
REMARK    8  A    between atoms: C_15  and  C_16
REMARK    9  A    between atoms: C_16  and  N_17
REMARK   10  A    between atoms: N_20  and  C_21
REMARK   11  A    between atoms: N_27  and  C_28
REMARK   12  A    between atoms: N_27  and  C_29
REMARK                            x       y       z     vdW  Elec       q    Type
REMARK                         _______ _______ _______ _____ _____    ______ ____
ROOT
ATOM      1  N   UNL     1       4.627  -4.619   0.544  0.00  0.00    -0.316 N 
ATOM      2  C   UNL     1       3.625  -3.736   0.727  0.00  0.00    +0.214 C 
ATOM      3  O   UNL     1       2.472  -4.106   0.665  0.00  0.00    -0.276 OA
ATOM      4  H   UNL     1       5.673  -4.282   0.599  0.00  0.00    +0.149 HD
ENDROOT
BRANCH   1   5
ATOM      5  C   UNL     1       4.323  -6.025   0.270  0.00  0.00    +0.093 C 
BRANCH   5   6
ATOM      6  C   UNL     1       5.622  -6.779  -0.025  0.00  0.00    -0.021 C 
BRANCH   6  10
ATOM      7  C   UNL     1       7.413  -5.202  -3.567  0.00  0.00    -0.048 A 
ATOM      8  C   UNL     1       7.879  -4.814  -2.325  0.00  0.00    +0.004 A 
ATOM      9  C   UNL     1       7.299  -5.324  -1.179  0.00  0.00    +0.002 A 
ATOM     10  C   UNL     1       6.253  -6.223  -1.274  0.00  0.00    -0.059 A 
ATOM     11  C   UNL     1       5.790  -6.615  -2.516  0.00  0.00    +0.002 A 
ATOM     12  C   UNL     1       6.367  -6.100  -3.663  0.00  0.00    +0.004 A 
BRANCH   7  14
ATOM     13  C   UNL     1       9.199  -5.552  -5.251  0.00  0.00    +0.009 C 
ATOM     14  C   UNL     1       8.045  -4.646  -4.817  0.00  0.00    +0.032 C 
ENDBRANCH   7  14
ENDBRANCH   6  10
BRANCH   6  15
ATOM     15  N   UNL     1       5.326  -8.205  -0.219  0.00  0.00    +0.382 N 
ATOM     16  C   UNL     1       6.558  -8.971  -0.453  0.00  0.00    -0.096 C 
ATOM     17  C   UNL     1       4.578  -8.748   0.923  0.00  0.00    -0.096 C 
ATOM     18  H   UNL     1       4.694  -8.301  -1.113  0.00  0.00    -0.082 HD
ENDBRANCH   6  15
ENDBRANCH   5   6
ENDBRANCH   1   5
BRANCH   2  19
ATOM     19  C   UNL     1       3.938  -2.289   1.008  0.00  0.00    +0.114 C 
BRANCH  19  20
ATOM     20  C   UNL     1       2.632  -1.508   1.174  0.00  0.00    +0.115 C 
BRANCH  20  21
ATOM     21  N   UNL     1       2.936  -0.101   1.448  0.00  0.00    -0.299 N 
ATOM     22  C   UNL     1       1.934   0.781   1.631  0.00  0.00    +0.300 C 
ATOM     23  O   UNL     1       0.778   0.410   1.569  0.00  0.00    -0.253 OA
ATOM     24  N   UNL     1       2.213   2.075   1.883  0.00  0.00    -0.297 N 
ATOM     25  H   UNL     1       3.982   0.235   1.504  0.00  0.00    +0.150 HD
ATOM     26  H   UNL     1       3.259   2.411   1.943  0.00  0.00    +0.151 HD
BRANCH  24  27
ATOM     27  C   UNL     1       1.124   3.036   2.076  0.00  0.00    +0.074 C 
ATOM     28  C   UNL     1       0.654   3.554   0.715  0.00  0.00    +0.022 C 
ATOM     29  C   UNL     1      -0.484   4.557   0.917  0.00  0.00    +0.002 C 
ATOM     30  C   UNL     1       0.014   5.729   1.764  0.00  0.00    +0.000 C 
ATOM     31  C   UNL     1       0.484   5.211   3.125  0.00  0.00    +0.002 C 
ATOM     32  C   UNL     1       1.622   4.208   2.923  0.00  0.00    +0.022 C 
ENDBRANCH  24  27
ENDBRANCH  20  21
ENDBRANCH  19  20
ENDBRANCH   2  19
TORSDOF 9
