REMARK  Name = ZINC10246228
REMARK  16 active torsions:
REMARK  status: ('A' for Active; 'I' for Inactive)
REMARK    1  A    between atoms: C_1  and  C_2
REMARK    2  A    between atoms: C_7  and  N_8
REMARK    3  A    between atoms: C_9  and  C_36
REMARK    4  A    between atoms: C_12  and  S_13
REMARK    5  A    between atoms: S_13  and  C_14
REMARK    6  A    between atoms: C_14  and  C_15
REMARK    7  A    between atoms: N_17  and  C_18
REMARK    8  A    between atoms: N_17  and  C_22
REMARK    9  A    between atoms: C_18  and  C_19
REMARK   10  A    between atoms: C_19  and  C_20
REMARK   11  A    between atoms: C_19  and  C_21
REMARK   12  A    between atoms: C_23  and  N_35
REMARK   13  A    between atoms: N_24  and  C_31
REMARK   14  A    between atoms: C_31  and  C_32
REMARK   15  A    between atoms: C_32  and  C_33
REMARK   16  A    between atoms: C_32  and  C_34
REMARK                            x       y       z     vdW  Elec       q    Type
REMARK                         _______ _______ _______ _____ _____    ______ ____
ROOT
ATOM      1  C   UNL     1      -1.525   5.284   0.884  0.00  0.00    +0.230 C 
ATOM      2  O   UNL     1      -2.666   5.054   1.226  0.00  0.00    -0.274 OA
ATOM      3  N   UNL     1      -1.141   6.551   0.622  0.00  0.00    -0.263 N 
ENDROOT
BRANCH   3   4
ATOM      4  C   UNL     1      -2.089   7.596   0.655  0.00  0.00    +0.140 A 
ATOM      5  C   UNL     1      -3.179   7.581  -0.190  0.00  0.00    +0.127 A 
ATOM      6  N   UNL     1      -4.086   8.614  -0.135  0.00  0.00    -0.280 N 
ATOM      7  C   UNL     1      -3.911   9.627   0.733  0.00  0.00    +0.331 A 
ATOM      8  O   UNL     1      -4.724  10.531   0.767  0.00  0.00    -0.246 OA
ATOM      9  N   UNL     1      -2.855   9.659   1.565  0.00  0.00    -0.273 N 
ATOM     10  H   UNL     1      -2.746  10.425   2.197  0.00  0.00    +0.173 HD
ATOM     11  C   UNL     1      -1.941   8.668   1.554  0.00  0.00    +0.277 A 
ATOM     12  O   UNL     1      -0.989   8.704   2.316  0.00  0.00    -0.266 OA
BRANCH   5  13
ATOM     13  N   UNL     1      -3.358   6.547  -1.077  0.00  0.00    -0.343 N 
ATOM     14  H   UNL     1      -2.689   5.847  -1.147  0.00  0.00    +0.144 HD
ATOM     15  H   UNL     1      -4.152   6.516  -1.634  0.00  0.00    +0.144 HD
ENDBRANCH   5  13
BRANCH   6  16
ATOM     16  C   UNL     1      -5.249   8.611  -1.026  0.00  0.00    +0.131 C 
BRANCH  16  17
ATOM     17  C   UNL     1      -6.413   7.891  -0.343  0.00  0.00    +0.003 C 
ATOM     18  C   UNL     1      -6.850   8.683   0.890  0.00  0.00    +0.009 C 
ATOM     19  C   UNL     1      -7.586   7.778  -1.319  0.00  0.00    +0.009 C 
ENDBRANCH  16  17
ENDBRANCH   6  16
ENDBRANCH   3   4
BRANCH   1  20
ATOM     20  C   UNL     1      -0.536   4.155   0.750  0.00  0.00    +0.173 C 
BRANCH  20  21
ATOM     21  S   UNL     1      -1.347   2.591   1.166  0.00  0.00    -0.076 S 
BRANCH  21  26
ATOM     22  N   UNL     1      -0.029   0.120   1.107  0.00  0.00    -0.274 N 
ATOM     23  C   UNL     1       1.235  -0.316   0.806  0.00  0.00    +0.135 A 
ATOM     24  N   UNL     1       1.938   0.731   0.480  0.00  0.00    -0.133 NA
ATOM     25  N   UNL     1       1.215   1.791   0.553  0.00  0.00    -0.122 NA
ATOM     26  C   UNL     1      -0.002   1.477   0.933  0.00  0.00    +0.197 A 
ATOM     27  C   UNL     1       1.720  -1.742   0.845  0.00  0.00    +0.088 C 
BRANCH  22  34
ATOM     28  C   UNL     1      -0.399  -0.344   3.890  0.00  0.00    +0.046 C 
ATOM     29  C   UNL     1      -1.338  -0.911   2.857  0.00  0.00    -0.027 A 
ATOM     30  C   UNL     1      -2.418  -1.677   3.251  0.00  0.00    +0.005 A 
ATOM     31  C   UNL     1      -3.277  -2.203   2.304  0.00  0.00    +0.000 A 
ATOM     32  C   UNL     1      -3.061  -1.959   0.960  0.00  0.00    +0.002 A 
ATOM     33  C   UNL     1      -1.986  -1.190   0.560  0.00  0.00    +0.026 A 
ATOM     34  C   UNL     1      -1.121  -0.661   1.510  0.00  0.00    +0.053 A 
ENDBRANCH  22  34
ENDBRANCH  21  26
ENDBRANCH  20  21
ENDBRANCH   1  20
BRANCH   3  35
ATOM     35  C   UNL     1       0.259   6.841   0.304  0.00  0.00    +0.117 C 
BRANCH  35  36
ATOM     36  C   UNL     1       0.493   6.645  -1.195  0.00  0.00    +0.001 C 
ATOM     37  C   UNL     1      -0.316   7.681  -1.978  0.00  0.00    +0.009 C 
ATOM     38  C   UNL     1       1.981   6.818  -1.506  0.00  0.00    +0.009 C 
ENDBRANCH  35  36
ENDBRANCH   3  35
TORSDOF 10
