REMARK  Name = ZINC34898312
REMARK  15 active torsions:
REMARK  status: ('A' for Active; 'I' for Inactive)
REMARK    1  A    between atoms: C_1  and  C_2
REMARK    2  A    between atoms: C_2  and  C_4
REMARK    3  A    between atoms: C_2  and  O_35
REMARK    4  A    between atoms: C_4  and  C_6
REMARK    5  A    between atoms: C_4  and  O_34
REMARK    6  A    between atoms: C_6  and  C_8
REMARK    7  A    between atoms: C_6  and  O_33
REMARK    8  A    between atoms: C_8  and  O_10
REMARK    9  A    between atoms: C_8  and  O_12
REMARK   10  A    between atoms: O_10  and  C_11
REMARK   11  A    between atoms: O_12  and  C_13
REMARK   12  A    between atoms: C_16  and  C_20
REMARK   13  A    between atoms: C_17  and  O_19
REMARK   14  A    between atoms: C_20  and  C_21
REMARK   15  A    between atoms: C_21  and  C_22
REMARK                            x       y       z     vdW  Elec       q    Type
REMARK                         _______ _______ _______ _____ _____    ______ ____
ROOT
ATOM      1  C   UNL     1       2.554  -4.528   2.946  0.00  0.00    +0.127 A 
ATOM      2  C   UNL     1       2.880  -4.024   4.203  0.00  0.00    +0.046 A 
ATOM      3  C   UNL     1       3.491  -4.819   5.129  0.00  0.00    +0.018 A 
ATOM      4  C   UNL     1       3.794  -6.152   4.819  0.00  0.00    +0.059 A 
ATOM      5  C   UNL     1       3.466  -6.664   3.551  0.00  0.00    +0.131 A 
ATOM      6  C   UNL     1       2.841  -5.847   2.624  0.00  0.00    +0.091 A 
ENDROOT
BRANCH   5   7
ATOM      7  O   UNL     1       3.755  -7.952   3.240  0.00  0.00    -0.506 OA
ATOM      8  H   UNL     1       3.049  -8.576   3.456  0.00  0.00    +0.292 HD
ENDBRANCH   5   7
BRANCH   4   9
ATOM      9  C   UNL     1       4.451  -7.006   5.811  0.00  0.00    +0.172 C 
ATOM     10  O   UNL     1       4.712  -8.160   5.540  0.00  0.00    -0.292 OA
BRANCH   9  11
ATOM     11  C   UNL     1       4.801  -6.454   7.168  0.00  0.00    +0.135 C 
BRANCH  11  12
ATOM     12  C   UNL     1       5.462  -7.528   7.993  0.00  0.00    +0.049 A 
ATOM     13  C   UNL     1       6.713  -7.278   8.555  0.00  0.00    +0.024 A 
ATOM     14  C   UNL     1       7.327  -8.240   9.305  0.00  0.00    +0.012 A 
ATOM     15  C   UNL     1       6.662  -9.468   9.485  0.00  0.00    +0.000 A 
ATOM     16  C   UNL     1       7.231 -10.503  10.244  0.00  0.00    +0.010 A 
ATOM     17  C   UNL     1       6.555 -11.676  10.395  0.00  0.00    +0.001 A 
ATOM     18  C   UNL     1       5.306 -11.862   9.806  0.00  0.00    +0.002 A 
ATOM     19  C   UNL     1       4.726 -10.880   9.064  0.00  0.00    +0.028 A 
ATOM     20  C   UNL     1       5.392  -9.655   8.886  0.00  0.00    +0.071 A 
ATOM     21  N   UNL     1       4.843  -8.670   8.167  0.00  0.00    -0.251 NA
ENDBRANCH  11  12
ENDBRANCH   9  11
ENDBRANCH   4   9
BRANCH   1  22
ATOM     22  O   UNL     1       1.947  -3.728   2.034  0.00  0.00    -0.461 OA
BRANCH  22  23
ATOM     23  C   UNL     1       1.551  -2.427   2.474  0.00  0.00    +0.339 C 
BRANCH  23  24
ATOM     24  O   UNL     1       0.281  -2.510   3.123  0.00  0.00    -0.343 OA
ATOM     25  C   UNL     1       0.332  -3.089   4.429  0.00  0.00    +0.198 C 
ENDBRANCH  23  24
BRANCH  23  26
ATOM     26  C   UNL     1       1.448  -1.491   1.269  0.00  0.00    +0.214 C 
BRANCH  26  27
ATOM     27  O   UNL     1       0.397  -1.935   0.409  0.00  0.00    -0.383 OA
ATOM     28  H   UNL     1      -0.473  -1.955   0.830  0.00  0.00    +0.210 HD
ENDBRANCH  26  27
BRANCH  26  29
ATOM     29  C   UNL     1       1.147  -0.070   1.751  0.00  0.00    +0.177 C 
BRANCH  29  31
ATOM     30  C   UNL     1       0.619   2.262   1.026  0.00  0.00    +0.040 C 
ATOM     31  C   UNL     1       0.920   0.841   0.543  0.00  0.00    +0.143 C 
BRANCH  31  32
ATOM     32  O   UNL     1       2.095   0.854  -0.271  0.00  0.00    -0.389 OA
ATOM     33  H   UNL     1       2.885   1.174   0.184  0.00  0.00    +0.210 HD
ENDBRANCH  31  32
ENDBRANCH  29  31
BRANCH  29  34
ATOM     34  O   UNL     1      -0.028  -0.083   2.565  0.00  0.00    -0.386 OA
ATOM     35  H   UNL     1      -0.818  -0.403   2.110  0.00  0.00    +0.210 HD
ENDBRANCH  29  34
ENDBRANCH  26  29
ENDBRANCH  23  26
ENDBRANCH  22  23
ENDBRANCH   1  22
TORSDOF 13
