REMARK  Name = ZINC20916456
REMARK  9 active torsions:
REMARK  status: ('A' for Active; 'I' for Inactive)
REMARK    1  A    between atoms: C_4  and  N_7
REMARK    2  A    between atoms: N_7  and  C_8
REMARK    3  A    between atoms: C_14  and  C_16
REMARK    4  A    between atoms: C_16  and  S_17
REMARK    5  A    between atoms: S_17  and  C_18
REMARK    6  A    between atoms: N_22  and  N_23
REMARK    7  A    between atoms: N_24  and  N_25
REMARK    8  A    between atoms: C_26  and  C_27
REMARK    9  A    between atoms: C_36  and  O_37
REMARK                            x       y       z     vdW  Elec       q    Type
REMARK                         _______ _______ _______ _____ _____    ______ ____
ROOT
ATOM      1  C   UNL     1      -3.129  11.704  -1.043  0.00  0.00    +0.210 A 
ATOM      2  N   UNL     1      -1.817  11.722  -1.038  0.00  0.00    -0.119 NA
ATOM      3  N   UNL     1      -1.365  10.431  -1.343  0.00  0.00    -0.109 NA
ATOM      4  C   UNL     1      -2.416   9.669  -1.533  0.00  0.00    +0.254 A 
ATOM      5  N   UNL     1      -3.533  10.436  -1.349  0.00  0.00    -0.211 N 
ATOM      6  N   UNL     1      -2.396   8.321  -1.857  0.00  0.00    -0.204 N 
ATOM      7  H   UNL     1      -3.341   7.773  -1.989  0.00  0.00    +0.177 HD
ENDROOT
BRANCH   5   8
ATOM      8  N   UNL     1      -4.826  10.008  -1.454  0.00  0.00    -0.294 N 
ATOM      9  H   UNL     1      -5.040   8.960  -1.707  0.00  0.00    +0.163 HD
ATOM     10  H   UNL     1      -5.653  10.713  -1.285  0.00  0.00    +0.163 HD
ENDBRANCH   5   8
BRANCH   6  11
ATOM     11  N   UNL     1      -1.173   7.656  -2.017  0.00  0.00    -0.187 NA
ATOM     12  C   UNL     1      -1.156   6.392  -2.321  0.00  0.00    +0.142 C 
BRANCH  12  13
ATOM     13  C   UNL     1       0.127   5.694  -2.488  0.00  0.00    +0.044 A 
ATOM     14  C   UNL     1       0.166   4.274  -2.829  0.00  0.00    -0.006 A 
ATOM     15  C   UNL     1      -1.009   3.533  -3.008  0.00  0.00    +0.009 A 
ATOM     16  C   UNL     1      -0.929   2.211  -3.331  0.00  0.00    +0.001 A 
ATOM     17  C   UNL     1       0.305   1.583  -3.476  0.00  0.00    +0.001 A 
ATOM     18  C   UNL     1       1.467   2.274  -3.310  0.00  0.00    +0.008 A 
ATOM     19  C   UNL     1       1.423   3.640  -2.982  0.00  0.00    -0.017 A 
ATOM     20  C   UNL     1       2.601   4.385  -2.803  0.00  0.00    +0.012 A 
ATOM     21  C   UNL     1       2.547   5.706  -2.485  0.00  0.00    +0.046 A 
ATOM     22  C   UNL     1       1.334   6.374  -2.324  0.00  0.00    +0.126 A 
BRANCH  22  23
ATOM     23  O   UNL     1       1.327   7.694  -2.006  0.00  0.00    -0.506 OA
ATOM     24  H   UNL     1       2.277   8.233  -1.876  0.00  0.00    +0.292 HD
ENDBRANCH  22  23
ENDBRANCH  12  13
ENDBRANCH   6  11
BRANCH   1  25
ATOM     25  S   UNL     1      -4.184  13.076  -0.714  0.00  0.00    -0.075 S 
BRANCH  25  26
ATOM     26  C   UNL     1      -3.037  14.443  -0.383  0.00  0.00    +0.174 C 
BRANCH  26  28
ATOM     27  N   UNL     1      -3.175  16.836   0.226  0.00  0.00    -0.240 N 
ATOM     28  C   UNL     1      -3.821  15.694  -0.083  0.00  0.00    +0.234 C 
ATOM     29  O   UNL     1      -5.033  15.674  -0.118  0.00  0.00    -0.274 OA
BRANCH  27  33
ATOM     30  C   UNL     1       0.985  16.994   0.034  0.00  0.00    +0.000 A 
ATOM     31  C   UNL     1       0.225  17.719  -0.865  0.00  0.00    +0.002 A 
ATOM     32  C   UNL     1      -1.154  17.669  -0.804  0.00  0.00    +0.024 A 
ATOM     33  C   UNL     1      -1.777  16.889   0.161  0.00  0.00    +0.041 A 
ATOM     34  C   UNL     1      -1.011  16.166   1.066  0.00  0.00    +0.024 A 
ATOM     35  C   UNL     1       0.368  16.216   0.997  0.00  0.00    +0.002 A 
ENDBRANCH  27  33
BRANCH  27  36
ATOM     36  C   UNL     1      -3.901  17.970   0.611  0.00  0.00    +0.041 A 
ATOM     37  C   UNL     1      -4.706  18.626  -0.310  0.00  0.00    +0.024 A 
ATOM     38  C   UNL     1      -5.425  19.741   0.074  0.00  0.00    +0.002 A 
ATOM     39  C   UNL     1      -5.335  20.210   1.372  0.00  0.00    +0.000 A 
ATOM     40  C   UNL     1      -4.530  19.561   2.290  0.00  0.00    +0.002 A 
ATOM     41  C   UNL     1      -3.813  18.443   1.914  0.00  0.00    +0.024 A 
ENDBRANCH  27  36
ENDBRANCH  26  28
ENDBRANCH  25  26
ENDBRANCH   1  25
TORSDOF 9
