REMARK  Name = ZINC38806461
REMARK  8 active torsions:
REMARK  status: ('A' for Active; 'I' for Inactive)
REMARK    1  A    between atoms: C_1  and  C_2
REMARK    2  A    between atoms: C_4  and  C_27
REMARK    3  A    between atoms: C_9  and  C_25
REMARK    4  A    between atoms: C_10  and  N_12
REMARK    5  A    between atoms: N_12  and  C_13
REMARK    6  A    between atoms: C_13  and  C_14
REMARK    7  A    between atoms: C_14  and  N_15
REMARK    8  A    between atoms: N_15  and  C_16
REMARK                            x       y       z     vdW  Elec       q    Type
REMARK                         _______ _______ _______ _____ _____    ______ ____
ROOT
ATOM      1  N   UNL     1       0.090  -6.209   0.950  0.00  0.00    -0.327 N 
ATOM      2  H   UNL     1       0.101  -6.740   1.762  0.00  0.00    +0.148 HD
ENDROOT
BRANCH   1  12
ATOM      3  C   UNL     1      -0.018   1.503   0.010  0.00  0.00    +0.044 C 
ATOM      4  C   UNL     1       0.002  -0.004   0.002  0.00  0.00    -0.050 A 
ATOM      5  C   UNL     1       0.006  -0.685  -1.213  0.00  0.00    +0.008 A 
ATOM      6  C   UNL     1       0.023  -2.046  -1.256  0.00  0.00    -0.024 A 
ATOM      7  C   UNL     1       0.039  -2.783  -0.059  0.00  0.00    +0.076 A 
ATOM      8  C   UNL     1       0.036  -2.088   1.176  0.00  0.00    +0.002 A 
ATOM      9  C   UNL     1       0.022  -0.683   1.182  0.00  0.00    +0.013 A 
ATOM     10  C   UNL     1       0.052  -2.819   2.377  0.00  0.00    +0.032 A 
ATOM     11  C   UNL     1       0.070  -4.205   2.298  0.00  0.00    +0.092 A 
ATOM     12  C   UNL     1       0.072  -4.829   1.028  0.00  0.00    +0.137 A 
ATOM     13  N   UNL     1       0.057  -4.121  -0.081  0.00  0.00    -0.231 NA
ATOM     14  C   UNL     1       0.026  -2.760  -2.583  0.00  0.00    +0.046 C 
BRANCH  11  15
ATOM     15  C   UNL     1       0.087  -4.997   3.492  0.00  0.00    +0.103 C 
ATOM     16  N   UNL     1       0.100  -5.625   4.438  0.00  0.00    -0.191 NA
ENDBRANCH  11  15
ENDBRANCH   1  12
BRANCH   1  17
ATOM     17  C   UNL     1       0.092  -6.869  -0.358  0.00  0.00    +0.122 C 
BRANCH  17  18
ATOM     18  C   UNL     1       0.114  -8.387  -0.163  0.00  0.00    +0.128 C 
BRANCH  18  19
ATOM     19  N   UNL     1       0.116  -9.047  -1.471  0.00  0.00    -0.281 N 
ATOM     20  C   UNL     1      -1.050  -9.367  -2.066  0.00  0.00    +0.300 C 
ATOM     21  O   UNL     1      -1.048  -9.914  -3.152  0.00  0.00    -0.253 OA
ATOM     22  N   UNL     1      -2.218  -9.079  -1.459  0.00  0.00    -0.313 N 
ATOM     23  H   UNL     1      -2.219  -8.642  -0.593  0.00  0.00    +0.146 HD
ATOM     24  H   UNL     1      -3.057  -9.309  -1.887  0.00  0.00    +0.146 HD
BRANCH  19  25
ATOM     25  C   UNL     1       1.386  -9.360  -2.131  0.00  0.00    +0.078 C 
ATOM     26  C   UNL     1       1.486 -10.870  -2.354  0.00  0.00    +0.022 C 
ATOM     27  C   UNL     1       2.813 -11.197  -3.044  0.00  0.00    +0.002 C 
ATOM     28  C   UNL     1       2.877 -10.477  -4.392  0.00  0.00    +0.000 C 
ATOM     29  C   UNL     1       2.776  -8.967  -4.169  0.00  0.00    +0.002 C 
ATOM     30  C   UNL     1       1.450  -8.640  -3.480  0.00  0.00    +0.022 C 
ENDBRANCH  19  25
ENDBRANCH  18  19
ENDBRANCH  17  18
ENDBRANCH   1  17
TORSDOF 6
