REMARK  Name = ZINC36357940
REMARK  5 active torsions:
REMARK  status: ('A' for Active; 'I' for Inactive)
REMARK    1  A    between atoms: C_2  and  C_3
REMARK    2  A    between atoms: C_3  and  N_4
REMARK    3  A    between atoms: C_15  and  O_31
REMARK    4  A    between atoms: C_20  and  C_28
REMARK    5  A    between atoms: C_21  and  C_22
REMARK                            x       y       z     vdW  Elec       q    Type
REMARK                         _______ _______ _______ _____ _____    ______ ____
ROOT
ATOM      1  N   UNL     1       1.367  -1.676   1.111  0.00  0.00    -0.266 N 
ATOM      2  C   UNL     1       1.854  -1.351   2.366  0.00  0.00    +0.041 A 
ATOM      3  C   UNL     1       2.376  -0.142   2.828  0.00  0.00    +0.025 A 
ATOM      4  C   UNL     1       2.796  -0.096   4.148  0.00  0.00    +0.022 A 
ATOM      5  C   UNL     1       2.708  -1.193   4.982  0.00  0.00    +0.041 A 
ATOM      6  C   UNL     1       2.190  -2.404   4.533  0.00  0.00    +0.026 A 
ATOM      7  C   UNL     1       1.769  -2.457   3.222  0.00  0.00    -0.004 A 
ATOM      8  C   UNL     1       1.172  -3.564   2.415  0.00  0.00    +0.115 C 
ATOM      9  C   UNL     1       0.939  -2.954   1.050  0.00  0.00    +0.236 C 
ATOM     10  O   UNL     1       0.461  -3.509   0.083  0.00  0.00    -0.274 OA
ATOM     11  C   UNL     1      -0.160  -4.025   3.011  0.00  0.00    +0.121 C 
ATOM     12  C   UNL     1       0.061  -5.018   4.115  0.00  0.00    +0.189 C 
ATOM     13  N   UNL     1       1.046  -5.850   4.166  0.00  0.00    -0.216 NA
ATOM     14  C   UNL     1       2.015  -5.844   3.167  0.00  0.00    +0.087 A 
ATOM     15  C   UNL     1       2.087  -4.743   2.323  0.00  0.00    +0.036 A 
ATOM     16  S   UNL     1       3.342  -5.048   1.276  0.00  0.00    -0.082 S 
ATOM     17  C   UNL     1       3.837  -6.652   1.880  0.00  0.00    +0.110 A 
ATOM     18  C   UNL     1       2.941  -6.864   2.932  0.00  0.00    +0.029 A 
ATOM     19 CL   UNL     1       3.255  -1.059   6.624  0.00  0.00    -0.084 Cl
ENDROOT
BRANCH  18  20
ATOM     20  C   UNL     1       2.971  -8.098   3.749  0.00  0.00    -0.015 A 
ATOM     21  C   UNL     1       3.288  -8.032   5.107  0.00  0.00    +0.008 A 
ATOM     22  C   UNL     1       3.313  -9.185   5.863  0.00  0.00    +0.001 A 
ATOM     23  C   UNL     1       3.026 -10.406   5.279  0.00  0.00    +0.000 A 
ATOM     24  C   UNL     1       2.711 -10.478   3.933  0.00  0.00    +0.001 A 
ATOM     25  C   UNL     1       2.676  -9.331   3.167  0.00  0.00    +0.008 A 
ENDBRANCH  18  20
BRANCH  17  26
ATOM     26  C   UNL     1       4.872  -7.494   1.412  0.00  0.00    +0.394 C 
ATOM     27  O   UNL     1       5.568  -7.143   0.467  0.00  0.00    -0.240 OA
ATOM     28  O   UNL     1       5.073  -8.575   1.953  0.00  0.00    -0.240 OA
ENDBRANCH  17  26
BRANCH  12  29
ATOM     29  O   UNL     1      -0.834  -5.042   5.125  0.00  0.00    -0.495 OA
ATOM     30  H   UNL     1      -0.641  -5.700   5.807  0.00  0.00    +0.293 HD
ENDBRANCH  12  29
BRANCH   1  31
ATOM     31  C   UNL     1       1.317  -0.740  -0.015  0.00  0.00    +0.140 C 
BRANCH  31  33
ATOM     32  C   UNL     1      -0.016   1.306   0.009  0.00  0.00    +0.005 C 
ATOM     33  C   UNL     1       0.002  -0.004   0.002  0.00  0.00    -0.015 C 
ENDBRANCH  31  33
ENDBRANCH   1  31
TORSDOF 5
