REMARK  Name = ZINC39778107
REMARK  9 active torsions:
REMARK  status: ('A' for Active; 'I' for Inactive)
REMARK    1  A    between atoms: C_1  and  C_2
REMARK    2  A    between atoms: C_4  and  C_10
REMARK    3  A    between atoms: C_5  and  N_8
REMARK    4  A    between atoms: N_8  and  C_9
REMARK    5  A    between atoms: C_10  and  O_12
REMARK    6  A    between atoms: O_12  and  C_13
REMARK    7  A    between atoms: C_13  and  C_15
REMARK    8  A    between atoms: C_13  and  C_16
REMARK    9  A    between atoms: C_21  and  C_26
REMARK                            x       y       z     vdW  Elec       q    Type
REMARK                         _______ _______ _______ _____ _____    ______ ____
ROOT
ATOM      1  C   UNL     1      -0.839   1.872  -3.765  0.00  0.00    +0.238 C 
ATOM      2  C   UNL     1       0.251   2.883  -4.128  0.00  0.00    +0.060 C 
ENDROOT
BRANCH   1   3
ATOM      3  C   UNL     1      -2.170   2.574  -3.687  0.00  0.00    +0.164 C 
ATOM      4  N   UNL     1      -2.191   3.886  -3.630  0.00  0.00    -0.158 NA
ATOM      5  C   UNL     1      -3.335   4.572  -3.559  0.00  0.00    +0.272 C 
ATOM      6  O   UNL     1      -3.330   5.793  -3.507  0.00  0.00    -0.268 OA
ATOM      7  C   UNL     1      -4.616   3.813  -3.546  0.00  0.00    +0.078 C 
ATOM      8  C   UNL     1      -5.901   4.334  -3.479  0.00  0.00    +0.020 C 
ATOM      9  C   UNL     1      -7.036   3.334  -3.483  0.00  0.00    +0.115 C 
ATOM     10  S   UNL     1      -6.116   1.747  -3.584  0.00  0.00    -0.100 S 
ATOM     11  C   UNL     1      -4.466   2.402  -3.613  0.00  0.00    +0.112 C 
ATOM     12  N   UNL     1      -3.274   1.847  -3.684  0.00  0.00    -0.224 NA
BRANCH   8  13
ATOM     13  C   UNL     1      -6.134   5.712  -3.410  0.00  0.00    +0.132 A 
ATOM     14  C   UNL     1      -6.779   6.485  -4.371  0.00  0.00    +0.049 A 
ATOM     15  C   UNL     1      -6.785   7.795  -3.886  0.00  0.00    +0.042 A 
ATOM     16  C   UNL     1      -6.163   7.782  -2.681  0.00  0.00    +0.195 A 
ATOM     17  O   UNL     1      -5.779   6.532  -2.397  0.00  0.00    -0.463 OA
ENDBRANCH   8  13
ENDBRANCH   1   3
BRANCH   1  18
ATOM     18  O   UNL     1      -0.537   1.280  -2.500  0.00  0.00    -0.451 OA
BRANCH  18  19
ATOM     19  C   UNL     1       0.214   0.157  -2.511  0.00  0.00    +0.340 C 
ATOM     20  O   UNL     1       0.603  -0.306  -3.570  0.00  0.00    -0.245 OA
BRANCH  19  23
ATOM     21  C   UNL     1       0.441   1.642  -0.056  0.00  0.00    +0.030 C 
ATOM     22  C   UNL     1       0.209   0.132   0.016  0.00  0.00    +0.101 C 
ATOM     23  C   UNL     1       0.547  -0.474  -1.308  0.00  0.00    +0.082 C 
ATOM     24  C   UNL     1       1.205  -1.689  -1.284  0.00  0.00    +0.088 C 
ATOM     25  S   UNL     1       1.416  -2.044   0.451  0.00  0.00    -0.027 S 
ATOM     26  N   UNL     1       1.030  -0.430   1.117  0.00  0.00    -0.251 NA
ATOM     27  H   UNL     1       1.869   0.114   1.256  0.00  0.00    +0.136 HD
BRANCH  24  28
ATOM     28  N   UNL     1       1.604  -2.450  -2.353  0.00  0.00    -0.340 N 
ATOM     29  C   UNL     1       2.295  -3.723  -2.128  0.00  0.00    +0.126 C 
ATOM     30  H   UNL     1       1.429  -2.146  -3.257  0.00  0.00    +0.146 HD
ENDBRANCH  24  28
ENDBRANCH  19  23
ENDBRANCH  18  19
ENDBRANCH   1  18
TORSDOF 6
