REMARK  Name = ZINC36229067
REMARK  13 active torsions:
REMARK  status: ('A' for Active; 'I' for Inactive)
REMARK    1  A    between atoms: C_1  and  C_2
REMARK    2  A    between atoms: C_4  and  C_35
REMARK    3  A    between atoms: C_5  and  N_9
REMARK    4  A    between atoms: C_6  and  C_8
REMARK    5  A    between atoms: C_10  and  C_12
REMARK    6  A    between atoms: C_12  and  C_14
REMARK    7  A    between atoms: C_12  and  O_15
REMARK    8  A    between atoms: O_15  and  C_16
REMARK    9  A    between atoms: C_16  and  C_18
REMARK   10  A    between atoms: C_18  and  N_19
REMARK   11  A    between atoms: C_24  and  C_31
REMARK   12  A    between atoms: C_27  and  C_29
REMARK   13  A    between atoms: C_27  and  C_30
REMARK                            x       y       z     vdW  Elec       q    Type
REMARK                         _______ _______ _______ _____ _____    ______ ____
ROOT
ATOM      1  C   UNL     1       0.099  -8.272   2.020  0.00  0.00    +0.326 C 
ATOM      2  O   UNL     1       0.293  -8.852   0.978  0.00  0.00    -0.249 OA
ENDROOT
BRANCH   1   3
ATOM      3  O   UNL     1      -0.324  -6.998   2.011  0.00  0.00    -0.451 OA
BRANCH   3   4
ATOM      4  C   UNL     1      -0.524  -6.391   0.733  0.00  0.00    +0.259 C 
ATOM      5  C   UNL     1      -1.965  -6.628   0.275  0.00  0.00    +0.062 C 
BRANCH   4   7
ATOM      6  N   UNL     1      -0.298  -4.142  -0.272  0.00  0.00    -0.282 N 
ATOM      7  C   UNL     1      -0.268  -4.909   0.835  0.00  0.00    +0.258 C 
ATOM      8  O   UNL     1      -0.034  -4.407   1.915  0.00  0.00    -0.271 OA
ATOM      9  H   UNL     1      -0.421  -4.552  -1.143  0.00  0.00    +0.155 HD
BRANCH   6  14
ATOM     10  C   UNL     1       0.294   1.484   0.156  0.00  0.00    +0.044 C 
ATOM     11  C   UNL     1       0.137  -0.011   0.042  0.00  0.00    -0.050 A 
ATOM     12  C   UNL     1       1.128  -0.847   0.522  0.00  0.00    +0.008 A 
ATOM     13  C   UNL     1       0.987  -2.217   0.419  0.00  0.00    -0.029 A 
ATOM     14  C   UNL     1      -0.152  -2.754  -0.166  0.00  0.00    +0.039 A 
ATOM     15  C   UNL     1      -1.146  -1.912  -0.647  0.00  0.00    -0.029 A 
ATOM     16  C   UNL     1      -1.001  -0.543  -0.537  0.00  0.00    +0.008 A 
ATOM     17  C   UNL     1      -2.383  -2.490  -1.284  0.00  0.00    +0.045 C 
ATOM     18  C   UNL     1       2.068  -3.128   0.942  0.00  0.00    +0.045 C 
ENDBRANCH   6  14
ENDBRANCH   4   7
ENDBRANCH   3   4
ENDBRANCH   1   3
BRANCH   1  19
ATOM     19  C   UNL     1       0.332  -8.979   3.331  0.00  0.00    +0.238 C 
BRANCH  19  20
ATOM     20  N   UNL     1       0.786 -10.347   3.073  0.00  0.00    -0.213 N 
ATOM     21  C   UNL     1      -0.035 -11.414   2.965  0.00  0.00    +0.247 C 
ATOM     22  O   UNL     1      -1.216 -11.442   3.231  0.00  0.00    -0.273 OA
ATOM     23  C   UNL     1       0.835 -12.538   2.455  0.00  0.00    +0.113 C 
ATOM     24  C   UNL     1       0.665 -13.786   3.307  0.00  0.00    +0.038 C 
ATOM     25  C   UNL     1      -0.691 -14.433   3.024  0.00  0.00    -0.011 C 
ATOM     26  C   UNL     1      -0.732 -14.856   1.557  0.00  0.00    +0.009 C 
ATOM     27  C   UNL     1      -0.588 -13.651   0.635  0.00  0.00    -0.032 C 
ATOM     28  C   UNL     1       0.620 -12.796   0.977  0.00  0.00    +0.041 C 
ATOM     29  C   UNL     1      -1.870 -12.813   0.661  0.00  0.00    +0.011 C 
ATOM     30  C   UNL     1      -0.409 -14.178  -0.805  0.00  0.00    +0.011 C 
ATOM     31  C   UNL     1      -0.858 -15.670   3.913  0.00  0.00    +0.007 C 
ATOM     32  N   UNL     1       2.205 -12.011   2.649  0.00  0.00    -0.285 N 
ATOM     33  C   UNL     1       2.069 -10.706   2.941  0.00  0.00    +0.310 C 
ATOM     34  O   UNL     1       3.002  -9.938   3.071  0.00  0.00    -0.252 OA
ATOM     35  H   UNL     1       3.026 -12.518   2.575  0.00  0.00    +0.151 HD
ENDBRANCH  19  20
ENDBRANCH   1  19
TORSDOF 6
