REMARK  Name = ZINC61320732
REMARK  8 active torsions:
REMARK  status: ('A' for Active; 'I' for Inactive)
REMARK    1  A    between atoms: C_1  and  C_2
REMARK    2  A    between atoms: C_5  and  C_8
REMARK    3  A    between atoms: C_8  and  N_9
REMARK    4  A    between atoms: C_13  and  N_20
REMARK    5  A    between atoms: C_14  and  O_16
REMARK    6  A    between atoms: O_16  and  C_17
REMARK    7  A    between atoms: C_17  and  C_18
REMARK    8  A    between atoms: C_17  and  C_19
REMARK                            x       y       z     vdW  Elec       q    Type
REMARK                         _______ _______ _______ _____ _____    ______ ____
ROOT
ATOM      1  N   UNL     1      -1.310  -4.691  -0.191  0.00  0.00    -0.323 N 
ATOM      2  C   UNL     1      -1.545  -6.064  -0.219  0.00  0.00    +0.123 A 
ATOM      3  C   UNL     1      -0.475  -6.945  -0.131  0.00  0.00    +0.045 A 
ATOM      4  C   UNL     1      -0.717  -8.309  -0.160  0.00  0.00    +0.031 A 
ATOM      5  C   UNL     1      -2.031  -8.748  -0.276  0.00  0.00    +0.087 A 
ATOM      6  C   UNL     1      -3.056  -7.807  -0.360  0.00  0.00    +0.238 A 
ATOM      7  N   UNL     1      -2.787  -6.513  -0.325  0.00  0.00    -0.197 NA
ATOM      8  H   UNL     1      -2.054  -4.070  -0.248  0.00  0.00    +0.148 HD
ENDROOT
BRANCH   5   9
ATOM      9  N   UNL     1      -2.322 -10.120  -0.309  0.00  0.00    -0.354 N 
ATOM     10  H   UNL     1      -1.604 -10.769  -0.251  0.00  0.00    +0.142 HD
ATOM     11  H   UNL     1      -3.241 -10.419  -0.391  0.00  0.00    +0.142 HD
ENDBRANCH   5   9
BRANCH   1  12
ATOM     12  C   UNL     1       0.059  -4.184  -0.075  0.00  0.00    +0.160 C 
BRANCH  12  17
ATOM     13  C   UNL     1      -0.018   1.503   0.010  0.00  0.00    +0.067 C 
ATOM     14  C   UNL     1       0.002  -0.004   0.002  0.00  0.00    +0.056 A 
ATOM     15  C   UNL     1       0.006  -0.689  -1.200  0.00  0.00    +0.134 A 
ATOM     16  N   UNL     1       0.024  -2.010  -1.207  0.00  0.00    -0.255 NA
ATOM     17  C   UNL     1       0.039  -2.677  -0.067  0.00  0.00    +0.076 A 
ATOM     18  C   UNL     1       0.035  -1.992   1.135  0.00  0.00    +0.136 A 
ATOM     19  N   UNL     1       0.022  -0.671   1.143  0.00  0.00    -0.257 NA
ENDBRANCH  12  17
ENDBRANCH   1  12
BRANCH   6  20
ATOM     20  O   UNL     1      -4.343  -8.224  -0.474  0.00  0.00    -0.472 OA
BRANCH  20  21
ATOM     21  C   UNL     1      -5.348  -7.211  -0.556  0.00  0.00    +0.169 C 
ATOM     22  C   UNL     1      -6.525  -7.727  -1.386  0.00  0.00    +0.051 C 
ATOM     23  C   UNL     1      -5.832  -6.858   0.852  0.00  0.00    +0.051 C 
ENDBRANCH  20  21
ENDBRANCH   6  20
TORSDOF 5
