REMARK  Name = ZINC37561043
REMARK  4 active torsions:
REMARK  status: ('A' for Active; 'I' for Inactive)
REMARK    1  A    between atoms: C_1  and  C_2
REMARK    2  A    between atoms: C_5  and  C_8
REMARK    3  A    between atoms: C_10  and  N_12
REMARK    4  A    between atoms: N_16  and  C_18
REMARK                            x       y       z     vdW  Elec       q    Type
REMARK                         _______ _______ _______ _____ _____    ______ ____
ROOT
ATOM      1  C   UNL     1       0.059  -4.275  -0.021  0.00  0.00    +0.022 C 
ATOM      2  C   UNL     1      -0.784  -4.908   1.098  0.00  0.00    +0.030 C 
ATOM      3  C   UNL     1       0.344  -5.941   1.256  0.00  0.00    +0.073 C 
ATOM      4  C   UNL     1       1.292  -4.879   0.673  0.00  0.00    +0.030 C 
ENDROOT
BRANCH   3   5
ATOM      5  N   UNL     1       0.186  -7.120   0.401  0.00  0.00    -0.325 N 
ATOM      6  C   UNL     1       0.776  -8.335   0.767  0.00  0.00    +0.141 A 
ATOM      7  C   UNL     1       1.538  -8.567   1.923  0.00  0.00    +0.064 A 
ATOM      8  C   UNL     1       1.927  -9.862   1.911  0.00  0.00    +0.110 A 
ATOM      9  N   UNL     1       1.433 -10.432   0.792  0.00  0.00    -0.273 N 
ATOM     10  N   UNL     1       0.710  -9.459   0.092  0.00  0.00    -0.157 NA
ATOM     11  C   UNL     1       1.616 -11.827   0.385  0.00  0.00    +0.172 C 
ATOM     12  H   UNL     1      -0.328  -7.058  -0.420  0.00  0.00    +0.148 HD
ENDBRANCH   3   5
BRANCH   1  17
ATOM     13  C   UNL     1      -0.018   1.503   0.010  0.00  0.00    +0.044 C 
ATOM     14  C   UNL     1       0.002  -0.004   0.002  0.00  0.00    -0.050 A 
ATOM     15  C   UNL     1       0.006  -0.689  -1.199  0.00  0.00    +0.003 A 
ATOM     16  C   UNL     1       0.025  -2.071  -1.206  0.00  0.00    +0.004 A 
ATOM     17  C   UNL     1       0.040  -2.768  -0.013  0.00  0.00    -0.044 A 
ATOM     18  C   UNL     1       0.037  -2.084   1.188  0.00  0.00    +0.004 A 
ATOM     19  C   UNL     1       0.023  -0.702   1.195  0.00  0.00    +0.003 A 
ENDBRANCH   1  17
TORSDOF 2
