REMARK  Name = ZINC62520127
REMARK  7 active torsions:
REMARK  status: ('A' for Active; 'I' for Inactive)
REMARK    1  A    between atoms: C_4  and  C_7
REMARK    2  A    between atoms: C_7  and  C_8
REMARK    3  A    between atoms: C_7  and  N_11
REMARK    4  A    between atoms: N_14  and  C_15
REMARK    5  A    between atoms: C_15  and  C_16
REMARK    6  A    between atoms: C_16  and  O_17
REMARK    7  A    between atoms: O_17  and  C_18
REMARK                            x       y       z     vdW  Elec       q    Type
REMARK                         _______ _______ _______ _____ _____    ______ ____
ROOT
ATOM      1  N   UNL     1       3.630  -1.873   0.845  0.00  0.00    -0.284 N 
ATOM      2  C   UNL     1       4.751  -2.385   1.391  0.00  0.00    +0.301 C 
ATOM      3  O   UNL     1       5.830  -1.879   1.150  0.00  0.00    -0.253 OA
ATOM      4  N   UNL     1       4.677  -3.458   2.203  0.00  0.00    -0.296 N 
ATOM      5  H   UNL     1       2.769  -2.277   1.038  0.00  0.00    +0.151 HD
ATOM      6  H   UNL     1       3.816  -3.862   2.395  0.00  0.00    +0.150 HD
ENDROOT
BRANCH   1   7
ATOM      7  C   UNL     1       3.711  -0.707  -0.038  0.00  0.00    +0.190 C 
BRANCH   7  11
ATOM      8  C   UNL     1      -0.017   1.378   0.010  0.00  0.00    +0.000 A 
ATOM      9  C   UNL     1       1.171   2.086   0.002  0.00  0.00    +0.000 A 
ATOM     10  C   UNL     1       2.377   1.411  -0.013  0.00  0.00    +0.006 A 
ATOM     11  C   UNL     1       2.396   0.029  -0.020  0.00  0.00    -0.018 A 
ATOM     12  C   UNL     1       1.208  -0.679  -0.012  0.00  0.00    +0.006 A 
ATOM     13  C   UNL     1       0.002  -0.004   0.002  0.00  0.00    +0.000 A 
ENDBRANCH   7  11
BRANCH   7  14
ATOM     14  C   UNL     1       4.014  -1.161  -1.442  0.00  0.00    +0.235 C 
ATOM     15  O   UNL     1       4.150  -2.342  -1.682  0.00  0.00    -0.274 OA
ATOM     16  N   UNL     1       4.136  -0.254  -2.432  0.00  0.00    -0.328 N 
ATOM     17  H   UNL     1       4.027   0.691  -2.240  0.00  0.00    +0.145 HD
ATOM     18  H   UNL     1       4.331  -0.546  -3.336  0.00  0.00    +0.145 HD
ENDBRANCH   7  14
ENDBRANCH   1   7
BRANCH   4  19
ATOM     19  C   UNL     1       5.896  -4.014   2.796  0.00  0.00    +0.146 C 
BRANCH  19  20
ATOM     20  C   UNL     1       5.535  -5.217   3.669  0.00  0.00    +0.247 C 
BRANCH  20  21
ATOM     21  O   UNL     1       5.004  -6.260   2.848  0.00  0.00    -0.490 OA
BRANCH  21  22
ATOM     22  C   UNL     1       4.631  -7.408   3.473  0.00  0.00    +0.121 A 
ATOM     23  C   UNL     1       4.768  -7.526   4.848  0.00  0.00    +0.047 A 
ATOM     24  C   UNL     1       4.388  -8.694   5.481  0.00  0.00    +0.019 A 
ATOM     25  C   UNL     1       3.872  -9.745   4.744  0.00  0.00    +0.018 A 
ATOM     26  C   UNL     1       3.735  -9.629   3.372  0.00  0.00    +0.019 A 
ATOM     27  C   UNL     1       4.108  -8.461   2.736  0.00  0.00    +0.047 A 
ATOM     28 BR   UNL     1       3.353 -11.342   5.613  0.00  0.00    -0.050 Br
ENDBRANCH  21  22
ENDBRANCH  20  21
ENDBRANCH  19  20
ENDBRANCH   4  19
TORSDOF 7
