REMARK  Name = ZINC50265066
REMARK  7 active torsions:
REMARK  status: ('A' for Active; 'I' for Inactive)
REMARK    1  A    between atoms: C_1  and  C_2
REMARK    2  A    between atoms: C_4  and  S_8
REMARK    3  A    between atoms: N_6  and  C_7
REMARK    4  A    between atoms: S_8  and  N_11
REMARK    5  A    between atoms: N_11  and  C_12
REMARK    6  A    between atoms: C_12  and  C_18
REMARK    7  A    between atoms: N_19  and  O_20
REMARK                            x       y       z     vdW  Elec       q    Type
REMARK                         _______ _______ _______ _____ _____    ______ ____
ROOT
ATOM      1  C   UNL     1      -0.255  -1.901  -3.811  0.00  0.00    +0.098 C 
ATOM      2  C   UNL     1       0.023  -0.745  -2.848  0.00  0.00    +0.031 C 
ATOM      3  C   UNL     1      -1.277  -0.340  -2.150  0.00  0.00    +0.002 C 
ATOM      4  C   UNL     1      -2.302   0.103  -3.196  0.00  0.00    +0.000 C 
ATOM      5  C   UNL     1      -2.579  -1.053  -4.160  0.00  0.00    +0.002 C 
ATOM      6  C   UNL     1      -1.279  -1.459  -4.858  0.00  0.00    +0.031 C 
ENDROOT
BRANCH   1   7
ATOM      7  C   UNL     1       1.025  -2.300  -4.499  0.00  0.00    +0.153 C 
ATOM      8  N   UNL     1       1.100  -2.279  -5.789  0.00  0.00    -0.075 NA
ATOM      9  N   UNL     1       2.116  -2.689  -3.753  0.00  0.00    -0.342 N 
ATOM     10  H   UNL     1       2.036  -2.784  -2.791  0.00  0.00    +0.144 HD
ATOM     11  H   UNL     1       2.964  -2.867  -4.189  0.00  0.00    +0.144 HD
BRANCH   8  12
ATOM     12  O   UNL     1       2.303  -2.654  -6.435  0.00  0.00    -0.408 OA
ATOM     13  H   UNL     1       2.262  -2.605  -7.400  0.00  0.00    +0.328 HD
ENDBRANCH   8  12
ENDBRANCH   1   7
BRANCH   1  14
ATOM     14  N   UNL     1      -0.784  -3.044  -3.063  0.00  0.00    -0.175 NA
ATOM     15  H   UNL     1      -0.812  -3.018  -2.094  0.00  0.00    +0.149 HD
BRANCH  14  16
ATOM     16  S   UNL     1      -1.333  -4.381  -3.872  0.00  0.00    +0.078 S 
ATOM     17  O   UNL     1      -2.066  -3.905  -4.992  0.00  0.00    -0.151 OA
ATOM     18  O   UNL     1      -1.906  -5.239  -2.895  0.00  0.00    -0.151 OA
BRANCH  16  22
ATOM     19  C   UNL     1       3.472  -5.340  -5.764  0.00  0.00    +0.086 C 
ATOM     20  C   UNL     1       2.062  -5.571  -5.287  0.00  0.00    +0.109 A 
ATOM     21  N   UNL     1       1.246  -4.651  -4.849  0.00  0.00    -0.213 NA
ATOM     22  C   UNL     1       0.079  -5.218  -4.513  0.00  0.00    +0.211 A 
ATOM     23  C   UNL     1       0.174  -6.541  -4.750  0.00  0.00    +0.135 A 
ATOM     24  N   UNL     1       1.430  -6.764  -5.246  0.00  0.00    -0.336 N 
ATOM     25  C   UNL     1       1.986  -8.057  -5.654  0.00  0.00    +0.150 C 
ENDBRANCH  16  22
ENDBRANCH  14  16
ENDBRANCH   1  14
TORSDOF 5
