REMARK  Name = ZINC04847544
REMARK  12 active torsions:
REMARK  status: ('A' for Active; 'I' for Inactive)
REMARK    1  A    between atoms: C_1  and  C_2
REMARK    2  A    between atoms: C_4  and  C_31
REMARK    3  A    between atoms: C_9  and  C_14
REMARK    4  A    between atoms: C_14  and  N_57
REMARK    5  A    between atoms: C_15  and  C_16
REMARK    6  A    between atoms: C_15  and  N_57
REMARK    7  A    between atoms: C_16  and  C_17
REMARK    8  A    between atoms: C_17  and  O_18
REMARK    9  A    between atoms: C_19  and  C_20
REMARK   10  A    between atoms: C_19  and  N_57
REMARK   11  A    between atoms: N_24  and  C_25
REMARK   12  A    between atoms: C_25  and  C_26
REMARK                            x       y       z     vdW  Elec       q    Type
REMARK                         _______ _______ _______ _____ _____    ______ ____
ROOT
ATOM      1  N   UNL     1       1.864   3.265   1.323  0.00  0.00    +0.387 N 
ATOM      2  H   UNL     1       1.165   3.132   2.063  0.00  0.00    -0.081 HD
ENDROOT
BRANCH   1   3
ATOM      3  C   UNL     1       1.994   4.711   1.041  0.00  0.00    -0.037 C 
BRANCH   3  12
ATOM      4  C   UNL     1      -3.647   8.253   4.395  0.00  0.00    +0.044 C 
ATOM      5  C   UNL     1      -3.037   7.613   3.175  0.00  0.00    -0.050 A 
ATOM      6  C   UNL     1      -3.754   7.577   1.986  0.00  0.00    +0.008 A 
ATOM      7  C   UNL     1      -3.215   6.997   0.858  0.00  0.00    -0.026 A 
ATOM      8  C   UNL     1      -1.941   6.440   0.909  0.00  0.00    +0.052 A 
ATOM      9  C   UNL     1      -1.218   6.479   2.116  0.00  0.00    -0.001 A 
ATOM     10  C   UNL     1      -1.785   7.073   3.248  0.00  0.00    +0.013 A 
ATOM     11  C   UNL     1       0.119   5.885   2.161  0.00  0.00    +0.017 A 
ATOM     12  C   UNL     1       0.618   5.326   1.030  0.00  0.00    +0.001 A 
ATOM     13  C   UNL     1      -0.148   5.314  -0.155  0.00  0.00    +0.251 A 
ATOM     14  O   UNL     1       0.317   4.802  -1.158  0.00  0.00    -0.268 OA
ATOM     15  N   UNL     1      -1.379   5.853  -0.204  0.00  0.00    -0.322 N 
ATOM     16  H   UNL     1      -1.894   5.827  -1.061  0.00  0.00    +0.169 HD
ATOM     17  C   UNL     1      -4.004   6.966  -0.426  0.00  0.00    +0.046 C 
ENDBRANCH   3  12
ENDBRANCH   1   3
BRANCH   1  18
ATOM     18  C   UNL     1       3.159   2.722   1.781  0.00  0.00    -0.076 C 
BRANCH  18  19
ATOM     19  C   UNL     1       3.414   3.199   3.212  0.00  0.00    +0.009 C 
BRANCH  19  20
ATOM     20  C   UNL     1       4.758   2.653   3.700  0.00  0.00    +0.154 C 
BRANCH  20  21
ATOM     21  O   UNL     1       4.996   3.099   5.037  0.00  0.00    -0.395 OA
ATOM     22  H   UNL     1       5.832   2.790   5.412  0.00  0.00    +0.209 HD
ENDBRANCH  20  21
ENDBRANCH  19  20
ENDBRANCH  18  19
ENDBRANCH   1  18
BRANCH   1  23
ATOM     23  C   UNL     1       1.418   2.552   0.107  0.00  0.00    +0.001 C 
BRANCH  23  24
ATOM     24  C   UNL     1       1.139   1.114   0.462  0.00  0.00    +0.136 A 
ATOM     25  N   UNL     1       2.009   0.134   0.497  0.00  0.00    -0.115 NA
ATOM     26  N   UNL     1       1.385  -0.939   0.842  0.00  0.00    -0.023 NA
ATOM     27  N   UNL     1       0.140  -0.670   1.027  0.00  0.00    -0.044 NA
ATOM     28  N   UNL     1      -0.051   0.586   0.803  0.00  0.00    -0.224 N 
BRANCH  28  29
ATOM     29  C   UNL     1      -1.326   1.302   0.895  0.00  0.00    +0.221 C 
BRANCH  29  30
ATOM     30  C   UNL     1      -1.579   1.694   2.328  0.00  0.00    +0.126 A 
ATOM     31  C   UNL     1      -1.275   2.880   2.885  0.00  0.00    +0.046 A 
ATOM     32  C   UNL     1      -1.686   2.815   4.236  0.00  0.00    +0.041 A 
ATOM     33  C   UNL     1      -2.209   1.591   4.427  0.00  0.00    +0.195 A 
ATOM     34  O   UNL     1      -2.142   0.916   3.267  0.00  0.00    -0.466 OA
ENDBRANCH  29  30
ENDBRANCH  28  29
ENDBRANCH  23  24
ENDBRANCH   1  23
TORSDOF 10
