REMARK  Name = ZINC51147810
REMARK  5 active torsions:
REMARK  status: ('A' for Active; 'I' for Inactive)
REMARK    1  A    between atoms: C_1  and  C_2
REMARK    2  A    between atoms: N_7  and  C_8
REMARK    3  A    between atoms: C_8  and  C_9
REMARK    4  A    between atoms: C_10  and  N_14
REMARK    5  A    between atoms: N_14  and  N_15
REMARK                            x       y       z     vdW  Elec       q    Type
REMARK                         _______ _______ _______ _____ _____    ______ ____
ROOT
ATOM      1  C   UNL     1      -1.149   0.033   3.034  0.00  0.00    +0.114 A 
ATOM      2  C   UNL     1      -1.563  -0.844   3.996  0.00  0.00    +0.124 A 
ATOM      3  S   UNL     1      -3.061  -0.210   4.425  0.00  0.00    +0.053 S 
ATOM      4  N   UNL     1      -3.091   1.106   3.389  0.00  0.00    -0.108 NA
ATOM      5  N   UNL     1      -1.967   1.024   2.760  0.00  0.00    -0.142 NA
ENDROOT
BRANCH   2   6
ATOM      6  N   UNL     1      -0.914  -1.971   4.493  0.00  0.00    -0.274 N 
ATOM      7  H   UNL     1      -0.051  -2.231   4.133  0.00  0.00    +0.167 HD
BRANCH   6   8
ATOM      8  N   UNL     1      -1.492  -2.710   5.486  0.00  0.00    -0.256 NA
ATOM      9  H   UNL     1      -2.413  -3.021   5.216  0.00  0.00    +0.140 HD
ATOM     10  H   UNL     1      -0.907  -3.492   5.741  0.00  0.00    +0.140 HD
ENDBRANCH   6   8
ENDBRANCH   2   6
BRANCH   1  11
ATOM     11  C   UNL     1       0.174  -0.123   2.332  0.00  0.00    +0.185 C 
BRANCH  11  18
ATOM     12  C   UNL     1      -0.330   1.379  -0.087  0.00  0.00    +0.064 C 
ATOM     13  C   UNL     1      -0.265  -0.126  -0.085  0.00  0.00    +0.027 A 
ATOM     14  C   UNL     1      -0.432  -0.832  -1.206  0.00  0.00    +0.071 A 
ATOM     15  S   UNL     1      -0.256  -2.505  -0.615  0.00  0.00    -0.035 S 
ATOM     16  C   UNL     1       0.017  -2.173   1.011  0.00  0.00    +0.291 A 
ATOM     17  O   UNL     1       0.211  -2.959   1.921  0.00  0.00    -0.259 OA
ATOM     18  N   UNL     1      -0.026  -0.825   1.062  0.00  0.00    -0.300 N 
ENDBRANCH  11  18
ENDBRANCH   1  11
TORSDOF 4
