REMARK  Name = ZINC28239683
REMARK  8 active torsions:
REMARK  status: ('A' for Active; 'I' for Inactive)
REMARK    1  A    between atoms: C_1  and  C_2
REMARK    2  A    between atoms: C_4  and  C_24
REMARK    3  A    between atoms: C_6  and  N_8
REMARK    4  A    between atoms: C_9  and  C_11
REMARK    5  A    between atoms: C_14  and  C_16
REMARK    6  A    between atoms: C_16  and  C_17
REMARK    7  A    between atoms: C_18  and  C_23
REMARK    8  A    between atoms: C_21  and  C_22
REMARK                            x       y       z     vdW  Elec       q    Type
REMARK                         _______ _______ _______ _____ _____    ______ ____
ROOT
ATOM      1  C   UNL     1      -2.533   4.121   0.249  0.00  0.00    +0.190 A 
ATOM      2  C   UNL     1      -2.693   5.472   0.365  0.00  0.00    +0.055 A 
ATOM      3  C   UNL     1      -4.074   5.708   0.452  0.00  0.00    +0.046 A 
ATOM      4  C   UNL     1      -4.688   4.506   0.386  0.00  0.00    +0.110 A 
ATOM      5  O   UNL     1      -3.756   3.552   0.258  0.00  0.00    -0.455 OA
ENDROOT
BRANCH   1   7
ATOM      6  N   UNL     1      -1.236   2.069   0.019  0.00  0.00    -0.279 N 
ATOM      7  C   UNL     1      -1.254   3.412   0.128  0.00  0.00    +0.284 C 
ATOM      8  O   UNL     1      -0.210   4.037   0.127  0.00  0.00    -0.266 OA
ATOM      9  H   UNL     1      -2.181   1.510  -0.056  0.00  0.00    +0.155 HD
BRANCH   6  15
ATOM     10  C   UNL     1       3.495   1.889  -1.302  0.00  0.00    +0.044 C 
ATOM     11  C   UNL     1       2.293   1.273  -0.635  0.00  0.00    -0.048 A 
ATOM     12  C   UNL     1       2.394   0.028  -0.042  0.00  0.00    +0.006 A 
ATOM     13  C   UNL     1       1.294  -0.540   0.573  0.00  0.00    -0.048 A 
ATOM     14  C   UNL     1       0.089   0.135   0.597  0.00  0.00    +0.026 A 
ATOM     15  C   UNL     1      -0.017   1.385   0.002  0.00  0.00    +0.034 A 
ATOM     16  C   UNL     1       1.091   1.953  -0.615  0.00  0.00    +0.026 A 
ATOM     17  C   UNL     1       1.409  -1.897   1.218  0.00  0.00    +0.044 C 
ENDBRANCH   6  15
ENDBRANCH   1   7
BRANCH   4  18
ATOM     18  C   UNL     1      -6.176   4.276   0.441  0.00  0.00    +0.114 C 
BRANCH  18  19
ATOM     19  C   UNL     1      -6.743   4.314  -0.955  0.00  0.00    +0.024 A 
ATOM     20  C   UNL     1      -7.241   5.433  -1.662  0.00  0.00    +0.084 A 
ATOM     21  N   UNL     1      -7.620   4.992  -2.827  0.00  0.00    -0.083 NA
ATOM     22  O   UNL     1      -7.440   3.800  -2.932  0.00  0.00    -0.359 OA
ATOM     23  C   UNL     1      -6.898   3.284  -1.820  0.00  0.00    +0.138 A 
ATOM     24  C   UNL     1      -6.532   1.842  -1.581  0.00  0.00    +0.089 C 
ATOM     25  C   UNL     1      -7.316   6.854  -1.167  0.00  0.00    +0.069 C 
ENDBRANCH  18  19
ENDBRANCH   4  18
TORSDOF 4
