REMARK  Name = ZINC49531869
REMARK  8 active torsions:
REMARK  status: ('A' for Active; 'I' for Inactive)
REMARK    1  A    between atoms: C_1  and  C_2
REMARK    2  A    between atoms: C_2  and  C_3
REMARK    3  A    between atoms: C_3  and  C_5
REMARK    4  A    between atoms: C_3  and  N_10
REMARK    5  A    between atoms: C_11  and  C_22
REMARK    6  A    between atoms: C_12  and  C_21
REMARK    7  A    between atoms: C_16  and  C_20
REMARK    8  A    between atoms: C_18  and  N_19
REMARK                            x       y       z     vdW  Elec       q    Type
REMARK                         _______ _______ _______ _____ _____    ______ ____
ROOT
ATOM      1  N   UNL     1       0.866  -1.969   1.174  0.00  0.00    -0.321 N 
ATOM      2  C   UNL     1       2.052  -2.657   1.167  0.00  0.00    +0.022 A 
ATOM      3  C   UNL     1       1.812  -3.977   1.098  0.00  0.00    -0.017 A 
ATOM      4  C   UNL     1       0.360  -4.141   1.058  0.00  0.00    +0.062 A 
ATOM      5  C   UNL     1      -0.183  -2.844   1.114  0.00  0.00    +0.147 A 
ATOM      6  N   UNL     1      -1.508  -2.707   1.098  0.00  0.00    -0.214 NA
ATOM      7  C   UNL     1      -2.292  -3.762   1.034  0.00  0.00    +0.130 A 
ATOM      8  N   UNL     1      -1.824  -4.996   0.983  0.00  0.00    -0.217 NA
ATOM      9  C   UNL     1      -0.516  -5.235   0.986  0.00  0.00    +0.129 A 
ATOM     10  C   UNL     1      -3.784  -3.554   1.018  0.00  0.00    +0.088 C 
ATOM     11  C   UNL     1       2.841  -5.077   1.068  0.00  0.00    +0.046 C 
ATOM     12  C   UNL     1       3.420  -2.028   1.227  0.00  0.00    +0.064 C 
ENDROOT
BRANCH   9  13
ATOM     13  N   UNL     1      -0.031  -6.529   0.935  0.00  0.00    -0.343 N 
ATOM     14  H   UNL     1       0.926  -6.689   0.948  0.00  0.00    +0.144 HD
ATOM     15  H   UNL     1      -0.647  -7.276   0.885  0.00  0.00    +0.144 HD
ENDBRANCH   9  13
BRANCH   1  16
ATOM     16  C   UNL     1       0.742  -0.511   1.242  0.00  0.00    +0.125 C 
BRANCH  16  17
ATOM     17  C   UNL     1      -0.030  -0.130   2.478  0.00  0.00    +0.013 A 
ATOM     18  C   UNL     1       0.358   0.644   3.522  0.00  0.00    +0.013 A 
ATOM     19  C   UNL     1      -0.528   0.862   4.560  0.00  0.00    +0.008 A 
ATOM     20  C   UNL     1      -1.758   0.295   4.505  0.00  0.00    +0.045 A 
ATOM     21  S   UNL     1      -1.695  -0.573   2.946  0.00  0.00    -0.100 S 
ENDBRANCH  16  17
BRANCH  16  23
ATOM     22  C   UNL     1      -0.019   1.526   0.010  0.00  0.00    +0.006 C 
ATOM     23  C   UNL     1       0.002  -0.004   0.002  0.00  0.00    +0.027 C 
ENDBRANCH  16  23
ENDBRANCH   1  16
TORSDOF 4
