REMARK  Name = ZINC40897127
REMARK  12 active torsions:
REMARK  status: ('A' for Active; 'I' for Inactive)
REMARK    1  A    between atoms: C_1  and  C_2
REMARK    2  A    between atoms: C_2  and  C_3
REMARK    3  A    between atoms: C_5  and  C_22
REMARK    4  A    between atoms: C_6  and  C_21
REMARK    5  A    between atoms: C_8  and  C_15
REMARK    6  A    between atoms: C_9  and  C_10
REMARK    7  A    between atoms: C_10  and  O_12
REMARK    8  A    between atoms: O_12  and  C_13
REMARK    9  A    between atoms: C_13  and  C_14
REMARK   10  A    between atoms: C_22  and  S_24
REMARK   11  A    between atoms: S_24  and  C_25
REMARK   12  A    between atoms: C_25  and  C_26
REMARK                            x       y       z     vdW  Elec       q    Type
REMARK                         _______ _______ _______ _____ _____    ______ ____
ROOT
ATOM      1  C   UNL     1      -1.317  -0.788   0.122  0.00  0.00    +0.063 C 
ATOM      2  C   UNL     1      -2.065  -0.038  -0.944  0.00  0.00    +0.030 C 
ATOM      3  C   UNL     1      -2.410  -0.624  -2.102  0.00  0.00    +0.013 C 
ATOM      4  N   UNL     1      -2.096  -1.935  -2.345  0.00  0.00    -0.320 N 
ATOM      5  C   UNL     1      -1.760  -2.767  -1.313  0.00  0.00    +0.022 C 
ATOM      6  C   UNL     1      -1.387  -2.269  -0.122  0.00  0.00    +0.061 C 
ATOM      7  C   UNL     1      -3.153   0.170  -3.145  0.00  0.00    +0.061 C 
ATOM      8  H   UNL     1      -2.113  -2.275  -3.254  0.00  0.00    +0.152 HD
ENDROOT
BRANCH   5   9
ATOM      9  C   UNL     1      -1.807  -4.260  -1.515  0.00  0.00    +0.034 C 
ATOM     10  C   UNL     1      -0.757  -4.669  -2.550  0.00  0.00    +0.009 C 
ATOM     11  C   UNL     1      -0.806  -6.184  -2.754  0.00  0.00    +0.001 C 
ATOM     12  C   UNL     1      -2.195  -6.588  -3.251  0.00  0.00    +0.000 C 
ATOM     13  C   UNL     1      -3.245  -6.179  -2.216  0.00  0.00    +0.001 C 
ATOM     14  C   UNL     1      -3.197  -4.663  -2.012  0.00  0.00    +0.009 C 
ENDBRANCH   5   9
BRANCH   1  16
ATOM     15  C   UNL     1       0.752  -0.600  -1.266  0.00  0.00    +0.005 C 
ATOM     16  C   UNL     1       0.147  -0.345   0.116  0.00  0.00    +0.010 C 
ENDBRANCH   1  16
BRANCH   6  17
ATOM     17  C   UNL     1      -1.052  -3.159   0.924  0.00  0.00    +0.337 C 
ATOM     18  O   UNL     1      -1.854  -3.382   1.812  0.00  0.00    -0.245 OA
BRANCH  17  19
ATOM     19  O   UNL     1       0.155  -3.761   0.938  0.00  0.00    -0.462 OA
BRANCH  19  20
ATOM     20  C   UNL     1       0.425  -4.648   2.026  0.00  0.00    +0.229 C 
ATOM     21  C   UNL     1       1.831  -5.231   1.871  0.00  0.00    +0.048 C 
ENDBRANCH  19  20
ENDBRANCH  17  19
ENDBRANCH   6  17
BRANCH   2  22
ATOM     22  C   UNL     1      -2.414   1.317  -0.722  0.00  0.00    +0.218 C 
ATOM     23  O   UNL     1      -3.360   1.593  -0.006  0.00  0.00    -0.280 OA
BRANCH  22  24
ATOM     24  S   UNL     1      -1.480   2.603  -1.482  0.00  0.00    -0.084 S 
BRANCH  24  25
ATOM     25  C   UNL     1      -2.287   4.125  -0.915  0.00  0.00    +0.074 C 
ATOM     26  C   UNL     1      -1.565   5.337  -1.509  0.00  0.00    +0.016 C 
ENDBRANCH  24  25
ENDBRANCH  22  24
ENDBRANCH   2  22
TORSDOF 8
