REMARK  Name = ZINC36532630
REMARK  9 active torsions:
REMARK  status: ('A' for Active; 'I' for Inactive)
REMARK    1  A    between atoms: C_1  and  C_2
REMARK    2  A    between atoms: C_11  and  O_13
REMARK    3  A    between atoms: O_13  and  C_14
REMARK    4  A    between atoms: C_16  and  N_29
REMARK    5  A    between atoms: C_18  and  O_28
REMARK    6  A    between atoms: C_20  and  O_27
REMARK    7  A    between atoms: C_22  and  C_25
REMARK    8  A    between atoms: C_25  and  O_26
REMARK    9  A    between atoms: C_30  and  C_32
REMARK                            x       y       z     vdW  Elec       q    Type
REMARK                         _______ _______ _______ _____ _____    ______ ____
ROOT
ATOM      1  C   UNL     1       0.007  -2.296   5.900  0.00  0.00    +0.331 C 
ATOM      2  C   UNL     1      -0.014  -3.171   7.156  0.00  0.00    +0.173 C 
ATOM      3  C   UNL     1       0.127  -2.278   8.393  0.00  0.00    +0.172 C 
ATOM      4  C   UNL     1       1.416  -1.460   8.275  0.00  0.00    +0.176 C 
ATOM      5  C   UNL     1       1.381  -0.651   6.975  0.00  0.00    +0.179 C 
ATOM      6  O   UNL     1       1.218  -1.539   5.867  0.00  0.00    -0.332 OA
ENDROOT
BRANCH   2   7
ATOM      7  N   UNL     1       1.099  -4.122   7.108  0.00  0.00    -0.304 N 
ATOM      8  C   UNL     1       1.018  -5.289   7.778  0.00  0.00    +0.210 C 
ATOM      9  O   UNL     1       0.023  -5.551   8.420  0.00  0.00    -0.276 OA
ATOM     10  C   UNL     1       2.163  -6.267   7.729  0.00  0.00    +0.109 C 
ATOM     11  H   UNL     1       1.895  -3.912   6.595  0.00  0.00    +0.149 HD
ENDBRANCH   2   7
BRANCH   4  12
ATOM     12  O   UNL     1       2.541  -2.341   8.260  0.00  0.00    -0.387 OA
ATOM     13  H   UNL     1       3.393  -1.890   8.187  0.00  0.00    +0.210 HD
ENDBRANCH   4  12
BRANCH   3  14
ATOM     14  O   UNL     1      -0.995  -1.396   8.475  0.00  0.00    -0.387 OA
ATOM     15  H   UNL     1      -0.972  -0.801   9.237  0.00  0.00    +0.210 HD
ENDBRANCH   3  14
BRANCH   1  16
ATOM     16  O   UNL     1      -0.067  -3.127   4.739  0.00  0.00    -0.461 OA
BRANCH  16  27
ATOM     17  C   UNL     1      -0.496   0.959  -0.301  0.00  0.00    +0.045 C 
ATOM     18  C   UNL     1      -0.468  -0.544  -0.199  0.00  0.00    -0.033 A 
ATOM     19  C   UNL     1      -0.534  -1.320  -1.312  0.00  0.00    +0.096 A 
ATOM     20  C   UNL     1      -0.505  -2.725  -1.191  0.00  0.00    +0.337 A 
ATOM     21  O   UNL     1      -0.565  -3.409  -2.197  0.00  0.00    -0.245 OA
ATOM     22  O   UNL     1      -0.414  -3.327   0.005  0.00  0.00    -0.422 OA
ATOM     23  C   UNL     1      -0.344  -2.615   1.150  0.00  0.00    +0.143 A 
ATOM     24  C   UNL     1      -0.362  -1.208   1.102  0.00  0.00    +0.021 A 
ATOM     25  C   UNL     1      -0.286  -0.465   2.285  0.00  0.00    +0.015 A 
ATOM     26  C   UNL     1      -0.189  -1.109   3.485  0.00  0.00    +0.046 A 
ATOM     27  C   UNL     1      -0.165  -2.501   3.539  0.00  0.00    +0.127 A 
ATOM     28  C   UNL     1      -0.251  -3.252   2.377  0.00  0.00    +0.092 A 
ENDBRANCH  16  27
ENDBRANCH   1  16
BRANCH   5  29
ATOM     29  C   UNL     1       2.692   0.122   6.821  0.00  0.00    +0.190 C 
BRANCH  29  30
ATOM     30  O   UNL     1       2.614   0.966   5.670  0.00  0.00    -0.392 OA
ATOM     31  H   UNL     1       3.413   1.488   5.510  0.00  0.00    +0.210 HD
ENDBRANCH  29  30
ENDBRANCH   5  29
TORSDOF 7
