REMARK  Name = ZINC62834419
REMARK  7 active torsions:
REMARK  status: ('A' for Active; 'I' for Inactive)
REMARK    1  A    between atoms: C_1  and  C_2
REMARK    2  A    between atoms: C_2  and  C_4
REMARK    3  A    between atoms: C_2  and  N_8
REMARK    4  A    between atoms: C_4  and  O_6
REMARK    5  A    between atoms: O_6  and  C_7
REMARK    6  A    between atoms: C_9  and  C_11
REMARK    7  A    between atoms: C_15  and  N_21
REMARK                            x       y       z     vdW  Elec       q    Type
REMARK                         _______ _______ _______ _____ _____    ______ ____
ROOT
ATOM      1  C   UNL     1      -3.430  -1.152  -1.134  0.00  0.00    +0.103 A 
ATOM      2  C   UNL     1      -4.211  -1.333  -2.231  0.00  0.00    +0.041 A 
ATOM      3  C   UNL     1      -5.460  -1.836  -1.794  0.00  0.00    +0.002 A 
ATOM      4  C   UNL     1      -6.636  -2.204  -2.463  0.00  0.00    +0.032 A 
ATOM      5  C   UNL     1      -7.715  -2.672  -1.741  0.00  0.00    +0.025 A 
ATOM      6  C   UNL     1      -7.639  -2.779  -0.351  0.00  0.00    +0.025 A 
ATOM      7  C   UNL     1      -6.492  -2.421   0.317  0.00  0.00    +0.028 A 
ATOM      8  C   UNL     1      -5.391  -1.947  -0.392  0.00  0.00    +0.047 A 
ATOM      9  N   UNL     1      -4.137  -1.527  -0.008  0.00  0.00    -0.351 N 
ATOM     10  H   UNL     1      -3.804  -1.498   0.903  0.00  0.00    +0.166 HD
ENDROOT
BRANCH   1  12
ATOM     11  N   UNL     1      -1.372  -0.511   0.012  0.00  0.00    -0.297 N 
ATOM     12  C   UNL     1      -2.051  -0.643  -1.145  0.00  0.00    +0.261 C 
ATOM     13  O   UNL     1      -1.522  -0.340  -2.198  0.00  0.00    -0.269 OA
ATOM     14  H   UNL     1      -1.794  -0.752   0.852  0.00  0.00    +0.150 HD
BRANCH  11  16
ATOM     15  C   UNL     1      -0.019   1.526   0.010  0.00  0.00    +0.040 C 
ATOM     16  C   UNL     1       0.002  -0.004   0.002  0.00  0.00    +0.179 C 
BRANCH  16  17
ATOM     17  C   UNL     1       0.731  -0.503   1.223  0.00  0.00    +0.327 C 
ATOM     18  O   UNL     1       0.161  -1.210   2.020  0.00  0.00    -0.249 OA
BRANCH  17  19
ATOM     19  O   UNL     1       2.014  -0.163   1.425  0.00  0.00    -0.467 OA
ATOM     20  C   UNL     1       2.642  -0.672   2.603  0.00  0.00    +0.280 C 
ENDBRANCH  17  19
ENDBRANCH  16  17
ENDBRANCH  11  16
ENDBRANCH   1  12
BRANCH   5  21
ATOM     21  N   UNL     1      -8.890  -3.040  -2.405  0.00  0.00    -0.358 N 
ATOM     22  H   UNL     1      -8.945  -2.966  -3.370  0.00  0.00    +0.142 HD
ATOM     23  H   UNL     1      -9.650  -3.369  -1.900  0.00  0.00    +0.142 HD
ENDBRANCH   5  21
TORSDOF 5
