REMARK  Name = ZINC66536719
REMARK  6 active torsions:
REMARK  status: ('A' for Active; 'I' for Inactive)
REMARK    1  A    between atoms: C_1  and  C_2
REMARK    2  A    between atoms: C_2  and  N_3
REMARK    3  A    between atoms: N_6  and  C_7
REMARK    4  A    between atoms: C_10  and  O_13
REMARK    5  A    between atoms: O_13  and  C_14
REMARK    6  A    between atoms: C_14  and  C_16
REMARK                            x       y       z     vdW  Elec       q    Type
REMARK                         _______ _______ _______ _____ _____    ______ ____
ROOT
ATOM      1  O   UNL     1       1.298  -3.127   6.886  0.00  0.00    -0.457 OA
ENDROOT
BRANCH   1   5
ATOM      2  C   UNL     1       1.661  -3.700   2.708  0.00  0.00    +0.075 C 
ATOM      3  C   UNL     1       0.415  -4.245   3.409  0.00  0.00    +0.026 C 
ATOM      4  C   UNL     1       0.236  -3.538   4.754  0.00  0.00    +0.046 C 
ATOM      5  C   UNL     1       1.465  -3.788   5.630  0.00  0.00    +0.177 C 
ATOM      6  C   UNL     1       2.711  -3.243   4.929  0.00  0.00    +0.046 C 
ATOM      7  C   UNL     1       2.890  -3.950   3.584  0.00  0.00    +0.026 C 
BRANCH   2  11
ATOM      8  N   UNL     1       0.711  -0.489   1.189  0.00  0.00    -0.300 N 
ATOM      9  C   UNL     1       0.854  -1.814   1.394  0.00  0.00    +0.300 C 
ATOM     10  O   UNL     1       0.395  -2.606   0.593  0.00  0.00    -0.253 OA
ATOM     11  N   UNL     1       1.506  -2.260   2.486  0.00  0.00    -0.297 N 
ATOM     12  H   UNL     1       1.077   0.142   1.827  0.00  0.00    +0.150 HD
ATOM     13  H   UNL     1       1.872  -1.628   3.124  0.00  0.00    +0.151 HD
BRANCH   8  15
ATOM     14  C   UNL     1      -0.019   1.526   0.010  0.00  0.00    +0.024 C 
ATOM     15  C   UNL     1       0.002  -0.004   0.002  0.00  0.00    +0.102 C 
ENDBRANCH   8  15
ENDBRANCH   2  11
ENDBRANCH   1   5
BRANCH   1  16
ATOM     16  C   UNL     1       1.895  -3.688   7.957  0.00  0.00    +0.356 C 
ATOM     17  O   UNL     1       2.540  -4.709   7.827  0.00  0.00    -0.243 OA
BRANCH  16  18
ATOM     18  C   UNL     1       1.766  -3.061   9.284  0.00  0.00    +0.128 A 
ATOM     19  C   UNL     1       2.380  -3.640  10.346  0.00  0.00    +0.041 A 
ATOM     20  C   UNL     1       2.258  -3.026  11.668  0.00  0.00    -0.011 A 
ATOM     21  C   UNL     1       2.869  -3.579  12.795  0.00  0.00    +0.009 A 
ATOM     22  C   UNL     1       2.724  -2.961  14.019  0.00  0.00    +0.001 A 
ATOM     23  C   UNL     1       1.977  -1.798  14.141  0.00  0.00    +0.001 A 
ATOM     24  C   UNL     1       1.364  -1.235  13.041  0.00  0.00    +0.014 A 
ATOM     25  C   UNL     1       1.497  -1.841  11.794  0.00  0.00    +0.046 A 
ATOM     26  C   UNL     1       0.865  -1.281  10.591  0.00  0.00    +0.257 A 
ATOM     27  O   UNL     1       0.203  -0.262  10.662  0.00  0.00    -0.267 OA
ATOM     28  N   UNL     1       1.029  -1.903   9.407  0.00  0.00    -0.316 N 
ATOM     29  H   UNL     1       0.612  -1.525   8.616  0.00  0.00    +0.169 HD
ENDBRANCH  16  18
ENDBRANCH   1  16
TORSDOF 5
