REMARK  Name = ZINC36243661
REMARK  8 active torsions:
REMARK  status: ('A' for Active; 'I' for Inactive)
REMARK    1  A    between atoms: C_1  and  C_2
REMARK    2  A    between atoms: C_6  and  C_22
REMARK    3  A    between atoms: C_7  and  C_12
REMARK    4  A    between atoms: C_10  and  N_11
REMARK    5  A    between atoms: C_15  and  O_18
REMARK    6  A    between atoms: O_18  and  C_19
REMARK    7  A    between atoms: C_19  and  C_20
REMARK    8  A    between atoms: C_19  and  C_21
REMARK                            x       y       z     vdW  Elec       q    Type
REMARK                         _______ _______ _______ _____ _____    ______ ____
ROOT
ATOM      1  C   UNL     1       0.249   1.498  -0.003  0.00  0.00    +0.046 C 
ATOM      2  C   UNL     1       0.133  -0.004  -0.001  0.00  0.00    -0.025 A 
ATOM      3  C   UNL     1      -0.119  -0.694  -1.198  0.00  0.00    +0.023 A 
ATOM      4  C   UNL     1      -0.224  -2.039  -1.200  0.00  0.00    +0.093 A 
ATOM      5  N   UNL     1      -0.087  -2.754  -0.042  0.00  0.00    -0.303 N 
ATOM      6  C   UNL     1      -0.147  -4.093   0.226  0.00  0.00    +0.046 A 
ATOM      7  C   UNL     1       0.063  -4.243   1.564  0.00  0.00    +0.068 A 
ATOM      8  N   UNL     1       0.246  -3.026   2.100  0.00  0.00    -0.338 N 
ATOM      9  C   UNL     1       0.159  -2.114   1.144  0.00  0.00    +0.137 A 
ATOM     10  C   UNL     1       0.277  -0.703   1.164  0.00  0.00    +0.069 A 
ATOM     11  C   UNL     1      -0.398  -5.195  -0.771  0.00  0.00    +0.066 C 
ATOM     12  H   UNL     1       0.415  -2.844   3.037  0.00  0.00    +0.167 HD
ENDROOT
BRANCH   7  13
ATOM     13  C   UNL     1       0.085  -5.530   2.302  0.00  0.00    +0.000 A 
ATOM     14  C   UNL     1      -0.894  -6.492   2.057  0.00  0.00    +0.013 A 
ATOM     15  C   UNL     1      -0.871  -7.687   2.744  0.00  0.00    +0.046 A 
ATOM     16  C   UNL     1       0.125  -7.933   3.679  0.00  0.00    +0.121 A 
ATOM     17  C   UNL     1       1.101  -6.977   3.925  0.00  0.00    +0.046 A 
ATOM     18  C   UNL     1       1.087  -5.782   3.237  0.00  0.00    +0.013 A 
BRANCH  16  19
ATOM     19  O   UNL     1       0.145  -9.112   4.355  0.00  0.00    -0.489 OA
BRANCH  19  20
ATOM     20  C   UNL     1      -0.815 -10.098   3.969  0.00  0.00    +0.167 C 
ATOM     21  C   UNL     1      -0.295 -11.489   4.336  0.00  0.00    +0.051 C 
ATOM     22  C   UNL     1      -2.135  -9.837   4.698  0.00  0.00    +0.051 C 
ENDBRANCH  19  20
ENDBRANCH  16  19
ENDBRANCH   7  13
BRANCH  10  23
ATOM     23  N   UNL     1       0.533  -0.033   2.363  0.00  0.00    -0.355 N 
ATOM     24  H   UNL     1       0.610   0.934   2.371  0.00  0.00    +0.142 HD
ATOM     25  H   UNL     1       0.635  -0.535   3.187  0.00  0.00    +0.142 HD
ENDBRANCH  10  23
TORSDOF 4
