REMARK  Name = ZINC66338764
REMARK  4 active torsions:
REMARK  status: ('A' for Active; 'I' for Inactive)
REMARK    1  A    between atoms: C_2  and  C_3
REMARK    2  A    between atoms: C_7  and  N_9
REMARK    3  A    between atoms: C_10  and  C_12
REMARK    4  A    between atoms: C_17  and  N_18
REMARK                            x       y       z     vdW  Elec       q    Type
REMARK                         _______ _______ _______ _____ _____    ______ ____
ROOT
ATOM      1  C   UNL     1       3.590   6.353  -0.232  0.00  0.00    +0.068 A 
ATOM      2  C   UNL     1       4.808   5.673  -0.258  0.00  0.00    +0.016 A 
ATOM      3  C   UNL     1       5.994   6.373  -0.376  0.00  0.00    +0.013 A 
ATOM      4  C   UNL     1       5.978   7.762  -0.470  0.00  0.00    +0.035 A 
ATOM      5  C   UNL     1       4.753   8.454  -0.444  0.00  0.00    +0.064 A 
ATOM      6  C   UNL     1       3.562   7.745  -0.330  0.00  0.00    +0.150 A 
ATOM      7  C   UNL     1       4.734   9.928  -0.543  0.00  0.00    +0.197 C 
ATOM      8  O   UNL     1       3.675  10.525  -0.520  0.00  0.00    -0.287 OA
ATOM      9  C   UNL     1       6.002  10.676  -0.668  0.00  0.00    +0.033 A 
ATOM     10  C   UNL     1       5.992  12.065  -0.760  0.00  0.00    +0.012 A 
ATOM     11  C   UNL     1       7.184  12.758  -0.877  0.00  0.00    +0.001 A 
ATOM     12  C   UNL     1       8.389  12.079  -0.903  0.00  0.00    +0.001 A 
ATOM     13  C   UNL     1       8.418  10.698  -0.812  0.00  0.00    +0.012 A 
ATOM     14  C   UNL     1       7.227   9.986  -0.694  0.00  0.00    +0.033 A 
ATOM     15  C   UNL     1       7.248   8.512  -0.596  0.00  0.00    +0.195 C 
ATOM     16  O   UNL     1       8.307   7.916  -0.618  0.00  0.00    -0.287 OA
ENDROOT
BRANCH   1  18
ATOM     17  N   UNL     1       2.349   4.252  -0.010  0.00  0.00    -0.281 N 
ATOM     18  C   UNL     1       2.324   5.596  -0.105  0.00  0.00    +0.250 C 
ATOM     19  O   UNL     1       1.262   6.187  -0.087  0.00  0.00    -0.270 OA
ATOM     20  H   UNL     1       3.198   3.786   0.053  0.00  0.00    +0.155 HD
BRANCH  17  25
ATOM     21  C   UNL     1      -1.127   3.258  -0.720  0.00  0.00    +0.026 A 
ATOM     22  C   UNL     1      -1.217   2.083   0.028  0.00  0.00    +0.017 A 
ATOM     23  C   UNL     1      -0.128   1.640   0.751  0.00  0.00    +0.003 A 
ATOM     24  C   UNL     1       1.053   2.358   0.739  0.00  0.00    +0.023 A 
ATOM     25  C   UNL     1       1.152   3.529  -0.002  0.00  0.00    +0.035 A 
ATOM     26  C   UNL     1       0.066   3.979  -0.737  0.00  0.00    +0.040 A 
BRANCH  21  28
ATOM     27  C   UNL     1      -3.180   4.097  -2.088  0.00  0.00    +0.009 C 
ATOM     28  C   UNL     1      -2.256   3.719  -1.472  0.00  0.00    -0.070 C 
ENDBRANCH  21  28
ENDBRANCH  17  25
ENDBRANCH   1  18
BRANCH   6  29
ATOM     29  N   UNL     1       2.269   8.466  -0.308  0.00  0.00    +0.058 N 
ATOM     30  O   UNL     1       1.801   8.835   0.744  0.00  0.00    -0.126 OA
ATOM     31  O   UNL     1       1.681   8.685  -1.341  0.00  0.00    -0.126 OA
ENDBRANCH   6  29
TORSDOF 4
