REMARK  Name = ZINC51570555
REMARK  4 active torsions:
REMARK  status: ('A' for Active; 'I' for Inactive)
REMARK    1  A    between atoms: C_3  and  O_8
REMARK    2  A    between atoms: O_8  and  C_9
REMARK    3  A    between atoms: C_12  and  C_15
REMARK    4  A    between atoms: C_15  and  N_16
REMARK                            x       y       z     vdW  Elec       q    Type
REMARK                         _______ _______ _______ _____ _____    ______ ____
ROOT
ATOM      1  C   UNL     1       4.707   1.404   0.069  0.00  0.00    +0.240 A 
ATOM      2  C   UNL     1       5.923   2.074   0.175  0.00  0.00    +0.071 A 
ATOM      3  C   UNL     1       7.078   1.313   0.265  0.00  0.00    +0.028 A 
ATOM      4  C   UNL     1       6.952  -0.069   0.242  0.00  0.00    +0.046 A 
ATOM      5  N   UNL     1       5.759  -0.620   0.138  0.00  0.00    -0.153 NA
ATOM      6  N   UNL     1       4.686   0.080   0.060  0.00  0.00    -0.111 NA
ENDROOT
BRANCH   1   7
ATOM      7  O   UNL     1       3.548   2.104  -0.021  0.00  0.00    -0.437 OA
BRANCH   7  10
ATOM      8  C   UNL     1       0.694   0.192   1.177  0.00  0.00    +0.005 A 
ATOM      9  C   UNL     1       1.882   0.898   1.174  0.00  0.00    +0.046 A 
ATOM     10  C   UNL     1       2.381   1.409  -0.016  0.00  0.00    +0.131 A 
ATOM     11  C   UNL     1       1.685   1.211  -1.200  0.00  0.00    +0.060 A 
ATOM     12  C   UNL     1       0.497   0.504  -1.192  0.00  0.00    +0.017 A 
ATOM     13  C   UNL     1       0.002  -0.005  -0.004  0.00  0.00    +0.014 A 
ATOM     14  I   UNL     1      -0.554   0.204  -2.978  0.00  0.00    -0.044 I 
ENDBRANCH   7  10
ENDBRANCH   1   7
BRANCH   4  15
ATOM     15  C   UNL     1       8.178  -0.940   0.336  0.00  0.00    -0.028 C 
BRANCH  15  16
ATOM     16  N   UNL     1       8.394  -1.333   1.735  0.00  0.00    +0.382 N 
ATOM     17  H   UNL     1       9.215  -1.916   1.798  0.00  0.00    -0.090 HD
ATOM     18  H   UNL     1       8.524  -0.507   2.300  0.00  0.00    -0.090 HD
ATOM     19  H   UNL     1       7.591  -1.846   2.067  0.00  0.00    -0.090 HD
ENDBRANCH  15  16
ENDBRANCH   4  15
TORSDOF 4
