REMARK  Name = ZINC54929327
REMARK  8 active torsions:
REMARK  status: ('A' for Active; 'I' for Inactive)
REMARK    1  A    between atoms: C_1  and  C_2
REMARK    2  A    between atoms: C_2  and  C_3
REMARK    3  A    between atoms: C_2  and  C_4
REMARK    4  A    between atoms: C_4  and  C_5
REMARK    5  A    between atoms: C_5  and  C_7
REMARK    6  A    between atoms: C_5  and  N_21
REMARK    7  A    between atoms: C_7  and  C_9
REMARK    8  A    between atoms: C_7  and  O_20
REMARK                            x       y       z     vdW  Elec       q    Type
REMARK                         _______ _______ _______ _____ _____    ______ ____
ROOT
ATOM      1  C   UNL     1       3.064  -0.908  -2.216  0.00  0.00    +0.130 C 
ENDROOT
BRANCH   1   2
ATOM      2  C   UNL     1       4.521  -0.597  -1.989  0.00  0.00    -0.016 A 
ATOM      3  C   UNL     1       5.096   0.500  -2.603  0.00  0.00    +0.055 A 
ATOM      4  C   UNL     1       6.437   0.789  -2.397  0.00  0.00    +0.164 A 
ATOM      5  C   UNL     1       7.200  -0.026  -1.569  0.00  0.00    +0.176 A 
ATOM      6  C   UNL     1       6.618  -1.126  -0.956  0.00  0.00    +0.063 A 
ATOM      7  C   UNL     1       5.279  -1.406  -1.163  0.00  0.00    +0.025 A 
ATOM      8 BR   UNL     1       7.653  -2.240   0.168  0.00  0.00    -0.046 Br
ATOM      9  O   UNL     1       8.516   0.244  -1.346  0.00  0.00    -0.484 OA
ATOM     10  C   UNL     1       9.155   1.135  -2.268  0.00  0.00    +0.270 C 
ATOM     11  C   UNL     1       8.234   2.343  -2.485  0.00  0.00    +0.270 C 
ATOM     12  O   UNL     1       6.989   1.870  -3.012  0.00  0.00    -0.485 OA
ENDBRANCH   1   2
BRANCH   1  13
ATOM     13  O   UNL     1       2.876  -2.325  -2.227  0.00  0.00    -0.389 OA
ATOM     14  H   UNL     1       3.137  -2.763  -1.406  0.00  0.00    +0.210 HD
ENDBRANCH   1  13
BRANCH   1  15
ATOM     15  C   UNL     1       2.230  -0.292  -1.091  0.00  0.00    -0.041 C 
BRANCH  15  16
ATOM     16  N   UNL     1       2.424   1.164  -1.079  0.00  0.00    +0.382 N 
ATOM     17  H   UNL     1       2.133   1.550  -1.965  0.00  0.00    -0.090 HD
ATOM     18  H   UNL     1       1.874   1.571  -0.338  0.00  0.00    -0.090 HD
ATOM     19  H   UNL     1       3.400   1.373  -0.926  0.00  0.00    -0.090 HD
ENDBRANCH  15  16
BRANCH  15  20
ATOM     20  C   UNL     1       0.751  -0.608  -1.321  0.00  0.00    -0.011 C 
BRANCH  20  22
ATOM     21  C   UNL     1      -1.559  -0.297  -0.420  0.00  0.00    +0.007 C 
ATOM     22  C   UNL     1      -0.069  -0.104  -0.131  0.00  0.00    -0.019 C 
ATOM     23  C   UNL     1       0.314  -0.894   1.123  0.00  0.00    +0.007 C 
ENDBRANCH  20  22
ENDBRANCH  15  20
ENDBRANCH   1  15
TORSDOF 6
