REMARK  Name = ZINC20849189
REMARK  6 active torsions:
REMARK  status: ('A' for Active; 'I' for Inactive)
REMARK    1  A    between atoms: C_1  and  O_2
REMARK    2  A    between atoms: O_2  and  C_3
REMARK    3  A    between atoms: N_11  and  N_12
REMARK    4  A    between atoms: N_12  and  C_13
REMARK    5  A    between atoms: C_19  and  C_21
REMARK    6  A    between atoms: C_21  and  N_23
REMARK                            x       y       z     vdW  Elec       q    Type
REMARK                         _______ _______ _______ _____ _____    ______ ____
ROOT
ATOM      1  C   UNL     1      -0.059   3.863   0.022  0.00  0.00    +0.163 A 
ATOM      2  C   UNL     1      -1.240   3.137   0.031  0.00  0.00    +0.049 A 
ATOM      3  C   UNL     1      -1.214   1.751   0.017  0.00  0.00    +0.004 A 
ATOM      4  C   UNL     1      -0.013   1.076   0.008  0.00  0.00    +0.012 A 
ATOM      5  C   UNL     1       1.188   1.794   0.000  0.00  0.00    +0.022 A 
ATOM      6  C   UNL     1       1.161   3.199   0.005  0.00  0.00    +0.179 A 
ATOM      7  O   UNL     1       2.327   3.896  -0.010  0.00  0.00    -0.434 OA
ATOM      8  C   UNL     1       3.419   3.281   0.530  0.00  0.00    +0.221 A 
ATOM      9  N   UNL     1       4.270   3.943   1.264  0.00  0.00    -0.276 N 
ATOM     10  C   UNL     1       3.606   1.837   0.257  0.00  0.00    +0.065 A 
ATOM     11  C   UNL     1       2.479   1.096  -0.009  0.00  0.00    +0.027 A 
ATOM     12  H   UNL     1       5.144   3.429   1.690  0.00  0.00    +0.187 HD
ENDROOT
BRANCH   1  14
ATOM     13  C   UNL     1      -1.385   5.837   0.047  0.00  0.00    +0.277 C 
ATOM     14  O   UNL     1      -0.095   5.222   0.030  0.00  0.00    -0.491 OA
ENDBRANCH   1  14
BRANCH   9  15
ATOM     15  N   UNL     1       4.072   5.308   1.508  0.00  0.00    -0.258 N 
ATOM     16  H   UNL     1       3.197   5.822   1.081  0.00  0.00    +0.172 HD
BRANCH  15  17
ATOM     17  C   UNL     1       4.981   6.015   2.291  0.00  0.00    +0.046 A 
ATOM     18  C   UNL     1       6.084   5.367   2.836  0.00  0.00    +0.024 A 
ATOM     19  C   UNL     1       6.986   6.072   3.608  0.00  0.00    +0.002 A 
ATOM     20  C   UNL     1       6.787   7.420   3.848  0.00  0.00    +0.000 A 
ATOM     21  C   UNL     1       5.689   8.067   3.312  0.00  0.00    +0.002 A 
ATOM     22  C   UNL     1       4.786   7.370   2.535  0.00  0.00    +0.024 A 
ENDBRANCH  15  17
ENDBRANCH   9  15
BRANCH  10  23
ATOM     23  C   UNL     1       4.942   1.222   0.269  0.00  0.00    +0.082 C 
ATOM     24  S   UNL     1       5.117  -0.450  -0.052  0.00  0.00    -0.035 S 
BRANCH  23  25
ATOM     25  N   UNL     1       6.028   1.975   0.533  0.00  0.00    -0.352 N 
ATOM     26  H   UNL     1       7.027   1.515   0.543  0.00  0.00    +0.143 HD
ATOM     27  H   UNL     1       5.915   3.050   0.740  0.00  0.00    +0.143 HD
ENDBRANCH  23  25
ENDBRANCH  10  23
TORSDOF 5
