REMARK  Name = ZINC67463169
REMARK  7 active torsions:
REMARK  status: ('A' for Active; 'I' for Inactive)
REMARK    1  A    between atoms: C_3  and  C_9
REMARK    2  A    between atoms: C_6  and  C_7
REMARK    3  A    between atoms: N_11  and  N_12
REMARK    4  A    between atoms: N_15  and  C_16
REMARK    5  A    between atoms: C_16  and  C_17
REMARK    6  A    between atoms: N_22  and  C_23
REMARK    7  A    between atoms: C_23  and  C_24
REMARK                            x       y       z     vdW  Elec       q    Type
REMARK                         _______ _______ _______ _____ _____    ______ ____
ROOT
ATOM      1  N   UNL     1       6.035   2.232  -0.044  0.00  0.00    -0.218 N 
ATOM      2  C   UNL     1       7.212   1.574  -0.058  0.00  0.00    +0.316 C 
ATOM      3  O   UNL     1       8.256   2.196  -0.065  0.00  0.00    -0.251 OA
ATOM      4  N   UNL     1       7.230   0.227  -0.066  0.00  0.00    -0.300 N 
ATOM      5  H   UNL     1       6.022   3.202  -0.038  0.00  0.00    +0.174 HD
ATOM      6  H   UNL     1       6.397  -0.270  -0.060  0.00  0.00    +0.150 HD
ENDROOT
BRANCH   1   9
ATOM      7  C   UNL     1       3.656   2.173  -0.021  0.00  0.00    +0.260 C 
ATOM      8  O   UNL     1       3.639   3.388  -0.015  0.00  0.00    -0.269 OA
ATOM      9  N   UNL     1       4.832   1.515  -0.036  0.00  0.00    -0.229 N 
ATOM     10  H   UNL     1       4.845   0.545  -0.041  0.00  0.00    +0.173 HD
BRANCH   7  13
ATOM     11  C   UNL     1      -0.017   1.393   0.010  0.00  0.00    +0.019 A 
ATOM     12  C   UNL     1       1.167   2.097   0.002  0.00  0.00    +0.014 A 
ATOM     13  C   UNL     1       2.385   1.416  -0.013  0.00  0.00    +0.038 A 
ATOM     14  C   UNL     1       2.404   0.019  -0.021  0.00  0.00    +0.014 A 
ATOM     15  C   UNL     1       1.221  -0.686  -0.014  0.00  0.00    +0.019 A 
ATOM     16  C   UNL     1       0.002  -0.004   0.002  0.00  0.00    +0.052 A 
BRANCH  16  17
ATOM     17  C   UNL     1      -1.228  -0.737   0.010  0.00  0.00    +0.099 C 
ATOM     18  N   UNL     1      -2.204  -1.318   0.017  0.00  0.00    -0.191 NA
ENDBRANCH  16  17
ENDBRANCH   7  13
ENDBRANCH   1   9
BRANCH   4  19
ATOM     19  C   UNL     1       8.509  -0.488  -0.082  0.00  0.00    +0.090 C 
BRANCH  19  20
ATOM     20  C   UNL     1       8.250  -1.996  -0.087  0.00  0.00    -0.051 C 
ATOM     21  C   UNL     1       9.579  -2.757  -0.274  0.00  0.00    -0.016 C 
ATOM     22  C   UNL     1       9.180  -3.937  -1.199  0.00  0.00    -0.020 C 
ATOM     23  C   UNL     1       8.119  -3.274  -2.112  0.00  0.00    -0.078 C 
ATOM     24  N   UNL     1       7.377  -2.351  -1.221  0.00  0.00    +0.383 N 
ATOM     25  H   UNL     1       7.125  -1.517  -1.730  0.00  0.00    -0.081 HD
BRANCH  24  26
ATOM     26  C   UNL     1       6.162  -3.010  -0.723  0.00  0.00    -0.075 C 
BRANCH  26  27
ATOM     27  C   UNL     1       5.204  -3.264  -1.889  0.00  0.00    -0.028 C 
ATOM     28  C   UNL     1       4.733  -1.926  -2.462  0.00  0.00    +0.002 C 
ATOM     29  C   UNL     1       3.775  -2.180  -3.628  0.00  0.00    +0.000 C 
ATOM     30  C   UNL     1       2.567  -2.977  -3.131  0.00  0.00    +0.000 C 
ATOM     31  C   UNL     1       3.038  -4.314  -2.558  0.00  0.00    +0.000 C 
ATOM     32  C   UNL     1       3.996  -4.061  -1.392  0.00  0.00    +0.002 C 
ENDBRANCH  26  27
ENDBRANCH  24  26
ENDBRANCH  19  20
ENDBRANCH   4  19
TORSDOF 7
