REMARK  Name = ZINC52004217
REMARK  4 active torsions:
REMARK  status: ('A' for Active; 'I' for Inactive)
REMARK    1  A    between atoms: C_6  and  S_7
REMARK    2  A    between atoms: S_7  and  N_10
REMARK    3  A    between atoms: N_10  and  C_11
REMARK    4  A    between atoms: C_17  and  O_19
REMARK                            x       y       z     vdW  Elec       q    Type
REMARK                         _______ _______ _______ _____ _____    ______ ____
ROOT
ATOM      1  S   UNL     1      -1.510  -0.909   0.009  0.00  0.00    +0.059 S 
ATOM      2  O   UNL     1      -1.215  -2.189   0.550  0.00  0.00    -0.153 OA
ATOM      3  O   UNL     1      -2.494  -0.051   0.572  0.00  0.00    -0.153 OA
ENDROOT
BRANCH   1   9
ATOM      4  C   UNL     1      -0.017   1.378   0.010  0.00  0.00    +0.029 A 
ATOM      5  C   UNL     1       1.171   2.079   0.002  0.00  0.00    +0.006 A 
ATOM      6  C   UNL     1       2.387   1.408  -0.012  0.00  0.00    -0.044 A 
ATOM      7  C   UNL     1       2.406   0.031  -0.014  0.00  0.00    -0.042 A 
ATOM      8  C   UNL     1       1.209  -0.673  -0.010  0.00  0.00    +0.032 A 
ATOM      9  C   UNL     1       0.002  -0.004   0.002  0.00  0.00    +0.106 A 
ATOM     10  C   UNL     1       3.686  -0.762  -0.012  0.00  0.00    +0.035 C 
ATOM     11  C   UNL     1       4.861   0.113  -0.446  0.00  0.00    +0.005 C 
ATOM     12  C   UNL     1       4.847   1.394   0.396  0.00  0.00    +0.005 C 
ATOM     13  C   UNL     1       3.645   2.236  -0.027  0.00  0.00    +0.035 C 
ENDBRANCH   1   9
BRANCH   1  14
ATOM     14  N   UNL     1      -1.942  -1.152  -1.571  0.00  0.00    -0.184 NA
ATOM     15  H   UNL     1      -2.750  -0.744  -1.921  0.00  0.00    +0.148 HD
BRANCH  14  16
ATOM     16  C   UNL     1      -1.105  -1.982  -2.441  0.00  0.00    +0.105 C 
ATOM     17  C   UNL     1      -1.646  -3.413  -2.454  0.00  0.00    +0.023 C 
ATOM     18  C   UNL     1      -0.771  -4.280  -3.362  0.00  0.00    +0.002 C 
ATOM     19  C   UNL     1      -0.792  -3.714  -4.783  0.00  0.00    +0.003 C 
ATOM     20  C   UNL     1      -0.251  -2.282  -4.769  0.00  0.00    +0.033 C 
ATOM     21  C   UNL     1      -1.126  -1.415  -3.862  0.00  0.00    +0.133 C 
BRANCH  21  22
ATOM     22  O   UNL     1      -2.468  -1.413  -4.354  0.00  0.00    -0.390 OA
ATOM     23  H   UNL     1      -2.557  -1.066  -5.252  0.00  0.00    +0.210 HD
ENDBRANCH  21  22
ENDBRANCH  14  16
ENDBRANCH   1  14
TORSDOF 4
