REMARK  Name = ZINC33414051
REMARK  2 active torsions:
REMARK  status: ('A' for Active; 'I' for Inactive)
REMARK    1  A    between atoms: N_19  and  C_20
REMARK    2  A    between atoms: C_21  and  C_25
REMARK                            x       y       z     vdW  Elec       q    Type
REMARK                         _______ _______ _______ _____ _____    ______ ____
ROOT
ATOM      1  C   UNL     1      -2.382  -0.032   0.328  0.00  0.00    +0.007 A 
ATOM      2  C   UNL     1      -1.161  -0.700   0.194  0.00  0.00    +0.021 A 
ATOM      3  C   UNL     1      -0.006  -0.003   0.005  0.00  0.00    +0.023 A 
ATOM      4  N   UNL     1      -0.023   1.349   0.012  0.00  0.00    -0.308 N 
ATOM      5  C   UNL     1      -1.199   2.019   0.059  0.00  0.00    +0.252 A 
ATOM      6  O   UNL     1      -1.209   3.233  -0.064  0.00  0.00    -0.268 OA
ATOM      7  C   UNL     1      -2.405   1.329   0.250  0.00  0.00    +0.070 A 
ATOM      8  C   UNL     1       1.205   2.154   0.002  0.00  0.00    +0.108 C 
ATOM      9  C   UNL     1       2.335   1.391  -0.691  0.00  0.00    +0.032 C 
ATOM     10  C   UNL     1       2.498   0.031  -0.011  0.00  0.00    +0.014 C 
ATOM     11  C   UNL     1       1.248  -0.803  -0.236  0.00  0.00    +0.058 C 
ATOM     12  C   UNL     1       2.813   0.193   1.470  0.00  0.00    +0.113 C 
ATOM     13  N   UNL     1       1.850   1.108   2.094  0.00  0.00    -0.283 N 
ATOM     14  C   UNL     1       1.611   2.414   1.461  0.00  0.00    +0.134 C 
ATOM     15  C   UNL     1       1.199   0.758   3.222  0.00  0.00    +0.307 C 
ATOM     16  O   UNL     1       0.473   1.560   3.777  0.00  0.00    -0.252 OA
ATOM     17  N   UNL     1       1.352  -0.479   3.733  0.00  0.00    -0.261 N 
ATOM     18  H   UNL     1       2.073  -1.176   3.279  0.00  0.00    +0.157 HD
ENDROOT
BRANCH  17  19
ATOM     19  C   UNL     1       0.604  -0.873   4.829  0.00  0.00    +0.128 A 
ATOM     20  C   UNL     1       0.602  -2.093   5.511  0.00  0.00    +0.204 A 
ATOM     21  N   UNL     1      -0.231  -2.188   6.538  0.00  0.00    -0.132 NA
ATOM     22  N   UNL     1      -0.987  -1.197   6.869  0.00  0.00    -0.108 NA
ATOM     23  S   UNL     1      -0.582   0.015   5.732  0.00  0.00    +0.053 S 
BRANCH  20  24
ATOM     24  C   UNL     1       1.472  -3.205   5.114  0.00  0.00    +0.409 C 
ATOM     25  O   UNL     1       2.223  -3.081   4.166  0.00  0.00    -0.239 OA
ATOM     26  O   UNL     1       1.439  -4.366   5.800  0.00  0.00    -0.239 OA
ENDBRANCH  20  24
ENDBRANCH  17  19
TORSDOF 2
