REMARK  Name = ZINC42174313
REMARK  9 active torsions:
REMARK  status: ('A' for Active; 'I' for Inactive)
REMARK    1  A    between atoms: C_1  and  C_2
REMARK    2  A    between atoms: C_5  and  S_8
REMARK    3  A    between atoms: S_8  and  C_9
REMARK    4  A    between atoms: C_9  and  C_11
REMARK    5  A    between atoms: C_9  and  C_12
REMARK    6  A    between atoms: N_17  and  C_18
REMARK    7  A    between atoms: C_18  and  C_19
REMARK    8  A    between atoms: C_18  and  C_20
REMARK    9  A    between atoms: C_18  and  C_21
REMARK                            x       y       z     vdW  Elec       q    Type
REMARK                         _______ _______ _______ _____ _____    ______ ____
ROOT
ATOM      1  C   UNL     1      -0.026  -6.350   2.110  0.00  0.00    +0.233 C 
ATOM      2  O   UNL     1       0.345  -7.106   1.238  0.00  0.00    -0.274 OA
ATOM      3  N   UNL     1      -0.530  -6.842   3.259  0.00  0.00    -0.239 N 
ATOM      4  C   UNL     1      -0.622  -8.174   3.439  0.00  0.00    +0.306 C 
ATOM      5  O   UNL     1      -0.250  -8.932   2.564  0.00  0.00    -0.252 OA
ATOM      6  N   UNL     1      -1.126  -8.666   4.588  0.00  0.00    -0.294 N 
ATOM      7  H   UNL     1      -0.827  -6.237   3.957  0.00  0.00    +0.159 HD
ATOM      8  H   UNL     1      -1.423  -8.061   5.286  0.00  0.00    +0.151 HD
ENDROOT
BRANCH   6   9
ATOM      9  C   UNL     1      -1.226 -10.115   4.783  0.00  0.00    +0.028 C 
ATOM     10  C   UNL     1       0.168 -10.739   4.694  0.00  0.00    +0.031 C 
ATOM     11  C   UNL     1      -1.827 -10.403   6.160  0.00  0.00    +0.031 C 
ATOM     12  C   UNL     1      -2.123 -10.715   3.699  0.00  0.00    +0.031 C 
ENDBRANCH   6   9
BRANCH   1  13
ATOM     13  C   UNL     1       0.077  -4.859   1.909  0.00  0.00    +0.136 C 
ATOM     14  C   UNL     1       1.380  -4.350   2.528  0.00  0.00    +0.029 C 
BRANCH  13  15
ATOM     15  S   UNL     1       0.063  -4.486   0.134  0.00  0.00    -0.093 S 
BRANCH  15  20
ATOM     16  C   UNL     1      -0.018   1.503   0.010  0.00  0.00    +0.045 C 
ATOM     17  C   UNL     1       0.002  -0.004   0.002  0.00  0.00    -0.032 A 
ATOM     18  C   UNL     1       0.006  -0.699  -1.201  0.00  0.00    +0.007 A 
ATOM     19  C   UNL     1       0.025  -2.081  -1.165  0.00  0.00    +0.035 A 
ATOM     20  C   UNL     1       0.039  -2.726   0.069  0.00  0.00    +0.098 A 
ATOM     21  N   UNL     1       0.035  -2.027   1.194  0.00  0.00    -0.248 NA
ATOM     22  C   UNL     1       0.023  -0.707   1.190  0.00  0.00    +0.115 A 
ENDBRANCH  15  20
ENDBRANCH  13  15
ENDBRANCH   1  13
TORSDOF 4
