REMARK  Name = ZINC43509533
REMARK  8 active torsions:
REMARK  status: ('A' for Active; 'I' for Inactive)
REMARK    1  A    between atoms: C_4  and  O_9
REMARK    2  A    between atoms: C_5  and  C_7
REMARK    3  A    between atoms: O_9  and  C_10
REMARK    4  A    between atoms: C_12  and  O_25
REMARK    5  A    between atoms: C_14  and  O_24
REMARK    6  A    between atoms: C_16  and  O_23
REMARK    7  A    between atoms: C_18  and  C_21
REMARK    8  A    between atoms: C_21  and  O_22
REMARK                            x       y       z     vdW  Elec       q    Type
REMARK                         _______ _______ _______ _____ _____    ______ ____
ROOT
ATOM      1  C   UNL     1       4.794   0.209  -0.043  0.00  0.00    +0.339 C 
ATOM      2  C   UNL     1       6.031  -0.688   0.065  0.00  0.00    +0.214 C 
ATOM      3  C   UNL     1       6.092  -1.609  -1.157  0.00  0.00    +0.180 C 
ATOM      4  C   UNL     1       6.104  -0.753  -2.428  0.00  0.00    +0.177 C 
ATOM      5  C   UNL     1       4.864   0.145  -2.440  0.00  0.00    +0.179 C 
ATOM      6  O   UNL     1       4.852   0.954  -1.261  0.00  0.00    -0.331 OA
ENDROOT
BRANCH   4   7
ATOM      7  O   UNL     1       6.090  -1.604  -3.576  0.00  0.00    -0.386 OA
ATOM      8  H   UNL     1       6.846  -2.204  -3.630  0.00  0.00    +0.210 HD
ENDBRANCH   4   7
BRANCH   3   9
ATOM      9  O   UNL     1       4.950  -2.467  -1.167  0.00  0.00    -0.386 OA
ATOM     10  H   UNL     1       4.877  -3.034  -0.387  0.00  0.00    +0.210 HD
ENDBRANCH   3   9
BRANCH   2  11
ATOM     11  O   UNL     1       7.206   0.124   0.113  0.00  0.00    -0.383 OA
ATOM     12  H   UNL     1       7.231   0.736   0.861  0.00  0.00    +0.210 HD
ENDBRANCH   2  11
BRANCH   1  13
ATOM     13  O   UNL     1       3.617  -0.601  -0.036  0.00  0.00    -0.460 OA
BRANCH  13  17
ATOM     14  C   UNL     1      -0.017   1.373   0.010  0.00  0.00    +0.001 A 
ATOM     15  C   UNL     1       1.170   2.089   0.002  0.00  0.00    +0.004 A 
ATOM     16  C   UNL     1       2.384   1.432  -0.013  0.00  0.00    +0.046 A 
ATOM     17  C   UNL     1       2.425   0.046  -0.021  0.00  0.00    +0.134 A 
ATOM     18  C   UNL     1       1.225  -0.685  -0.013  0.00  0.00    +0.056 A 
ATOM     19  C   UNL     1       0.002  -0.004   0.002  0.00  0.00    +0.015 A 
BRANCH  18  20
ATOM     20  C   UNL     1       1.254  -2.153  -0.022  0.00  0.00    +0.262 C 
ATOM     21  O   UNL     1       0.216  -2.780  -0.015  0.00  0.00    -0.296 OA
ENDBRANCH  18  20
ENDBRANCH  13  17
ENDBRANCH   1  13
BRANCH   5  22
ATOM     22  C   UNL     1       4.899   1.046  -3.676  0.00  0.00    +0.190 C 
BRANCH  22  23
ATOM     23  O   UNL     1       3.688   1.801  -3.750  0.00  0.00    -0.392 OA
ATOM     24  H   UNL     1       3.641   2.395  -4.511  0.00  0.00    +0.210 HD
ENDBRANCH  22  23
ENDBRANCH   5  22
TORSDOF 8
