REMARK  Name = ZINC46338822
REMARK  8 active torsions:
REMARK  status: ('A' for Active; 'I' for Inactive)
REMARK    1  A    between atoms: C_1  and  C_2
REMARK    2  A    between atoms: N_8  and  C_9
REMARK    3  A    between atoms: C_9  and  C_11
REMARK    4  A    between atoms: C_9  and  C_12
REMARK    5  A    between atoms: C_12  and  N_13
REMARK    6  A    between atoms: N_16  and  N_17
REMARK    7  A    between atoms: N_17  and  C_18
REMARK    8  A    between atoms: C_18  and  C_25
REMARK                            x       y       z     vdW  Elec       q    Type
REMARK                         _______ _______ _______ _____ _____    ______ ____
ROOT
ATOM      1  N   UNL     1      -0.796   1.938   0.776  0.00  0.00    -0.300 N 
ATOM      2  C   UNL     1      -1.062   3.211   0.423  0.00  0.00    +0.313 C 
ATOM      3  O   UNL     1      -0.608   4.130   1.077  0.00  0.00    -0.252 OA
ATOM      4  N   UNL     1      -1.831   3.465  -0.654  0.00  0.00    -0.234 N 
ATOM      5  H   UNL     1      -1.097   1.206   0.215  0.00  0.00    +0.150 HD
ATOM      6  H   UNL     1      -1.962   4.379  -0.951  0.00  0.00    +0.171 HD
ENDROOT
BRANCH   4   7
ATOM      7  N   UNL     1      -2.425   2.436  -1.327  0.00  0.00    -0.232 NA
ATOM      8  H   UNL     1      -1.751   1.724  -1.568  0.00  0.00    +0.145 HD
BRANCH   7   9
ATOM      9  C   UNL     1      -3.125   2.923  -2.523  0.00  0.00    +0.054 C 
ATOM     10  C   UNL     1      -4.129   3.995  -2.100  0.00  0.00    +0.047 C 
ATOM     11  C   UNL     1      -5.325   4.034  -3.092  0.00  0.00    +0.168 C 
ATOM     12  S   UNL     1      -5.539   2.224  -3.388  0.00  0.00    -0.029 S 
ATOM     13  O   UNL     1      -6.277   1.659  -2.314  0.00  0.00    -0.174 OA
ATOM     14  O   UNL     1      -5.973   2.018  -4.725  0.00  0.00    -0.174 OA
ATOM     15  C   UNL     1      -3.773   1.723  -3.240  0.00  0.00    +0.189 C 
ATOM     16  C   UNL     1      -2.100   3.561  -3.463  0.00  0.00    +0.031 C 
ENDBRANCH   7   9
ENDBRANCH   4   7
BRANCH   1  17
ATOM     17  C   UNL     1      -0.053   1.659   2.007  0.00  0.00    +0.090 C 
BRANCH  17  18
ATOM     18  C   UNL     1       0.009   0.147   2.234  0.00  0.00    -0.054 C 
ATOM     19  C   UNL     1       0.866  -0.149   3.467  0.00  0.00    -0.012 C 
BRANCH  18  26
ATOM     20  C   UNL     1      -0.864  -2.413   1.480  0.00  0.00    -0.013 C 
ATOM     21  C   UNL     1       0.576  -1.958   1.236  0.00  0.00    -0.071 C 
ATOM     22  C   UNL     1       1.119  -2.639  -0.022  0.00  0.00    -0.016 C 
ATOM     23  C   UNL     1       2.561  -2.181  -0.262  0.00  0.00    -0.003 C 
ATOM     24  C   UNL     1       2.589  -0.653  -0.371  0.00  0.00    -0.019 C 
ATOM     25  C   UNL     1       1.990  -0.045   0.899  0.00  0.00    -0.078 C 
ATOM     26  N   UNL     1       0.604  -0.501   1.057  0.00  0.00    +0.384 N 
ATOM     27  H   UNL     1       0.073  -0.253   0.236  0.00  0.00    -0.081 HD
ENDBRANCH  18  26
ENDBRANCH  17  18
ENDBRANCH   1  17
TORSDOF 5
