REMARK  Name = ZINC39694102
REMARK  8 active torsions:
REMARK  status: ('A' for Active; 'I' for Inactive)
REMARK    1  A    between atoms: C_1  and  C_2
REMARK    2  A    between atoms: C_2  and  C_4
REMARK    3  A    between atoms: C_2  and  O_32
REMARK    4  A    between atoms: C_8  and  C_17
REMARK    5  A    between atoms: N_19  and  C_20
REMARK    6  A    between atoms: C_20  and  C_21
REMARK    7  A    between atoms: C_25  and  N_27
REMARK    8  A    between atoms: O_32  and  C_33
REMARK                            x       y       z     vdW  Elec       q    Type
REMARK                         _______ _______ _______ _____ _____    ______ ____
ROOT
ATOM      1  C   UNL     1      -1.297  -0.675   0.062  0.00  0.00    +0.256 C 
ATOM      2  O   UNL     1      -1.593  -1.108  -1.032  0.00  0.00    -0.272 OA
ATOM      3  N   UNL     1      -2.224  -0.624   1.040  0.00  0.00    -0.297 N 
ATOM      4  C   UNL     1      -2.035  -0.205   2.449  0.00  0.00    +0.121 C 
ATOM      5  C   UNL     1      -3.308   0.601   2.790  0.00  0.00    +0.100 C 
ATOM      6  C   UNL     1      -4.372   0.091   1.803  0.00  0.00    -0.004 C 
ATOM      7  C   UNL     1      -3.663  -0.968   0.946  0.00  0.00    +0.115 C 
ATOM      8  C   UNL     1      -4.864   1.233   0.920  0.00  0.00    -0.010 C 
ATOM      9  C   UNL     1      -5.961   0.714  -0.014  0.00  0.00    -0.082 C 
ATOM     10  N   UNL     1      -7.069   0.173   0.784  0.00  0.00    +0.379 N 
ATOM     11  C   UNL     1      -6.609  -0.984   1.561  0.00  0.00    -0.082 C 
ATOM     12  C   UNL     1      -5.538  -0.536   2.561  0.00  0.00    -0.010 C 
ATOM     13  H   UNL     1      -7.408   0.886   1.412  0.00  0.00    -0.086 HD
ATOM     14  H   UNL     1      -7.816  -0.112   0.169  0.00  0.00    -0.086 HD
ENDROOT
BRANCH   5  15
ATOM     15  C   UNL     1      -3.066   2.074   2.589  0.00  0.00    +0.218 C 
ATOM     16  O   UNL     1      -2.400   2.457   1.650  0.00  0.00    -0.275 OA
ATOM     17  N   UNL     1      -3.590   2.967   3.452  0.00  0.00    -0.311 N 
ATOM     18  H   UNL     1      -4.123   2.662   4.202  0.00  0.00    +0.149 HD
BRANCH  17  19
ATOM     19  C   UNL     1      -3.354   4.400   3.256  0.00  0.00    +0.139 C 
BRANCH  19  20
ATOM     20  C   UNL     1      -4.043   5.176   4.349  0.00  0.00    -0.028 A 
ATOM     21  C   UNL     1      -5.349   5.598   4.179  0.00  0.00    +0.005 A 
ATOM     22  C   UNL     1      -5.984   6.310   5.179  0.00  0.00    +0.002 A 
ATOM     23  C   UNL     1      -5.316   6.603   6.352  0.00  0.00    +0.026 A 
ATOM     24  C   UNL     1      -4.005   6.181   6.525  0.00  0.00    +0.046 A 
ATOM     25  C   UNL     1      -3.371   5.461   5.521  0.00  0.00    +0.031 A 
BRANCH  24  26
ATOM     26  N   UNL     1      -3.323   6.477   7.714  0.00  0.00    -0.323 N 
ATOM     27  C   UNL     1      -2.035   6.125   8.003  0.00  0.00    +0.091 A 
ATOM     28  C   UNL     1      -1.738   6.587   9.235  0.00  0.00    +0.019 A 
ATOM     29  C   UNL     1      -2.882   7.248   9.726  0.00  0.00    +0.019 A 
ATOM     30  C   UNL     1      -3.834   7.170   8.774  0.00  0.00    +0.091 A 
ENDBRANCH  24  26
ENDBRANCH  19  20
ENDBRANCH  17  19
ENDBRANCH   5  15
BRANCH   1  32
ATOM     31  C   UNL     1       0.101   1.327   0.493  0.00  0.00    +0.062 C 
ATOM     32  C   UNL     1       0.106  -0.194   0.328  0.00  0.00    +0.256 C 
BRANCH  32  33
ATOM     33  O   UNL     1       0.948  -0.551  -0.770  0.00  0.00    -0.480 OA
BRANCH  33  34
ATOM     34  C   UNL     1       2.276  -0.684  -0.511  0.00  0.00    +0.122 A 
ATOM     35  C   UNL     1       2.774  -0.371   0.745  0.00  0.00    +0.045 A 
ATOM     36  C   UNL     1       4.123  -0.508   1.006  0.00  0.00    +0.004 A 
ATOM     37  C   UNL     1       4.978  -0.957   0.015  0.00  0.00    +0.000 A 
ATOM     38  C   UNL     1       4.484  -1.269  -1.238  0.00  0.00    +0.004 A 
ATOM     39  C   UNL     1       3.134  -1.140  -1.502  0.00  0.00    +0.045 A 
ENDBRANCH  33  34
ENDBRANCH  32  33
ENDBRANCH   1  32
TORSDOF 7
