REMARK  Name = ZINC09822709
REMARK  5 active torsions:
REMARK  status: ('A' for Active; 'I' for Inactive)
REMARK    1  A    between atoms: C_1  and  C_2
REMARK    2  A    between atoms: C_5  and  S_9
REMARK    3  A    between atoms: C_6  and  C_8
REMARK    4  A    between atoms: S_9  and  N_12
REMARK    5  A    between atoms: C_20  and  C_22
REMARK                            x       y       z     vdW  Elec       q    Type
REMARK                         _______ _______ _______ _____ _____    ______ ____
ROOT
ATOM      1  N   UNL     1       1.427   1.636  -0.188  0.00  0.00    -0.191 N 
ATOM      2  C   UNL     1       1.798   2.130  -1.440  0.00  0.00    +0.055 A 
ATOM      3  C   UNL     1       3.064   2.482  -1.913  0.00  0.00    +0.025 A 
ATOM      4  C   UNL     1       3.219   2.954  -3.199  0.00  0.00    +0.002 A 
ATOM      5  C   UNL     1       2.121   3.084  -4.030  0.00  0.00    +0.000 A 
ATOM      6  C   UNL     1       0.865   2.737  -3.569  0.00  0.00    +0.005 A 
ATOM      7  C   UNL     1       0.704   2.263  -2.281  0.00  0.00    -0.022 A 
ATOM      8  C   UNL     1      -0.534   1.818  -1.535  0.00  0.00    +0.070 C 
ATOM      9  C   UNL     1      -0.020   1.407  -0.146  0.00  0.00    +0.187 C 
ENDROOT
BRANCH   9  10
ATOM     10  C   UNL     1      -0.653   2.261   0.922  0.00  0.00    +0.233 C 
ATOM     11  O   UNL     1       0.037   2.982   1.611  0.00  0.00    -0.274 OA
ATOM     12  N   UNL     1      -1.987   2.225   1.111  0.00  0.00    -0.328 N 
ATOM     13  H   UNL     1      -2.539   1.648   0.560  0.00  0.00    +0.145 HD
ATOM     14  H   UNL     1      -2.395   2.775   1.798  0.00  0.00    +0.145 HD
ENDBRANCH   9  10
BRANCH   1  15
ATOM     15  S   UNL     1       2.470   1.351   1.066  0.00  0.00    +0.076 S 
ATOM     16  O   UNL     1       3.480   2.348   0.989  0.00  0.00    -0.150 OA
ATOM     17  O   UNL     1       1.670   1.166   2.226  0.00  0.00    -0.150 OA
BRANCH  15  22
ATOM     18  C   UNL     1       5.172  -3.932  -0.025  0.00  0.00    +0.044 C 
ATOM     19  C   UNL     1       4.497  -2.612   0.247  0.00  0.00    -0.050 A 
ATOM     20  C   UNL     1       5.242  -1.448   0.273  0.00  0.00    +0.005 A 
ATOM     21  C   UNL     1       4.622  -0.237   0.518  0.00  0.00    +0.029 A 
ATOM     22  C   UNL     1       3.259  -0.192   0.748  0.00  0.00    +0.112 A 
ATOM     23  C   UNL     1       2.515  -1.356   0.722  0.00  0.00    -0.024 A 
ATOM     24  C   UNL     1       3.134  -2.567   0.471  0.00  0.00    +0.008 A 
ATOM     25  C   UNL     1       1.029  -1.306   0.966  0.00  0.00    +0.046 C 
ENDBRANCH  15  22
ENDBRANCH   1  15
TORSDOF 3
