REMARK  Name = ZINC55187829
REMARK  6 active torsions:
REMARK  status: ('A' for Active; 'I' for Inactive)
REMARK    1  A    between atoms: C_1  and  S_2
REMARK    2  A    between atoms: S_2  and  N_5
REMARK    3  A    between atoms: N_5  and  C_6
REMARK    4  A    between atoms: C_6  and  C_7
REMARK    5  A    between atoms: C_7  and  C_8
REMARK    6  A    between atoms: C_15  and  C_17
REMARK                            x       y       z     vdW  Elec       q    Type
REMARK                         _______ _______ _______ _____ _____    ______ ____
ROOT
ATOM      1  C   UNL     1       4.322  -0.727  -3.032  0.00  0.00    +0.078 C 
ATOM      2  C   UNL     1       4.444  -1.587  -4.295  0.00  0.00    +0.022 C 
ATOM      3  C   UNL     1       5.923  -1.843  -4.591  0.00  0.00    +0.003 C 
ATOM      4  C   UNL     1       6.554  -2.607  -3.424  0.00  0.00    +0.019 C 
ATOM      5  C   UNL     1       6.456  -1.759  -2.152  0.00  0.00    +0.108 C 
ATOM      6  N   UNL     1       5.052  -1.383  -1.938  0.00  0.00    -0.293 N 
ATOM      7  C   UNL     1       4.444  -1.637  -0.763  0.00  0.00    +0.266 C 
ATOM      8  O   UNL     1       3.239  -1.502  -0.659  0.00  0.00    -0.268 OA
ENDROOT
BRANCH   7   9
ATOM      9  C   UNL     1       5.237  -2.078   0.396  0.00  0.00    +0.135 A 
ATOM     10  C   UNL     1       4.616  -2.493   1.547  0.00  0.00    +0.081 A 
ATOM     11  S   UNL     1       6.031  -2.892   2.564  0.00  0.00    -0.060 S 
ATOM     12  C   UNL     1       7.294  -2.472   1.371  0.00  0.00    +0.156 A 
ATOM     13  N   UNL     1       6.571  -2.086   0.340  0.00  0.00    -0.221 NA
ATOM     14  N   UNL     1       8.672  -2.541   1.496  0.00  0.00    -0.338 N 
ATOM     15  H   UNL     1       9.069  -2.853   2.324  0.00  0.00    +0.144 HD
ATOM     16  H   UNL     1       9.239  -2.276   0.755  0.00  0.00    +0.144 HD
ENDBRANCH   7   9
BRANCH   1  17
ATOM     17  C   UNL     1       2.848  -0.583  -2.651  0.00  0.00    +0.039 C 
BRANCH  17  18
ATOM     18  C   UNL     1       2.093   0.114  -3.785  0.00  0.00    +0.107 C 
BRANCH  18  19
ATOM     19  N   UNL     1       0.664   0.160  -3.465  0.00  0.00    -0.195 NA
ATOM     20  H   UNL     1       0.307  -0.399  -2.757  0.00  0.00    +0.148 HD
BRANCH  19  22
ATOM     21  C   UNL     1      -0.324   0.524  -6.009  0.00  0.00    +0.214 C 
ATOM     22  S   UNL     1      -0.342   1.167  -4.312  0.00  0.00    +0.027 S 
ATOM     23  O   UNL     1       0.292   2.438  -4.264  0.00  0.00    -0.158 OA
ATOM     24  O   UNL     1      -1.623   0.973  -3.729  0.00  0.00    -0.158 OA
ENDBRANCH  19  22
ENDBRANCH  18  19
ENDBRANCH  17  18
ENDBRANCH   1  17
TORSDOF 5
