REMARK  Name = ZINC63666745
REMARK  7 active torsions:
REMARK  status: ('A' for Active; 'I' for Inactive)
REMARK    1  A    between atoms: C_1  and  C_2
REMARK    2  A    between atoms: C_8  and  S_28
REMARK    3  A    between atoms: C_12  and  C_14
REMARK    4  A    between atoms: N_16  and  C_17
REMARK    5  A    between atoms: C_17  and  C_18
REMARK    6  A    between atoms: C_18  and  C_19
REMARK    7  A    between atoms: S_28  and  N_31
REMARK                            x       y       z     vdW  Elec       q    Type
REMARK                         _______ _______ _______ _____ _____    ______ ____
ROOT
ATOM      1  C   UNL     1       0.029  -0.764   1.303  0.00  0.00    +0.109 C 
ATOM      2  C   UNL     1       0.002  -0.004   0.002  0.00  0.00    +0.217 C 
ATOM      3  O   UNL     1      -0.109   1.204   0.007  0.00  0.00    -0.276 OA
ATOM      4  N   UNL     1       0.102  -0.666  -1.167  0.00  0.00    -0.259 N 
ATOM      5  C   UNL     1       0.198  -0.062  -2.425  0.00  0.00    +0.040 A 
ATOM      6  C   UNL     1       0.213   1.294  -2.757  0.00  0.00    +0.026 A 
ATOM      7  C   UNL     1       0.316   1.686  -4.074  0.00  0.00    +0.030 A 
ATOM      8  C   UNL     1       0.405   0.739  -5.078  0.00  0.00    +0.106 A 
ATOM      9  C   UNL     1       0.391  -0.606  -4.757  0.00  0.00    +0.034 A 
ATOM     10  C   UNL     1       0.288  -1.004  -3.438  0.00  0.00    -0.022 A 
ATOM     11  C   UNL     1       0.250  -2.383  -2.818  0.00  0.00    +0.069 C 
ATOM     12  C   UNL     1       0.132  -2.125  -1.307  0.00  0.00    +0.171 C 
ENDROOT
BRANCH  12  13
ATOM     13  C   UNL     1      -1.143  -2.727  -0.775  0.00  0.00    +0.234 C 
ATOM     14  O   UNL     1      -2.128  -2.034  -0.633  0.00  0.00    -0.274 OA
ATOM     15  N   UNL     1      -1.189  -4.036  -0.458  0.00  0.00    -0.313 N 
ATOM     16  H   UNL     1      -0.401  -4.591  -0.572  0.00  0.00    +0.149 HD
BRANCH  15  17
ATOM     17  C   UNL     1      -2.428  -4.622   0.059  0.00  0.00    +0.108 C 
BRANCH  17  18
ATOM     18  C   UNL     1      -2.212  -6.110   0.338  0.00  0.00    +0.052 C 
BRANCH  18  19
ATOM     19  C   UNL     1      -3.487  -6.713   0.870  0.00  0.00    -0.040 C 
ATOM     20  C   UNL     1      -4.439  -7.359   0.159  0.00  0.00    -0.001 A 
ATOM     21  C   UNL     1      -4.568  -7.682  -1.267  0.00  0.00    +0.010 A 
ATOM     22  C   UNL     1      -5.662  -8.354  -1.691  0.00  0.00    +0.001 A 
ATOM     23  C   UNL     1      -6.674  -8.750  -0.804  0.00  0.00    +0.002 A 
ATOM     24  C   UNL     1      -6.626  -8.490   0.519  0.00  0.00    +0.026 A 
ATOM     25  C   UNL     1      -5.520  -7.788   1.074  0.00  0.00    +0.043 A 
ATOM     26  N   UNL     1      -5.247  -7.421   2.303  0.00  0.00    -0.380 N 
ATOM     27  C   UNL     1      -3.957  -6.722   2.307  0.00  0.00    +0.144 C 
ATOM     28  H   UNL     1      -5.803  -7.588   3.080  0.00  0.00    +0.160 HD
ENDBRANCH  18  19
ENDBRANCH  17  18
ENDBRANCH  15  17
ENDBRANCH  12  13
BRANCH   8  29
ATOM     29  S   UNL     1       0.535   1.244  -6.761  0.00  0.00    +0.061 S 
ATOM     30  O   UNL     1       0.055   0.163  -7.548  0.00  0.00    -0.153 OA
ATOM     31  O   UNL     1      -0.024   2.549  -6.837  0.00  0.00    -0.153 OA
BRANCH  29  32
ATOM     32  N   UNL     1       2.148   1.399  -7.102  0.00  0.00    -0.172 NA
ATOM     33  C   UNL     1       2.847   2.677  -6.892  0.00  0.00    +0.137 C 
ATOM     34  C   UNL     1       4.115   2.405  -6.075  0.00  0.00    +0.177 C 
ATOM     35  O   UNL     1       4.868   1.365  -6.704  0.00  0.00    -0.377 OA
ATOM     36  C   UNL     1       4.189   0.109  -6.770  0.00  0.00    +0.177 C 
ATOM     37  C   UNL     1       2.926   0.261  -7.618  0.00  0.00    +0.137 C 
ENDBRANCH  29  32
ENDBRANCH   8  29
TORSDOF 6
