REMARK  Name = ZINC45835140
REMARK  5 active torsions:
REMARK  status: ('A' for Active; 'I' for Inactive)
REMARK    1  A    between atoms: C_1  and  C_2
REMARK    2  A    between atoms: C_2  and  C_4
REMARK    3  A    between atoms: C_2  and  N_14
REMARK    4  A    between atoms: C_7  and  N_10
REMARK    5  A    between atoms: C_15  and  C_17
REMARK                            x       y       z     vdW  Elec       q    Type
REMARK                         _______ _______ _______ _____ _____    ______ ____
ROOT
ATOM      1  C   UNL     1       0.169   1.493  -0.121  0.00  0.00    +0.033 C 
ATOM      2  C   UNL     1       0.012  -0.025  -0.012  0.00  0.00    +0.100 C 
ENDROOT
BRANCH   2   3
ATOM      3  C   UNL     1       0.738  -0.518   1.212  0.00  0.00    -0.027 A 
ATOM      4  C   UNL     1       2.110  -0.692   1.178  0.00  0.00    +0.007 A 
ATOM      5  C   UNL     1       2.778  -1.144   2.299  0.00  0.00    +0.023 A 
ATOM      6  C   UNL     1       2.072  -1.425   3.461  0.00  0.00    +0.035 A 
ATOM      7  C   UNL     1       0.694  -1.250   3.492  0.00  0.00    +0.023 A 
ATOM      8  C   UNL     1       0.032  -0.792   2.370  0.00  0.00    +0.007 A 
BRANCH   6   9
ATOM      9  N   UNL     1       2.746  -1.884   4.598  0.00  0.00    -0.270 N 
ATOM     10  C   UNL     1       3.998  -1.458   4.857  0.00  0.00    +0.301 C 
ATOM     11  O   UNL     1       4.506  -0.603   4.157  0.00  0.00    -0.253 OA
ATOM     12  N   UNL     1       4.688  -1.980   5.891  0.00  0.00    -0.313 N 
ATOM     13  H   UNL     1       2.312  -2.509   5.200  0.00  0.00    +0.156 HD
ATOM     14  H   UNL     1       4.282  -2.662   6.449  0.00  0.00    +0.146 HD
ATOM     15  H   UNL     1       5.589  -1.673   6.077  0.00  0.00    +0.146 HD
ENDBRANCH   6   9
ENDBRANCH   2   3
BRANCH   2  16
ATOM     16  N   UNL     1       0.577  -0.661  -1.205  0.00  0.00    -0.306 N 
ATOM     17  C   UNL     1      -0.172  -0.793  -2.317  0.00  0.00    +0.258 C 
ATOM     18  O   UNL     1      -1.314  -0.385  -2.331  0.00  0.00    -0.272 OA
ATOM     19  H   UNL     1       1.490  -0.988  -1.194  0.00  0.00    +0.149 HD
BRANCH  17  20
ATOM     20  C   UNL     1       0.409  -1.448  -3.544  0.00  0.00    +0.296 C 
ATOM     21  C   UNL     1       1.548  -0.584  -4.101  0.00  0.00    +0.283 C 
ATOM     22  O   UNL     1       2.067  -1.226  -5.271  0.00  0.00    -0.484 OA
ATOM     23  C   UNL     1       1.156  -1.683  -6.172  0.00  0.00    +0.162 A 
ATOM     24  C   UNL     1       1.566  -1.978  -7.464  0.00  0.00    +0.049 A 
ATOM     25  C   UNL     1       0.653  -2.447  -8.390  0.00  0.00    +0.004 A 
ATOM     26  C   UNL     1      -0.671  -2.622  -8.031  0.00  0.00    +0.004 A 
ATOM     27  C   UNL     1      -1.086  -2.328  -6.746  0.00  0.00    +0.049 A 
ATOM     28  C   UNL     1      -0.175  -1.857  -5.812  0.00  0.00    +0.163 A 
ATOM     29  O   UNL     1      -0.600  -1.565  -4.553  0.00  0.00    -0.473 OA
ENDBRANCH  17  20
ENDBRANCH   2  16
TORSDOF 4
