REMARK  Name = ZINC39672071
REMARK  5 active torsions:
REMARK  status: ('A' for Active; 'I' for Inactive)
REMARK    1  A    between atoms: C_6  and  C_10
REMARK    2  A    between atoms: C_10  and  N_11
REMARK    3  A    between atoms: C_12  and  C_14
REMARK    4  A    between atoms: C_25  and  C_27
REMARK    5  A    between atoms: C_30  and  C_32
REMARK                            x       y       z     vdW  Elec       q    Type
REMARK                         _______ _______ _______ _____ _____    ______ ____
ROOT
ATOM      1  C   UNL     1       4.615  -5.543   2.959  0.00  0.00    +0.100 C 
ATOM      2  C   UNL     1       3.234  -5.727   3.626  0.00  0.00    +0.121 C 
ATOM      3  N   UNL     1       2.905  -7.157   3.417  0.00  0.00    -0.294 N 
ATOM      4  C   UNL     1       4.193  -7.864   3.615  0.00  0.00    +0.115 C 
ATOM      5  C   UNL     1       5.243  -6.947   2.957  0.00  0.00    -0.004 C 
ATOM      6  C   UNL     1       6.532  -6.951   3.773  0.00  0.00    -0.010 C 
ATOM      7  C   UNL     1       7.168  -8.342   3.708  0.00  0.00    -0.082 C 
ATOM      8  N   UNL     1       7.450  -8.688   2.309  0.00  0.00    +0.379 N 
ATOM      9  C   UNL     1       6.195  -8.774   1.553  0.00  0.00    -0.082 C 
ATOM     10  C   UNL     1       5.518  -7.401   1.527  0.00  0.00    -0.010 C 
ATOM     11  C   UNL     1       1.706  -7.694   3.116  0.00  0.00    +0.282 C 
ATOM     12  O   UNL     1       1.596  -8.898   2.975  0.00  0.00    -0.267 OA
ATOM     13  H   UNL     1       8.040  -7.979   1.901  0.00  0.00    -0.086 HD
ATOM     14  H   UNL     1       7.924  -9.578   2.274  0.00  0.00    -0.086 HD
ENDROOT
BRANCH  11  15
ATOM     15  C   UNL     1       0.535  -6.828   2.958  0.00  0.00    +0.190 A 
ATOM     16  C   UNL     1      -0.744  -7.243   2.658  0.00  0.00    +0.055 A 
ATOM     17  C   UNL     1      -1.540  -6.094   2.603  0.00  0.00    +0.050 A 
ATOM     18  C   UNL     1      -0.726  -5.030   2.869  0.00  0.00    +0.136 A 
ATOM     19  O   UNL     1       0.519  -5.484   3.087  0.00  0.00    -0.450 OA
BRANCH  18  20
ATOM     20  C   UNL     1      -1.147  -3.615   2.916  0.00  0.00    +0.017 A 
ATOM     21  C   UNL     1      -2.481  -3.273   2.681  0.00  0.00    +0.014 A 
ATOM     22  C   UNL     1      -2.868  -1.950   2.726  0.00  0.00    +0.039 A 
ATOM     23  C   UNL     1      -1.937  -0.962   3.004  0.00  0.00    +0.123 A 
ATOM     24  C   UNL     1      -0.612  -1.296   3.237  0.00  0.00    +0.039 A 
ATOM     25  C   UNL     1      -0.214  -2.615   3.200  0.00  0.00    +0.014 A 
ATOM     26  F   UNL     1      -2.322   0.333   3.047  0.00  0.00    -0.205 F 
ENDBRANCH  18  20
ENDBRANCH  11  15
BRANCH   1  28
ATOM     27  N   UNL     1       5.423  -4.289   0.986  0.00  0.00    -0.309 N 
ATOM     28  C   UNL     1       4.454  -5.038   1.549  0.00  0.00    +0.219 C 
ATOM     29  O   UNL     1       3.453  -5.306   0.919  0.00  0.00    -0.275 OA
ATOM     30  H   UNL     1       6.225  -4.075   1.489  0.00  0.00    +0.149 HD
BRANCH  27  31
ATOM     31  C   UNL     1       5.267  -3.799  -0.385  0.00  0.00    +0.161 C 
BRANCH  31  37
ATOM     32  C   UNL     1       9.746   0.000  -1.590  0.00  0.00    +0.005 A 
ATOM     33  C   UNL     1      10.316  -1.137  -2.187  0.00  0.00    +0.018 A 
ATOM     34  C   UNL     1       9.655  -2.314  -2.177  0.00  0.00    +0.092 A 
ATOM     35  N   UNL     1       8.427  -2.417  -1.590  0.00  0.00    -0.306 N 
ATOM     36  C   UNL     1       7.557  -3.462  -1.440  0.00  0.00    +0.117 A 
ATOM     37  C   UNL     1       6.481  -2.993  -0.772  0.00  0.00    +0.077 A 
ATOM     38  N   UNL     1       6.671  -1.698  -0.513  0.00  0.00    -0.231 NA
ATOM     39  C   UNL     1       7.846  -1.325  -1.000  0.00  0.00    +0.138 A 
ATOM     40  C   UNL     1       8.523  -0.089  -1.001  0.00  0.00    +0.047 A 
ENDBRANCH  31  37
ENDBRANCH  27  31
ENDBRANCH   1  28
TORSDOF 5
