REMARK  Name = ZINC05582195
REMARK  10 active torsions:
REMARK  status: ('A' for Active; 'I' for Inactive)
REMARK    1  A    between atoms: C_1  and  C_2
REMARK    2  A    between atoms: C_2  and  O_3
REMARK    3  A    between atoms: O_3  and  C_4
REMARK    4  A    between atoms: C_9  and  N_10
REMARK    5  A    between atoms: C_11  and  C_13
REMARK    6  A    between atoms: C_13  and  C_15
REMARK    7  A    between atoms: C_13  and  S_16
REMARK    8  A    between atoms: S_16  and  C_17
REMARK    9  A    between atoms: C_20  and  C_23
REMARK   10  A    between atoms: N_21  and  N_22
REMARK                            x       y       z     vdW  Elec       q    Type
REMARK                         _______ _______ _______ _____ _____    ______ ____
ROOT
ATOM      1  N   UNL     1      -4.246   3.381   7.291  0.00  0.00    -0.282 N 
ATOM      2  C   UNL     1      -4.364   3.445   5.950  0.00  0.00    +0.230 C 
ATOM      3  O   UNL     1      -5.425   3.753   5.448  0.00  0.00    -0.274 OA
ATOM      4  H   UNL     1      -3.424   3.058   7.691  0.00  0.00    +0.155 HD
ENDROOT
BRANCH   1  10
ATOM      5  C   UNL     1      -5.431   3.274   9.399  0.00  0.00    +0.142 A 
ATOM      6  C   UNL     1      -6.487   3.673  10.202  0.00  0.00    +0.047 A 
ATOM      7  C   UNL     1      -7.419   4.574   9.722  0.00  0.00    +0.004 A 
ATOM      8  C   UNL     1      -7.301   5.079   8.440  0.00  0.00    +0.002 A 
ATOM      9  C   UNL     1      -6.248   4.689   7.634  0.00  0.00    +0.027 A 
ATOM     10  C   UNL     1      -5.312   3.782   8.108  0.00  0.00    +0.076 A 
BRANCH   5  11
ATOM     11  O   UNL     1      -4.513   2.388   9.871  0.00  0.00    -0.490 OA
BRANCH  11  13
ATOM     12  C   UNL     1      -3.577   0.931  11.556  0.00  0.00    +0.048 C 
ATOM     13  C   UNL     1      -4.699   1.909  11.204  0.00  0.00    +0.226 C 
ENDBRANCH  11  13
ENDBRANCH   5  11
ENDBRANCH   1  10
BRANCH   2  14
ATOM     14  C   UNL     1      -3.178   3.134   5.073  0.00  0.00    +0.137 C 
ATOM     15  C   UNL     1      -2.256   4.353   5.012  0.00  0.00    +0.029 C 
BRANCH  14  16
ATOM     16  S   UNL     1      -3.751   2.727   3.405  0.00  0.00    -0.072 S 
BRANCH  16  17
ATOM     17  C   UNL     1      -2.221   2.271   2.659  0.00  0.00    +0.209 A 
ATOM     18  N   UNL     1      -1.042   2.263   3.238  0.00  0.00    -0.121 NA
ATOM     19  N   UNL     1      -0.148   1.877   2.400  0.00  0.00    -0.132 NA
ATOM     20  C   UNL     1      -0.697   1.618   1.247  0.00  0.00    +0.148 A 
ATOM     21  N   UNL     1      -2.036   1.865   1.369  0.00  0.00    -0.228 N 
ATOM     22  C   UNL     1       0.014   1.141   0.006  0.00  0.00    +0.090 C 
BRANCH  21  23
ATOM     23  N   UNL     1      -2.991   1.729   0.402  0.00  0.00    -0.295 N 
ATOM     24  H   UNL     1      -3.385   0.800   0.410  0.00  0.00    +0.163 HD
ATOM     25  H   UNL     1      -3.712   2.428   0.506  0.00  0.00    +0.163 HD
ENDBRANCH  21  23
ENDBRANCH  16  17
ENDBRANCH  14  16
ENDBRANCH   2  14
TORSDOF 7
