REMARK  Name = ZINC39445411
REMARK  8 active torsions:
REMARK  status: ('A' for Active; 'I' for Inactive)
REMARK    1  A    between atoms: C_4  and  C_7
REMARK    2  A    between atoms: C_7  and  C_8
REMARK    3  A    between atoms: C_8  and  C_9
REMARK    4  A    between atoms: N_15  and  C_17
REMARK    5  A    between atoms: C_17  and  C_18
REMARK    6  A    between atoms: C_20  and  C_23
REMARK    7  A    between atoms: C_24  and  C_25
REMARK    8  A    between atoms: C_25  and  O_26
REMARK                            x       y       z     vdW  Elec       q    Type
REMARK                         _______ _______ _______ _____ _____    ______ ____
ROOT
ATOM      1  C   UNL     1       5.507  -1.710   1.381  0.00  0.00    +0.102 C 
ATOM      2  C   UNL     1       6.019  -1.908   2.783  0.00  0.00    -0.019 C 
ATOM      3  C   UNL     1       6.102  -3.213   2.994  0.00  0.00    +0.022 C 
ATOM      4  C   UNL     1       6.585  -3.796   4.306  0.00  0.00    +0.067 C 
ATOM      5  C   UNL     1       7.302  -2.687   5.085  0.00  0.00    +0.091 C 
ATOM      6  N   UNL     1       6.457  -1.485   5.122  0.00  0.00    -0.293 NA
ATOM      7  C   UNL     1       6.381  -0.852   3.794  0.00  0.00    +0.118 C 
ATOM      8  N   UNL     1       5.698  -3.922   1.880  0.00  0.00    -0.284 N 
ATOM      9  N   UNL     1       5.325  -3.083   0.864  0.00  0.00    -0.236 NA
ATOM     10  H   UNL     1       5.681  -4.890   1.824  0.00  0.00    +0.166 HD
ATOM     11  H   UNL     1       5.888  -3.237   0.041  0.00  0.00    +0.145 HD
ENDROOT
BRANCH   1  12
ATOM     12  C   UNL     1       4.171  -0.963   1.399  0.00  0.00    +0.029 C 
BRANCH  12  13
ATOM     13  C   UNL     1       3.711  -0.707  -0.038  0.00  0.00    +0.037 C 
BRANCH  13  17
ATOM     14  C   UNL     1      -0.017   1.378   0.010  0.00  0.00    +0.000 A 
ATOM     15  C   UNL     1       1.171   2.086   0.002  0.00  0.00    +0.000 A 
ATOM     16  C   UNL     1       2.377   1.411  -0.013  0.00  0.00    +0.003 A 
ATOM     17  C   UNL     1       2.396   0.029  -0.020  0.00  0.00    -0.047 A 
ATOM     18  C   UNL     1       1.208  -0.679  -0.012  0.00  0.00    +0.003 A 
ATOM     19  C   UNL     1       0.002  -0.004   0.002  0.00  0.00    +0.000 A 
ENDBRANCH  13  17
ENDBRANCH  12  13
ENDBRANCH   1  12
BRANCH   6  20
ATOM     20  C   UNL     1       6.940  -0.533   6.131  0.00  0.00    +0.127 C 
BRANCH  20  21
ATOM     21  C   UNL     1       6.773  -1.131   7.505  0.00  0.00    +0.005 A 
ATOM     22  C   UNL     1       7.645  -1.881   8.214  0.00  0.00    +0.029 A 
ATOM     23  C   UNL     1       7.276  -2.332   9.480  0.00  0.00    +0.032 A 
ATOM     24  C   UNL     1       6.037  -1.993   9.956  0.00  0.00    +0.062 A 
ATOM     25  S   UNL     1       5.378  -1.022   8.612  0.00  0.00    -0.099 S 
BRANCH  23  26
ATOM     26  C   UNL     1       8.169  -3.129  10.264  0.00  0.00    -0.063 C 
ATOM     27  C   UNL     1       8.902  -3.784  10.907  0.00  0.00    -0.069 C 
BRANCH  27  28
ATOM     28  C   UNL     1       9.821  -4.604  11.713  0.00  0.00    +0.244 C 
BRANCH  28  29
ATOM     29  O   UNL     1       9.202  -4.928  12.959  0.00  0.00    -0.383 OA
ATOM     30  H   UNL     1       9.751  -5.469  13.543  0.00  0.00    +0.211 HD
ENDBRANCH  28  29
ENDBRANCH  27  28
ENDBRANCH  23  26
ENDBRANCH  20  21
ENDBRANCH   6  20
TORSDOF 8
