REMARK  Name = ZINC25608750
REMARK  15 active torsions:
REMARK  status: ('A' for Active; 'I' for Inactive)
REMARK    1  A    between atoms: C_1  and  C_2
REMARK    2  A    between atoms: C_2  and  C_3
REMARK    3  A    between atoms: C_3  and  C_4
REMARK    4  A    between atoms: C_3  and  C_5
REMARK    5  A    between atoms: C_3  and  N_6
REMARK    6  A    between atoms: C_7  and  C_9
REMARK    7  A    between atoms: C_9  and  N_10
REMARK    8  A    between atoms: N_10  and  C_11
REMARK    9  A    between atoms: C_13  and  S_20
REMARK   10  A    between atoms: C_16  and  N_17
REMARK   11  A    between atoms: N_17  and  C_18
REMARK   12  A    between atoms: C_18  and  C_19
REMARK   13  A    between atoms: S_20  and  N_23
REMARK   14  A    between atoms: N_23  and  C_24
REMARK   15  A    between atoms: N_23  and  C_25
REMARK                            x       y       z     vdW  Elec       q    Type
REMARK                         _______ _______ _______ _____ _____    ______ ____
ROOT
ATOM      1  C   UNL     1      -4.162  -6.082   0.009  0.00  0.00    +0.051 A 
ATOM      2  C   UNL     1      -3.098  -6.971   0.000  0.00  0.00    +0.053 A 
ATOM      3  C   UNL     1      -3.334  -8.333  -0.005  0.00  0.00    +0.107 A 
ATOM      4  C   UNL     1      -4.631  -8.813  -0.000  0.00  0.00    +0.030 A 
ATOM      5  C   UNL     1      -5.698  -7.935   0.009  0.00  0.00    +0.027 A 
ATOM      6  C   UNL     1      -5.470  -6.567   0.019  0.00  0.00    +0.048 A 
ENDROOT
BRANCH   3   7
ATOM      7  S   UNL     1      -1.980  -9.460  -0.017  0.00  0.00    +0.060 S 
ATOM      8  O   UNL     1      -2.467 -10.674  -0.570  0.00  0.00    -0.153 OA
ATOM      9  O   UNL     1      -0.874  -8.759  -0.571  0.00  0.00    -0.153 OA
BRANCH   7  10
ATOM     10  N   UNL     1      -1.595  -9.779   1.562  0.00  0.00    -0.183 NA
ATOM     11  C   UNL     1      -2.236 -10.896   2.260  0.00  0.00    +0.131 C 
ATOM     12  C   UNL     1      -0.613  -8.945   2.260  0.00  0.00    +0.131 C 
ENDBRANCH   7  10
ENDBRANCH   3   7
BRANCH   1  13
ATOM     13  N   UNL     1      -3.925  -4.702   0.014  0.00  0.00    -0.334 N 
ATOM     14  H   UNL     1      -4.671  -4.082   0.025  0.00  0.00    +0.147 HD
BRANCH  13  15
ATOM     15  C   UNL     1      -2.551  -4.195   0.004  0.00  0.00    +0.197 C 
BRANCH  15  17
ATOM     16  N   UNL     1      -1.413  -1.998   0.005  0.00  0.00    -0.309 N 
ATOM     17  C   UNL     1      -2.571  -2.688   0.012  0.00  0.00    +0.231 C 
ATOM     18  O   UNL     1      -3.630  -2.096   0.025  0.00  0.00    -0.274 OA
ATOM     19  H   UNL     1      -0.567  -2.472  -0.006  0.00  0.00    +0.149 HD
BRANCH  16  20
ATOM     20  C   UNL     1      -1.433  -0.534   0.013  0.00  0.00    +0.029 C 
ATOM     21  C   UNL     1      -2.149  -0.040   1.272  0.00  0.00    +0.031 C 
ATOM     22  C   UNL     1      -2.173  -0.027  -1.227  0.00  0.00    +0.031 C 
BRANCH  20  24
ATOM     23  C   UNL     1      -0.019   1.526   0.010  0.00  0.00    +0.006 C 
ATOM     24  C   UNL     1       0.002  -0.004   0.002  0.00  0.00    +0.022 C 
ENDBRANCH  20  24
ENDBRANCH  16  20
ENDBRANCH  15  17
ENDBRANCH  13  15
ENDBRANCH   1  13
BRANCH   6  25
ATOM     25  N   UNL     1      -6.550  -5.675   0.034  0.00  0.00    -0.343 N 
ATOM     26  H   UNL     1      -6.388  -4.719   0.037  0.00  0.00    +0.146 HD
BRANCH  25  27
ATOM     27  C   UNL     1      -7.922  -6.187   0.044  0.00  0.00    +0.098 C 
ATOM     28  C   UNL     1      -8.904  -5.013   0.059  0.00  0.00    +0.024 C 
ENDBRANCH  25  27
ENDBRANCH   6  25
TORSDOF 9
