REMARK  Name = ZINC36586087
REMARK  16 active torsions:
REMARK  status: ('A' for Active; 'I' for Inactive)
REMARK    1  A    between atoms: C_1  and  C_2
REMARK    2  A    between atoms: C_2  and  C_3
REMARK    3  A    between atoms: C_3  and  C_4
REMARK    4  A    between atoms: C_4  and  N_5
REMARK    5  A    between atoms: C_6  and  C_8
REMARK    6  A    between atoms: C_8  and  C_10
REMARK    7  A    between atoms: C_8  and  N_19
REMARK    8  A    between atoms: C_11  and  O_18
REMARK    9  A    between atoms: C_13  and  O_17
REMARK   10  A    between atoms: C_15  and  O_16
REMARK   11  A    between atoms: N_19  and  C_30
REMARK   12  A    between atoms: C_20  and  C_22
REMARK   13  A    between atoms: C_23  and  C_24
REMARK   14  A    between atoms: C_30  and  C_31
REMARK   15  A    between atoms: C_30  and  C_32
REMARK   16  A    between atoms: C_30  and  C_33
REMARK                            x       y       z     vdW  Elec       q    Type
REMARK                         _______ _______ _______ _____ _____    ______ ____
ROOT
ATOM      1  C   UNL     1      -4.546  -4.436  -0.200  0.00  0.00    +0.201 C 
ENDROOT
BRANCH   1   2
ATOM      2  C   UNL     1      -5.017  -3.888   1.123  0.00  0.00    +0.065 A 
ATOM      3  C   UNL     1      -4.558  -4.445   2.307  0.00  0.00    +0.129 A 
ATOM      4  C   UNL     1      -4.992  -3.941   3.524  0.00  0.00    +0.091 A 
ATOM      5  C   UNL     1      -5.885  -2.880   3.556  0.00  0.00    +0.124 A 
ATOM      6  C   UNL     1      -6.343  -2.323   2.372  0.00  0.00    +0.091 A 
ATOM      7  C   UNL     1      -5.906  -2.824   1.155  0.00  0.00    +0.129 A 
BRANCH   7   8
ATOM      8  O   UNL     1      -6.351  -2.275  -0.005  0.00  0.00    -0.506 OA
ATOM      9  H   UNL     1      -7.159  -2.682  -0.349  0.00  0.00    +0.292 HD
ENDBRANCH   7   8
BRANCH   5  10
ATOM     10  O   UNL     1      -6.310  -2.387   4.749  0.00  0.00    -0.507 OA
ATOM     11  H   UNL     1      -5.758  -1.676   5.100  0.00  0.00    +0.292 HD
ENDBRANCH   5  10
BRANCH   3  12
ATOM     12  O   UNL     1      -3.684  -5.485   2.275  0.00  0.00    -0.506 OA
ATOM     13  H   UNL     1      -2.756  -5.217   2.236  0.00  0.00    +0.292 HD
ENDBRANCH   3  12
ENDBRANCH   1   2
BRANCH   1  15
ATOM     14  N   UNL     1      -2.603  -3.136  -1.008  0.00  0.00    -0.313 N 
ATOM     15  C   UNL     1      -3.062  -4.211  -0.337  0.00  0.00    +0.238 C 
ATOM     16  O   UNL     1      -2.281  -4.997   0.157  0.00  0.00    -0.273 OA
ATOM     17  H   UNL     1      -3.227  -2.508  -1.403  0.00  0.00    +0.149 HD
BRANCH  14  18
ATOM     18  C   UNL     1      -1.160  -2.917  -1.141  0.00  0.00    +0.104 C 
BRANCH  18  19
ATOM     19  C   UNL     1      -0.910  -1.638  -1.942  0.00  0.00    +0.018 C 
BRANCH  19  21
ATOM     20  C   UNL     1       0.846  -0.130  -2.881  0.00  0.00    +0.004 C 
ATOM     21  C   UNL     1       0.596  -1.409  -2.080  0.00  0.00    -0.002 C 
ENDBRANCH  19  21
ENDBRANCH  18  19
ENDBRANCH  14  18
ENDBRANCH   1  15
BRANCH   1  22
ATOM     22  N   UNL     1      -4.830  -5.872  -0.263  0.00  0.00    -0.270 N 
ATOM     23  C   UNL     1      -5.601  -6.449   0.680  0.00  0.00    +0.293 C 
ATOM     24  O   UNL     1      -6.157  -5.760   1.516  0.00  0.00    -0.260 OA
BRANCH  22  25
ATOM     25  C   UNL     1      -4.276  -6.681  -1.352  0.00  0.00    +0.031 C 
ATOM     26  C   UNL     1      -3.496  -5.780  -2.311  0.00  0.00    +0.031 C 
ATOM     27  C   UNL     1      -3.338  -7.742  -0.772  0.00  0.00    +0.031 C 
ATOM     28  C   UNL     1      -5.416  -7.366  -2.109  0.00  0.00    +0.031 C 
ENDBRANCH  22  25
BRANCH  23  29
ATOM     29  C   UNL     1      -5.765  -7.871   0.699  0.00  0.00    -0.003 C 
ATOM     30  C   UNL     1      -5.899  -9.037   0.715  0.00  0.00    -0.057 C 
BRANCH  30  31
ATOM     31  C   UNL     1      -6.064 -10.460   0.734  0.00  0.00    +0.025 A 
ATOM     32  C   UNL     1      -5.422 -11.254  -0.221  0.00  0.00    +0.017 A 
ATOM     33  C   UNL     1      -5.584 -12.623  -0.195  0.00  0.00    +0.001 A 
ATOM     34  C   UNL     1      -6.381 -13.211   0.772  0.00  0.00    +0.000 A 
ATOM     35  C   UNL     1      -7.021 -12.431   1.720  0.00  0.00    +0.001 A 
ATOM     36  C   UNL     1      -6.863 -11.062   1.712  0.00  0.00    +0.017 A 
ENDBRANCH  30  31
ENDBRANCH  23  29
ENDBRANCH   1  22
TORSDOF 12
