REMARK  Name = ZINC13212061
REMARK  0 active torsions:
REMARK  status: ('A' for Active; 'I' for Inactive)
REMARK                            x       y       z     vdW  Elec       q    Type
REMARK                         _______ _______ _______ _____ _____    ______ ____
ROOT
ATOM      1  C   UNL     1      -0.013   1.076   0.008  0.00  0.00    +0.001 A 
ATOM      2  C   UNL     1      -1.230   1.744   0.017  0.00  0.00    +0.001 A 
ATOM      3  C   UNL     1      -1.273   3.121   0.029  0.00  0.00    +0.010 A 
ATOM      4  C   UNL     1      -0.082   3.847   0.022  0.00  0.00    +0.010 A 
ATOM      5  C   UNL     1       1.155   3.166   0.008  0.00  0.00    -0.016 A 
ATOM      6  C   UNL     1       1.166   1.765   0.000  0.00  0.00    +0.008 A 
ATOM      7  C   UNL     1       2.402   3.923  -0.001  0.00  0.00    +0.011 A 
ATOM      8  C   UNL     1       2.408   5.270   0.005  0.00  0.00    +0.030 A 
ATOM      9  C   UNL     1       1.204   6.016   0.020  0.00  0.00    +0.092 A 
ATOM     10  C   UNL     1      -0.081   5.316   0.029  0.00  0.00    +0.098 A 
ATOM     11  N   UNL     1      -1.218   5.997   0.043  0.00  0.00    -0.238 NA
ATOM     12  C   UNL     1      -1.184   7.319   0.048  0.00  0.00    +0.148 A 
ATOM     13  C   UNL     1      -2.406   8.132   0.063  0.00  0.00    +0.149 A 
ATOM     14  N   UNL     1      -2.264   9.449   0.066  0.00  0.00    -0.198 NA
ATOM     15  C   UNL     1      -1.069  10.028   0.058  0.00  0.00    +0.216 A 
ATOM     16  N   UNL     1       0.073   9.373   0.045  0.00  0.00    -0.193 NA
ATOM     17  C   UNL     1       0.098   8.031   0.039  0.00  0.00    +0.186 A 
ATOM     18  N   UNL     1       1.237   7.348   0.026  0.00  0.00    -0.224 NA
ATOM     19  N   UNL     1      -1.021  11.408   0.063  0.00  0.00    -0.327 N 
ATOM     20  N   UNL     1      -3.652   7.547   0.072  0.00  0.00    -0.341 N 
ATOM     21  H   UNL     1      -0.164  11.864   0.057  0.00  0.00    +0.145 HD
ATOM     22  H   UNL     1      -1.843  11.922   0.073  0.00  0.00    +0.145 HD
ATOM     23  H   UNL     1      -3.734   6.581   0.068  0.00  0.00    +0.144 HD
ATOM     24  H   UNL     1      -4.448   8.102   0.081  0.00  0.00    +0.144 HD
ENDROOT
TORSDOF 0
