REMARK  Name = ZINC13638939
REMARK  6 active torsions:
REMARK  status: ('A' for Active; 'I' for Inactive)
REMARK    1  A    between atoms: C_1  and  C_2
REMARK    2  A    between atoms: C_2  and  C_3
REMARK    3  A    between atoms: C_3  and  N_4
REMARK    4  A    between atoms: N_4  and  S_5
REMARK    5  A    between atoms: S_5  and  C_8
REMARK    6  A    between atoms: C_21  and  C_24
REMARK                            x       y       z     vdW  Elec       q    Type
REMARK                         _______ _______ _______ _____ _____    ______ ____
ROOT
ATOM      1  C   UNL     1      -0.014  -2.780   0.021  0.00  0.00    +0.106 A 
ATOM      2  C   UNL     1      -1.206  -2.080  -0.012  0.00  0.00    +0.030 A 
ATOM      3  C   UNL     1      -1.200  -0.701  -0.021  0.00  0.00    +0.025 A 
ATOM      4  C   UNL     1       0.002  -0.004   0.002  0.00  0.00    +0.031 A 
ATOM      5  C   UNL     1       1.205  -0.719   0.019  0.00  0.00    -0.018 A 
ATOM      6  C   UNL     1       1.188  -2.097   0.037  0.00  0.00    +0.034 A 
ATOM      7  C   UNL     1       2.462   0.060  -0.007  0.00  0.00    +0.049 C 
ATOM      8  C   UNL     1       3.725  -0.464   0.572  0.00  0.00    -0.023 C 
ATOM      9  C   UNL     1       4.442   0.559   1.020  0.00  0.00    -0.030 C 
ATOM     10  C   UNL     1       3.680   1.867   0.801  0.00  0.00    +0.033 C 
ATOM     11  C   UNL     1       2.234   1.367   0.809  0.00  0.00    +0.029 C 
ATOM     12  C   UNL     1       1.237   2.180   0.002  0.00  0.00    +0.105 C 
ATOM     13  N   UNL     1      -0.017   1.396   0.010  0.00  0.00    -0.336 N 
ATOM     14  H   UNL     1      -0.868   1.860   0.016  0.00  0.00    +0.147 HD
ENDROOT
BRANCH  12  15
ATOM     15  C   UNL     1       1.016   3.523   0.649  0.00  0.00    -0.027 A 
ATOM     16  C   UNL     1       0.222   3.624   1.776  0.00  0.00    +0.006 A 
ATOM     17  C   UNL     1       0.022   4.855   2.372  0.00  0.00    +0.015 A 
ATOM     18  C   UNL     1       0.609   5.987   1.835  0.00  0.00    +0.018 A 
ATOM     19  C   UNL     1       1.399   5.885   0.705  0.00  0.00    +0.015 A 
ATOM     20  C   UNL     1       1.602   4.653   0.112  0.00  0.00    +0.006 A 
ATOM     21 BR   UNL     1       0.331   7.672   2.647  0.00  0.00    -0.050 Br
ENDBRANCH  12  15
BRANCH   1  22
ATOM     22  S   UNL     1      -0.026  -4.542   0.043  0.00  0.00    +0.058 S 
ATOM     23  O   UNL     1      -1.263  -4.946  -0.528  0.00  0.00    -0.153 OA
ATOM     24  O   UNL     1       1.227  -4.963  -0.478  0.00  0.00    -0.153 OA
BRANCH  22  25
ATOM     25  N   UNL     1      -0.062  -5.012   1.631  0.00  0.00    -0.190 NA
ATOM     26  H   UNL     1       0.689  -5.495   2.010  0.00  0.00    +0.148 HD
BRANCH  25  27
ATOM     27  C   UNL     1      -1.226  -4.698   2.462  0.00  0.00    +0.105 C 
BRANCH  27  29
ATOM     28  C   UNL     1      -2.401  -5.213   4.606  0.00  0.00    +0.005 C 
ATOM     29  C   UNL     1      -1.184  -5.541   3.738  0.00  0.00    +0.013 C 
ENDBRANCH  27  29
ENDBRANCH  25  27
ENDBRANCH  22  25
ENDBRANCH   1  22
TORSDOF 5
