REMARK  Name = ZINC25895748
REMARK  4 active torsions:
REMARK  status: ('A' for Active; 'I' for Inactive)
REMARK    1  A    between atoms: C_6  and  O_7
REMARK    2  A    between atoms: O_7  and  C_8
REMARK    3  A    between atoms: C_8  and  C_9
REMARK    4  A    between atoms: N_11  and  C_12
REMARK                            x       y       z     vdW  Elec       q    Type
REMARK                         _______ _______ _______ _____ _____    ______ ____
ROOT
ATOM      1  O   UNL     1      -2.607   7.864  -0.243  0.00  0.00    -0.483 OA
ENDROOT
BRANCH   1   7
ATOM      2  C   UNL     1      -1.706  10.062  -0.366  0.00  0.00    +0.047 A 
ATOM      3  C   UNL     1      -1.898  11.426  -0.469  0.00  0.00    +0.027 A 
ATOM      4  C   UNL     1      -3.185  11.940  -0.550  0.00  0.00    +0.037 A 
ATOM      5  C   UNL     1      -4.277  11.083  -0.528  0.00  0.00    -0.022 A 
ATOM      6  C   UNL     1      -4.084   9.720  -0.431  0.00  0.00    +0.051 A 
ATOM      7  C   UNL     1      -2.797   9.207  -0.344  0.00  0.00    +0.122 A 
ATOM      8  C   UNL     1      -5.673  11.644  -0.618  0.00  0.00    +0.046 C 
ATOM      9  C   UNL     1      -5.726  12.997   0.093  0.00  0.00    +0.101 C 
ATOM     10  C   UNL     1      -4.582  13.862  -0.366  0.00  0.00    +0.218 C 
ATOM     11  O   UNL     1      -4.743  15.059  -0.475  0.00  0.00    -0.275 OA
ATOM     12  N   UNL     1      -3.384  13.322  -0.655  0.00  0.00    -0.285 N 
ATOM     13  H   UNL     1      -2.558  13.974  -0.976  0.00  0.00    +0.155 HD
ENDBRANCH   1   7
BRANCH   1  14
ATOM     14  C   UNL     1      -1.256   7.405  -0.164  0.00  0.00    +0.324 C 
BRANCH  14  15
ATOM     15  C   UNL     1      -1.242   5.902  -0.058  0.00  0.00    +0.255 C 
ATOM     16  O   UNL     1      -2.286   5.284  -0.050  0.00  0.00    -0.272 OA
ATOM     17  N   UNL     1      -0.069   5.243   0.029  0.00  0.00    -0.283 N 
ATOM     18  H   UNL     1       0.873   5.806   0.110  0.00  0.00    +0.155 HD
BRANCH  17  19
ATOM     19  C   UNL     1      -0.050   3.844   0.017  0.00  0.00    +0.036 A 
ATOM     20  C   UNL     1      -0.989   3.142  -0.727  0.00  0.00    +0.043 A 
ATOM     21  C   UNL     1      -0.968   1.760  -0.738  0.00  0.00    +0.044 A 
ATOM     22  C   UNL     1      -0.012   1.076  -0.007  0.00  0.00    +0.040 A 
ATOM     23  C   UNL     1       0.921   1.773   0.740  0.00  0.00    +0.044 A 
ATOM     24  C   UNL     1       0.908   3.155   0.749  0.00  0.00    +0.043 A 
ATOM     25 CL   UNL     1       2.114   0.911   1.661  0.00  0.00    -0.083 Cl
ATOM     26 CL   UNL     1      -2.141   0.882  -1.668  0.00  0.00    -0.083 Cl
ENDBRANCH  17  19
ENDBRANCH  14  15
ENDBRANCH   1  14
TORSDOF 4
