REMARK  Name = ZINC07802767
REMARK  7 active torsions:
REMARK  status: ('A' for Active; 'I' for Inactive)
REMARK    1  A    between atoms: C_1  and  C_2
REMARK    2  A    between atoms: C_2  and  C_4
REMARK    3  A    between atoms: C_2  and  N_54
REMARK    4  A    between atoms: C_9  and  C_11
REMARK    5  A    between atoms: C_9  and  C_12
REMARK    6  A    between atoms: C_9  and  N_54
REMARK    7  A    between atoms: N_17  and  C_18
REMARK                            x       y       z     vdW  Elec       q    Type
REMARK                         _______ _______ _______ _____ _____    ______ ____
ROOT
ATOM      1  C   UNL     1      -1.613   5.077   2.768  0.00  0.00    +0.206 C 
ATOM      2  O   UNL     1      -1.171   5.875   1.970  0.00  0.00    -0.277 OA
ATOM      3  N   UNL     1      -1.474   3.755   2.546  0.00  0.00    -0.242 N 
ATOM      4  C   UNL     1      -0.843   3.320   1.438  0.00  0.00    +0.306 C 
ATOM      5  O   UNL     1      -0.400   4.121   0.637  0.00  0.00    -0.252 OA
ATOM      6  N   UNL     1      -0.704   1.998   1.216  0.00  0.00    -0.294 N 
ATOM      7  H   UNL     1      -1.828   3.116   3.185  0.00  0.00    +0.159 HD
ATOM      8  H   UNL     1      -1.058   1.359   1.854  0.00  0.00    +0.151 HD
ENDROOT
BRANCH   6   9
ATOM      9  C   UNL     1      -0.019   1.526   0.010  0.00  0.00    +0.037 C 
ATOM     10  C   UNL     1       1.417   2.055  -0.000  0.00  0.00    +0.029 C 
ATOM     11  C   UNL     1       2.133   1.562  -1.259  0.00  0.00    -0.008 C 
ATOM     12  C   UNL     1       2.154   0.032  -1.268  0.00  0.00    +0.007 C 
ATOM     13  C   UNL     1       0.718  -0.497  -1.257  0.00  0.00    -0.008 C 
ATOM     14  C   UNL     1       0.002  -0.004   0.002  0.00  0.00    +0.029 C 
ATOM     15  C   UNL     1      -0.022   0.009  -2.496  0.00  0.00    +0.007 C 
ATOM     16  C   UNL     1      -0.043   1.539  -2.488  0.00  0.00    -0.008 C 
ATOM     17  C   UNL     1       1.393   2.069  -2.499  0.00  0.00    +0.007 C 
ATOM     18  C   UNL     1      -0.759   2.033  -1.229  0.00  0.00    +0.029 C 
ENDBRANCH   6   9
BRANCH   1  19
ATOM     19  C   UNL     1      -2.319   5.563   4.008  0.00  0.00    +0.014 C 
ATOM     20  C   UNL     1      -3.754   5.034   4.019  0.00  0.00    -0.004 C 
BRANCH  19  21
ATOM     21  N   UNL     1      -2.338   7.038   4.007  0.00  0.00    +0.393 N 
ATOM     22  H   UNL     1      -1.469   7.388   3.587  0.00  0.00    -0.084 HD
ATOM     23  H   UNL     1      -3.140   7.366   3.457  0.00  0.00    -0.084 HD
BRANCH  21  25
ATOM     24  C   UNL     1      -1.061   7.630   6.018  0.00  0.00    -0.006 C 
ATOM     25  C   UNL     1      -2.452   7.549   5.386  0.00  0.00    -0.006 C 
BRANCH  25  26
ATOM     26  C   UNL     1      -3.070   8.924   5.355  0.00  0.00    +0.091 A 
ATOM     27  C   UNL     1      -3.978   9.398   6.226  0.00  0.00    +0.043 A 
ATOM     28  C   UNL     1      -4.280  10.719   5.824  0.00  0.00    +0.041 A 
ATOM     29  C   UNL     1      -3.538  10.973   4.731  0.00  0.00    +0.195 A 
ATOM     30  O   UNL     1      -2.803   9.884   4.455  0.00  0.00    -0.469 OA
ENDBRANCH  25  26
ENDBRANCH  21  25
ENDBRANCH  19  21
ENDBRANCH   1  19
TORSDOF 5
