REMARK  Name = ZINC04795590
REMARK  5 active torsions:
REMARK  status: ('A' for Active; 'I' for Inactive)
REMARK    1  A    between atoms: C_10  and  C_13
REMARK    2  A    between atoms: C_13  and  C_14
REMARK    3  A    between atoms: N_16  and  N_17
REMARK    4  A    between atoms: C_18  and  C_19
REMARK    5  A    between atoms: C_23  and  O_25
REMARK                            x       y       z     vdW  Elec       q    Type
REMARK                         _______ _______ _______ _____ _____    ______ ____
ROOT
ATOM      1  C   UNL     1      -2.411   8.008   0.066  0.00  0.00    +0.234 C 
ATOM      2  O   UNL     1      -3.452   7.385   0.073  0.00  0.00    -0.274 OA
ATOM      3  N   UNL     1      -1.233   7.354   0.051  0.00  0.00    -0.207 N 
ATOM      4  H   UNL     1      -0.401   7.853   0.045  0.00  0.00    +0.177 HD
ENDROOT
BRANCH   3   5
ATOM      5  N   UNL     1      -1.210   5.953   0.044  0.00  0.00    -0.188 NA
ATOM      6  C   UNL     1      -0.076   5.323   0.030  0.00  0.00    +0.138 C 
BRANCH   6   7
ATOM      7  C   UNL     1      -0.051   3.849   0.023  0.00  0.00    -0.002 A 
ATOM      8  C   UNL     1      -1.248   3.127   0.031  0.00  0.00    +0.010 A 
ATOM      9  C   UNL     1      -1.221   1.748   0.017  0.00  0.00    +0.004 A 
ATOM     10  C   UNL     1      -0.013   1.076   0.008  0.00  0.00    +0.045 A 
ATOM     11  C   UNL     1       1.182   1.784   0.000  0.00  0.00    +0.117 A 
ATOM     12  C   UNL     1       1.167   3.168   0.007  0.00  0.00    +0.054 A 
BRANCH  11  13
ATOM     13  O   UNL     1       2.366   1.117  -0.015  0.00  0.00    -0.507 OA
ATOM     14  H   UNL     1       2.700   0.929  -0.902  0.00  0.00    +0.292 HD
ENDBRANCH  11  13
ENDBRANCH   6   7
ENDBRANCH   3   5
BRANCH   1  15
ATOM     15  C   UNL     1      -2.436   9.515   0.073  0.00  0.00    +0.121 C 
BRANCH  15  25
ATOM     16  C   UNL     1      -2.953  12.484   4.606  0.00  0.00    +0.002 A 
ATOM     17  C   UNL     1      -3.312  11.220   5.036  0.00  0.00    +0.001 A 
ATOM     18  C   UNL     1      -3.831  10.308   4.134  0.00  0.00    +0.016 A 
ATOM     19  C   UNL     1      -3.985  10.663   2.804  0.00  0.00    +0.030 A 
ATOM     20  C   UNL     1      -3.603  11.929   2.359  0.00  0.00    +0.047 A 
ATOM     21  C   UNL     1      -3.099  12.841   3.281  0.00  0.00    +0.024 A 
ATOM     22  N   UNL     1      -3.737  12.309   1.027  0.00  0.00    -0.284 N 
ATOM     23  C   UNL     1      -3.920  11.504  -0.014  0.00  0.00    +0.231 C 
ATOM     24  O   UNL     1      -4.123  12.003  -1.101  0.00  0.00    -0.274 OA
ATOM     25  C   UNL     1      -3.887  10.001   0.090  0.00  0.00    +0.146 C 
ATOM     26  S   UNL     1      -4.678   9.515   1.654  0.00  0.00    -0.110 S 
ATOM     27  H   UNL     1      -3.693  13.260   0.840  0.00  0.00    +0.155 HD
ENDBRANCH  15  25
ENDBRANCH   1  15
TORSDOF 5
