REMARK  Name = ZINC28394277
REMARK  9 active torsions:
REMARK  status: ('A' for Active; 'I' for Inactive)
REMARK    1  A    between atoms: C_1  and  C_2
REMARK    2  A    between atoms: C_2  and  O_30
REMARK    3  A    between atoms: N_6  and  S_13
REMARK    4  A    between atoms: C_7  and  C_9
REMARK    5  A    between atoms: N_11  and  O_12
REMARK    6  A    between atoms: S_13  and  C_16
REMARK    7  A    between atoms: C_19  and  O_22
REMARK    8  A    between atoms: O_22  and  C_23
REMARK    9  A    between atoms: C_23  and  C_24
REMARK                            x       y       z     vdW  Elec       q    Type
REMARK                         _______ _______ _______ _____ _____    ______ ____
ROOT
ATOM      1  S   UNL     1       8.057  -1.868  -2.201  0.00  0.00    +0.062 S 
ATOM      2  O   UNL     1       8.309  -2.626  -1.026  0.00  0.00    -0.153 OA
ATOM      3  O   UNL     1       7.997  -2.460  -3.492  0.00  0.00    -0.153 OA
ENDROOT
BRANCH   1   9
ATOM      4  C   UNL     1      10.626   1.764   0.243  0.00  0.00    +0.043 C 
ATOM      5  C   UNL     1       9.803   1.270  -0.948  0.00  0.00    +0.089 C 
ATOM      6  C   UNL     1      10.334   1.904  -2.235  0.00  0.00    +0.038 C 
ATOM      7  C   UNL     1       9.490   1.436  -3.423  0.00  0.00    +0.020 C 
ATOM      8  C   UNL     1       9.604  -0.091  -3.554  0.00  0.00    +0.110 C 
ATOM      9  N   UNL     1       9.228  -0.699  -2.271  0.00  0.00    -0.162 NA
ATOM     10  C   UNL     1       9.915  -0.255  -1.050  0.00  0.00    +0.198 C 
BRANCH  10  11
ATOM     11  C   UNL     1      11.368  -0.651  -1.116  0.00  0.00    +0.257 C 
ATOM     12  O   UNL     1      11.879  -0.906  -2.186  0.00  0.00    -0.272 OA
ATOM     13  N   UNL     1      12.099  -0.721   0.014  0.00  0.00    -0.196 N 
ATOM     14  H   UNL     1      11.635  -0.490   0.984  0.00  0.00    +0.182 HD
BRANCH  13  15
ATOM     15  O   UNL     1      13.464  -1.093  -0.048  0.00  0.00    -0.295 OA
ATOM     16  H   UNL     1      14.060  -1.151   0.875  0.00  0.00    +0.241 HD
ENDBRANCH  13  15
ENDBRANCH  10  11
BRANCH   5  17
ATOM     17  O   UNL     1       8.433   1.635  -0.766  0.00  0.00    -0.387 OA
ATOM     18  H   UNL     1       7.686   1.363  -1.526  0.00  0.00    +0.210 HD
ENDBRANCH   5  17
ENDBRANCH   1   9
BRANCH   1  19
ATOM     19  C   UNL     1       6.517  -1.049  -1.952  0.00  0.00    +0.106 A 
ATOM     20  C   UNL     1       5.764  -0.648  -3.040  0.00  0.00    +0.032 A 
ATOM     21  C   UNL     1       4.556  -0.005  -2.847  0.00  0.00    +0.047 A 
ATOM     22  C   UNL     1       4.099   0.238  -1.560  0.00  0.00    +0.121 A 
ATOM     23  C   UNL     1       4.859  -0.160  -0.470  0.00  0.00    +0.047 A 
ATOM     24  C   UNL     1       6.063  -0.808  -0.668  0.00  0.00    +0.032 A 
BRANCH  22  25
ATOM     25  O   UNL     1       2.912   0.869  -1.368  0.00  0.00    -0.487 OA
BRANCH  25  26
ATOM     26  C   UNL     1       2.504   1.086  -0.016  0.00  0.00    +0.264 C 
BRANCH  26  27
ATOM     27  C   UNL     1       1.173   1.794   0.001  0.00  0.00    -0.008 A 
ATOM     28  C   UNL     1      -0.013   1.076   0.008  0.00  0.00    +0.026 A 
ATOM     29  C   UNL     1      -1.214   1.759   0.017  0.00  0.00    +0.111 A 
ATOM     30  N   UNL     1      -1.240   3.078   0.030  0.00  0.00    -0.263 NA
ATOM     31  C   UNL     1      -0.132   3.793   0.024  0.00  0.00    +0.111 A 
ATOM     32  C   UNL     1       1.106   3.179   0.009  0.00  0.00    +0.026 A 
ENDBRANCH  26  27
ENDBRANCH  25  26
ENDBRANCH  22  25
ENDBRANCH   1  19
TORSDOF 8
