REMARK  Name = ZINC46660795
REMARK  6 active torsions:
REMARK  status: ('A' for Active; 'I' for Inactive)
REMARK    1  A    between atoms: C_4  and  C_7
REMARK    2  A    between atoms: N_10  and  C_12
REMARK    3  A    between atoms: C_12  and  C_13
REMARK    4  A    between atoms: C_16  and  C_19
REMARK    5  A    between atoms: N_21  and  N_22
REMARK    6  A    between atoms: C_23  and  C_25
REMARK                            x       y       z     vdW  Elec       q    Type
REMARK                         _______ _______ _______ _____ _____    ______ ____
ROOT
ATOM      1  C   UNL     1       6.617  -5.345   5.317  0.00  0.00    +0.260 C 
ATOM      2  O   UNL     1       7.658  -5.084   5.886  0.00  0.00    -0.269 OA
ATOM      3  N   UNL     1       5.662  -6.055   5.951  0.00  0.00    -0.230 N 
ATOM      4  H   UNL     1       4.830  -6.263   5.496  0.00  0.00    +0.173 HD
ENDROOT
BRANCH   1   8
ATOM      5  C   UNL     1       5.986  -4.022   1.331  0.00  0.00    -0.024 A 
ATOM      6  C   UNL     1       7.173  -3.723   1.976  0.00  0.00    +0.006 A 
ATOM      7  C   UNL     1       7.384  -4.149   3.271  0.00  0.00    +0.013 A 
ATOM      8  C   UNL     1       6.397  -4.884   3.930  0.00  0.00    +0.038 A 
ATOM      9  C   UNL     1       5.202  -5.183   3.273  0.00  0.00    +0.013 A 
ATOM     10  C   UNL     1       5.001  -4.745   1.980  0.00  0.00    +0.006 A 
BRANCH   5  11
ATOM     11  C   UNL     1       5.762  -3.552  -0.084  0.00  0.00    +0.203 C 
BRANCH  11  15
ATOM     12  C   UNL     1       3.699  -0.690  -0.038  0.00  0.00    +0.205 A 
ATOM     13  N   UNL     1       4.921  -0.140  -0.042  0.00  0.00    -0.108 NA
ATOM     14  N   UNL     1       5.776  -1.106  -0.059  0.00  0.00    -0.045 NA
ATOM     15  N   UNL     1       5.141  -2.225  -0.065  0.00  0.00    -0.158 N 
ATOM     16  N   UNL     1       3.873  -1.996  -0.047  0.00  0.00    -0.130 NA
BRANCH  12  20
ATOM     17  C   UNL     1      -0.017   1.379   0.010  0.00  0.00    +0.000 A 
ATOM     18  C   UNL     1       1.169   2.092   0.002  0.00  0.00    +0.001 A 
ATOM     19  C   UNL     1       2.377   1.425  -0.013  0.00  0.00    +0.012 A 
ATOM     20  C   UNL     1       2.402   0.033  -0.021  0.00  0.00    +0.023 A 
ATOM     21  C   UNL     1       1.205  -0.680  -0.013  0.00  0.00    +0.012 A 
ATOM     22  C   UNL     1       0.002  -0.004   0.002  0.00  0.00    +0.001 A 
ENDBRANCH  12  20
ENDBRANCH  11  15
ENDBRANCH   5  11
ENDBRANCH   1   8
BRANCH   3  23
ATOM     23  N   UNL     1       5.870  -6.492   7.265  0.00  0.00    -0.230 N 
ATOM     24  C   UNL     1       4.915  -7.201   7.899  0.00  0.00    +0.260 C 
ATOM     25  O   UNL     1       3.873  -7.462   7.330  0.00  0.00    -0.269 OA
ATOM     26  H   UNL     1       6.701  -6.283   7.720  0.00  0.00    +0.173 HD
BRANCH  24  27
ATOM     27  C   UNL     1       5.135  -7.663   9.289  0.00  0.00    +0.040 A 
ATOM     28  C   UNL     1       6.338  -7.353   9.942  0.00  0.00    +0.014 A 
ATOM     29  C   UNL     1       6.564  -7.767  11.220  0.00  0.00    +0.016 A 
ATOM     30  C   UNL     1       5.587  -8.511  11.897  0.00  0.00    +0.065 A 
ATOM     31  C   UNL     1       4.365  -8.831  11.248  0.00  0.00    +0.080 A 
ATOM     32  C   UNL     1       4.149  -8.392   9.934  0.00  0.00    +0.041 A 
ATOM     33  N   UNL     1       3.442  -9.543  11.909  0.00  0.00    -0.223 NA
ATOM     34  C   UNL     1       3.659  -9.946  13.152  0.00  0.00    +0.180 A 
ATOM     35  N   UNL     1       4.798  -9.669  13.809  0.00  0.00    -0.301 N 
ATOM     36  H   UNL     1       4.914  -9.985  14.719  0.00  0.00    +0.171 HD
ATOM     37  C   UNL     1       5.783  -8.957  13.221  0.00  0.00    +0.260 A 
ATOM     38  O   UNL     1       6.922  -8.681  13.880  0.00  0.00    -0.267 OA
ATOM     39  S   UNL     1       2.445 -10.851  13.950  0.00  0.00    -0.011 S 
ENDBRANCH  24  27
ENDBRANCH   3  23
TORSDOF 6
