REMARK  Name = ZINC40815519
REMARK  8 active torsions:
REMARK  status: ('A' for Active; 'I' for Inactive)
REMARK    1  A    between atoms: C_1  and  C_2
REMARK    2  A    between atoms: C_6  and  C_7
REMARK    3  A    between atoms: N_9  and  N_10
REMARK    4  A    between atoms: N_10  and  C_11
REMARK    5  A    between atoms: N_21  and  N_22
REMARK    6  A    between atoms: C_23  and  C_25
REMARK    7  A    between atoms: C_25  and  C_26
REMARK    8  A    between atoms: C_25  and  C_32
REMARK                            x       y       z     vdW  Elec       q    Type
REMARK                         _______ _______ _______ _____ _____    ______ ____
ROOT
ATOM      1  C   UNL     1       0.079   2.076   0.063  0.00  0.00    +0.048 C 
ATOM      2  C   UNL     1       0.104   0.575   0.189  0.00  0.00    +0.009 A 
ATOM      3  C   UNL     1       0.097  -0.357  -0.856  0.00  0.00    +0.042 A 
ATOM      4  C   UNL     1       0.126  -1.610  -0.291  0.00  0.00    +0.115 A 
ATOM      5  O   UNL     1       0.154  -1.465   1.031  0.00  0.00    -0.454 OA
ATOM      6  C   UNL     1       0.145  -0.150   1.347  0.00  0.00    +0.194 A 
ATOM      7  C   UNL     1       0.123  -2.878  -1.108  0.00  0.00    +0.075 C 
ATOM      8  C   UNL     1      -0.423  -2.580  -2.507  0.00  0.00    +0.014 C 
ATOM      9  C   UNL     1       0.335  -1.413  -3.146  0.00  0.00    +0.058 C 
ATOM     10  C   UNL     1       0.066  -0.162  -2.322  0.00  0.00    +0.070 C 
ATOM     11  N   UNL     1      -0.172   0.992  -2.866  0.00  0.00    -0.184 NA
ENDROOT
BRANCH   6  12
ATOM     12  C   UNL     1       0.171   0.405   2.705  0.00  0.00    +0.296 C 
ATOM     13  O   UNL     1       0.157   1.610   2.870  0.00  0.00    -0.265 OA
ATOM     14  N   UNL     1       0.212  -0.420   3.770  0.00  0.00    -0.230 N 
ATOM     15  H   UNL     1       0.223  -1.381   3.639  0.00  0.00    +0.173 HD
BRANCH  14  16
ATOM     16  N   UNL     1       0.237   0.109   5.067  0.00  0.00    -0.264 N 
ATOM     17  H   UNL     1       0.225   1.070   5.198  0.00  0.00    +0.170 HD
BRANCH  16  18
ATOM     18  C   UNL     1       0.278  -0.746   6.170  0.00  0.00    +0.044 A 
ATOM     19  C   UNL     1       0.301  -2.122   5.984  0.00  0.00    +0.024 A 
ATOM     20  C   UNL     1       0.342  -2.965   7.077  0.00  0.00    +0.002 A 
ATOM     21  C   UNL     1       0.361  -2.441   8.356  0.00  0.00    +0.000 A 
ATOM     22  C   UNL     1       0.339  -1.071   8.545  0.00  0.00    +0.002 A 
ATOM     23  C   UNL     1       0.303  -0.222   7.457  0.00  0.00    +0.024 A 
ENDBRANCH  16  18
ENDBRANCH  14  16
ENDBRANCH   6  12
BRANCH  11  24
ATOM     24  N   UNL     1      -0.189   1.118  -4.261  0.00  0.00    -0.206 N 
ATOM     25  C   UNL     1      -0.437   2.317  -4.826  0.00  0.00    +0.244 C 
ATOM     26  O   UNL     1      -0.646   3.285  -4.127  0.00  0.00    -0.273 OA
ATOM     27  H   UNL     1      -0.022   0.344  -4.821  0.00  0.00    +0.177 HD
BRANCH  25  28
ATOM     28  C   UNL     1      -0.455   2.453  -6.327  0.00  0.00    +0.136 C 
BRANCH  28  29
ATOM     29  C   UNL     1      -0.753   3.883  -6.698  0.00  0.00    -0.031 A 
ATOM     30  C   UNL     1      -1.801   4.171  -7.553  0.00  0.00    +0.005 A 
ATOM     31  C   UNL     1      -2.075   5.482  -7.893  0.00  0.00    +0.000 A 
ATOM     32  C   UNL     1      -1.300   6.506  -7.379  0.00  0.00    +0.000 A 
ATOM     33  C   UNL     1      -0.253   6.218  -6.524  0.00  0.00    +0.000 A 
ATOM     34  C   UNL     1       0.018   4.907  -6.180  0.00  0.00    +0.005 A 
ENDBRANCH  28  29
BRANCH  28  35
ATOM     35  C   UNL     1       0.890   2.060  -6.883  0.00  0.00    -0.031 A 
ATOM     36  C   UNL     1       2.042   2.621  -6.366  0.00  0.00    +0.005 A 
ATOM     37  C   UNL     1       3.276   2.260  -6.876  0.00  0.00    +0.000 A 
ATOM     38  C   UNL     1       3.356   1.338  -7.903  0.00  0.00    +0.000 A 
ATOM     39  C   UNL     1       2.204   0.776  -8.419  0.00  0.00    +0.000 A 
ATOM     40  C   UNL     1       0.971   1.133  -7.906  0.00  0.00    +0.005 A 
ENDBRANCH  28  35
ENDBRANCH  25  28
ENDBRANCH  11  24
TORSDOF 7
