REMARK  Name = ZINC08385091
REMARK  10 active torsions:
REMARK  status: ('A' for Active; 'I' for Inactive)
REMARK    1  A    between atoms: C_1  and  C_2
REMARK    2  A    between atoms: C_3  and  C_31
REMARK    3  A    between atoms: C_5  and  N_23
REMARK    4  A    between atoms: C_6  and  C_7
REMARK    5  A    between atoms: C_7  and  C_9
REMARK    6  A    between atoms: C_7  and  N_17
REMARK    7  A    between atoms: C_14  and  O_15
REMARK    8  A    between atoms: O_15  and  C_16
REMARK    9  A    between atoms: N_17  and  C_18
REMARK   10  A    between atoms: C_24  and  C_26
REMARK                            x       y       z     vdW  Elec       q    Type
REMARK                         _______ _______ _______ _____ _____    ______ ____
ROOT
ATOM      1  C   UNL     1      -2.513   0.979   0.019  0.00  0.00    +0.138 C 
ENDROOT
BRANCH   1   7
ATOM      2  C   UNL     1      -4.757   2.580  -0.926  0.00  0.00    +0.045 C 
ATOM      3  C   UNL     1      -4.079   1.595  -1.844  0.00  0.00    -0.033 A 
ATOM      4  C   UNL     1      -4.505   1.442  -3.121  0.00  0.00    -0.008 A 
ATOM      5  S   UNL     1      -3.389   0.193  -3.739  0.00  0.00    -0.078 S 
ATOM      6  C   UNL     1      -2.425  -0.041  -2.255  0.00  0.00    +0.078 A 
ATOM      7  C   UNL     1      -3.015   0.836  -1.395  0.00  0.00    +0.009 A 
ATOM      8  C   UNL     1      -5.630   2.145  -3.836  0.00  0.00    +0.052 C 
BRANCH   6   9
ATOM      9  N   UNL     1      -1.346  -0.899  -2.033  0.00  0.00    -0.273 N 
ATOM     10  C   UNL     1      -0.905  -1.698  -3.026  0.00  0.00    +0.284 C 
ATOM     11  O   UNL     1      -1.448  -1.671  -4.115  0.00  0.00    -0.266 OA
ATOM     12  H   UNL     1      -0.913  -0.920  -1.165  0.00  0.00    +0.156 HD
BRANCH  10  13
ATOM     13  C   UNL     1       0.228  -2.599  -2.793  0.00  0.00    +0.189 A 
ATOM     14  C   UNL     1       0.772  -3.456  -3.706  0.00  0.00    +0.054 A 
ATOM     15  C   UNL     1       1.828  -4.118  -3.059  0.00  0.00    +0.042 A 
ATOM     16  C   UNL     1       1.881  -3.641  -1.796  0.00  0.00    +0.196 A 
ATOM     17  O   UNL     1       0.919  -2.722  -1.641  0.00  0.00    -0.458 OA
ENDBRANCH  10  13
ENDBRANCH   6   9
ENDBRANCH   1   7
BRANCH   1  18
ATOM     18  C   UNL     1      -1.219   1.750   0.017  0.00  0.00    +0.019 A 
ATOM     19  C   UNL     1      -0.013   1.076   0.008  0.00  0.00    +0.009 A 
ATOM     20  C   UNL     1       1.175   1.783   0.000  0.00  0.00    +0.001 A 
ATOM     21  C   UNL     1       1.160   3.166   0.007  0.00  0.00    +0.004 A 
ATOM     22  C   UNL     1      -0.043   3.844   0.023  0.00  0.00    +0.046 A 
ATOM     23  C   UNL     1      -1.237   3.137   0.031  0.00  0.00    +0.125 A 
BRANCH  23  24
ATOM     24  O   UNL     1      -2.422   3.802   0.047  0.00  0.00    -0.495 OA
ATOM     25  C   UNL     1      -2.364   5.230   0.054  0.00  0.00    +0.277 C 
ENDBRANCH  23  24
ENDBRANCH   1  18
BRANCH   1  26
ATOM     26  N   UNL     1      -2.290  -0.350   0.595  0.00  0.00    -0.319 N 
ATOM     27  H   UNL     1      -2.109  -1.106   0.014  0.00  0.00    +0.148 HD
BRANCH  26  28
ATOM     28  C   UNL     1      -2.336  -0.527   1.973  0.00  0.00    +0.097 A 
ATOM     29  C   UNL     1      -2.591   0.562   2.800  0.00  0.00    +0.041 A 
ATOM     30  C   UNL     1      -2.640   0.370   4.169  0.00  0.00    +0.005 A 
ATOM     31  C   UNL     1      -2.422  -0.908   4.667  0.00  0.00    +0.018 A 
ATOM     32  C   UNL     1      -2.169  -1.942   3.789  0.00  0.00    +0.084 A 
ATOM     33  N   UNL     1      -2.119  -1.791   2.438  0.00  0.00    -0.350 N 
ATOM     34  H   UNL     1      -1.929  -2.579   1.808  0.00  0.00    +0.166 HD
ENDBRANCH  26  28
ENDBRANCH   1  26
TORSDOF 7
