REMARK  Name = ZINC07203276
REMARK  7 active torsions:
REMARK  status: ('A' for Active; 'I' for Inactive)
REMARK    1  A    between atoms: C_1  and  C_2
REMARK    2  A    between atoms: C_2  and  C_4
REMARK    3  A    between atoms: C_2  and  S_19
REMARK    4  A    between atoms: C_16  and  C_17
REMARK    5  A    between atoms: C_16  and  C_18
REMARK    6  A    between atoms: S_19  and  C_20
REMARK    7  A    between atoms: C_24  and  N_26
REMARK                            x       y       z     vdW  Elec       q    Type
REMARK                         _______ _______ _______ _____ _____    ______ ____
ROOT
ATOM      1  C   UNL     1      -2.843   3.505  -0.824  0.00  0.00    +0.234 C 
ATOM      2  O   UNL     1      -3.941   3.930  -0.534  0.00  0.00    -0.274 OA
ATOM      3  N   UNL     1      -1.737   4.108  -0.344  0.00  0.00    -0.255 N 
ATOM      4  C   UNL     1      -0.456   3.637  -0.670  0.00  0.00    +0.059 A 
ATOM      5  C   UNL     1      -0.236   2.300  -0.951  0.00  0.00    +0.025 A 
ATOM      6  C   UNL     1       1.041   1.865  -1.257  0.00  0.00    +0.002 A 
ATOM      7  C   UNL     1       2.092   2.763  -1.294  0.00  0.00    +0.002 A 
ATOM      8  C   UNL     1       1.877   4.101  -1.022  0.00  0.00    +0.025 A 
ATOM      9  C   UNL     1       0.603   4.546  -0.710  0.00  0.00    +0.055 A 
ATOM     10  N   UNL     1       0.363   5.897  -0.437  0.00  0.00    -0.282 N 
ATOM     11  C   UNL     1      -0.793   6.290   0.131  0.00  0.00    +0.241 C 
ATOM     12  O   UNL     1      -0.998   7.471   0.318  0.00  0.00    -0.273 OA
ATOM     13  C   UNL     1      -1.835   5.280   0.538  0.00  0.00    +0.113 C 
ATOM     14  C   UNL     1      -1.595   4.852   1.987  0.00  0.00    +0.042 C 
ATOM     15  C   UNL     1      -3.228   5.902   0.411  0.00  0.00    +0.042 C 
ATOM     16  H   UNL     1       1.037   6.558  -0.660  0.00  0.00    +0.155 HD
ENDROOT
BRANCH   1  18
ATOM     17  C   UNL     1      -2.937   1.028  -0.904  0.00  0.00    +0.029 C 
ATOM     18  C   UNL     1      -2.715   2.301  -1.723  0.00  0.00    +0.137 C 
BRANCH  18  19
ATOM     19  S   UNL     1      -3.953   2.396  -3.039  0.00  0.00    -0.073 S 
BRANCH  19  20
ATOM     20  C   UNL     1      -3.490   0.992  -3.997  0.00  0.00    +0.192 A 
ATOM     21  N   UNL     1      -2.460   0.256  -3.607  0.00  0.00    -0.207 NA
ATOM     22  C   UNL     1      -2.085  -0.815  -4.302  0.00  0.00    +0.122 A 
ATOM     23  C   UNL     1      -2.784  -1.151  -5.458  0.00  0.00    +0.086 A 
ATOM     24  C   UNL     1      -3.858  -0.351  -5.839  0.00  0.00    +0.122 A 
ATOM     25  N   UNL     1      -4.179   0.702  -5.091  0.00  0.00    -0.207 NA
ATOM     26  N   UNL     1      -1.009  -1.583  -3.884  0.00  0.00    -0.343 N 
ATOM     27  H   UNL     1      -0.739  -2.360  -4.398  0.00  0.00    +0.144 HD
ATOM     28  H   UNL     1      -0.526  -1.343  -3.078  0.00  0.00    +0.144 HD
BRANCH  24  29
ATOM     29  N   UNL     1      -4.583  -0.648  -6.982  0.00  0.00    -0.343 N 
ATOM     30  H   UNL     1      -5.330  -0.087  -7.242  0.00  0.00    +0.144 HD
ATOM     31  H   UNL     1      -4.344  -1.417  -7.523  0.00  0.00    +0.144 HD
ENDBRANCH  24  29
ENDBRANCH  19  20
ENDBRANCH  18  19
ENDBRANCH   1  18
TORSDOF 4
