REMARK  Name = ZINC39030291
REMARK  5 active torsions:
REMARK  status: ('A' for Active; 'I' for Inactive)
REMARK    1  A    between atoms: C_1  and  C_2
REMARK    2  A    between atoms: C_8  and  C_14
REMARK    3  A    between atoms: C_14  and  S_15
REMARK    4  A    between atoms: S_15  and  C_16
REMARK    5  A    between atoms: C_22  and  N_26
REMARK                            x       y       z     vdW  Elec       q    Type
REMARK                         _______ _______ _______ _____ _____    ______ ____
ROOT
ATOM      1  S   UNL     1       1.353  -3.095   5.183  0.00  0.00    -0.086 S 
ENDROOT
BRANCH   1   2
ATOM      2  C   UNL     1       2.843  -3.003   6.118  0.00  0.00    +0.167 A 
ATOM      3  H   UNL     1       2.870  -4.824   7.151  0.00  0.00    +0.168 HD
ATOM      4  N   UNL     1       3.676  -1.991   6.112  0.00  0.00    -0.222 NA
ATOM      5  C   UNL     1       4.718  -2.252   6.944  0.00  0.00    +0.090 A 
ATOM      6  C   UNL     1       5.860  -1.534   7.306  0.00  0.00    +0.032 A 
ATOM      7  C   UNL     1       6.756  -2.078   8.199  0.00  0.00    +0.035 A 
ATOM      8  C   UNL     1       6.533  -3.334   8.742  0.00  0.00    +0.128 A 
ATOM      9  C   UNL     1       5.410  -4.057   8.395  0.00  0.00    +0.060 A 
ATOM     10  C   UNL     1       4.497  -3.524   7.498  0.00  0.00    +0.069 A 
ATOM     11  N   UNL     1       3.301  -3.975   6.963  0.00  0.00    -0.333 N 
BRANCH   8  12
ATOM     12  N   UNL     1       7.507  -3.904   9.700  0.00  0.00    +0.056 N 
ATOM     13  O   UNL     1       8.493  -3.275  10.006  0.00  0.00    -0.126 OA
ATOM     14  O   UNL     1       7.317  -4.999  10.175  0.00  0.00    -0.126 OA
ENDBRANCH   8  12
ENDBRANCH   1   2
BRANCH   1  15
ATOM     15  C   UNL     1       1.303  -1.520   4.283  0.00  0.00    +0.107 C 
BRANCH  15  23
ATOM     16  C   UNL     1      -0.018   1.503   0.010  0.00  0.00    +0.061 C 
ATOM     17  C   UNL     1       0.002  -0.004   0.002  0.00  0.00    +0.010 C 
ATOM     18  C   UNL     1       0.005  -0.662  -1.175  0.00  0.00    +0.019 C 
ATOM     19  C   UNL     1       0.025  -2.068  -1.195  0.00  0.00    +0.005 C 
ATOM     20  C   UNL     1       0.040  -2.758  -0.028  0.00  0.00    +0.043 C 
ATOM     21  C   UNL     1       0.036  -2.053   1.209  0.00  0.00    +0.122 C 
ATOM     22  N   UNL     1       0.050  -2.549   2.429  0.00  0.00    -0.262 NA
ATOM     23  C   UNL     1       0.041  -1.467   3.419  0.00  0.00    +0.149 C 
ATOM     24  C   UNL     1       0.019  -0.182   2.571  0.00  0.00    +0.172 C 
ATOM     25  N   UNL     1       0.022  -0.683   1.185  0.00  0.00    -0.274 N 
ATOM     26 BR   UNL     1       1.621   0.903   2.917  0.00  0.00    -0.065 Br
ENDBRANCH  15  23
ENDBRANCH   1  15
TORSDOF 4
