REMARK  Name = ZINC42178438
REMARK  8 active torsions:
REMARK  status: ('A' for Active; 'I' for Inactive)
REMARK    1  A    between atoms: C_1  and  C_2
REMARK    2  A    between atoms: N_10  and  C_26
REMARK    3  A    between atoms: C_11  and  S_13
REMARK    4  A    between atoms: S_13  and  C_14
REMARK    5  A    between atoms: C_14  and  C_16
REMARK    6  A    between atoms: C_14  and  C_17
REMARK    7  A    between atoms: N_22  and  C_23
REMARK    8  A    between atoms: C_23  and  C_24
REMARK                            x       y       z     vdW  Elec       q    Type
REMARK                         _______ _______ _______ _____ _____    ______ ____
ROOT
ATOM      1  S   UNL     1       0.097  -6.565   0.985  0.00  0.00    -0.075 S 
ENDROOT
BRANCH   1  12
ATOM      2  C   UNL     1      -0.018   1.503   0.010  0.00  0.00    +0.044 C 
ATOM      3  C   UNL     1       0.002  -0.004   0.002  0.00  0.00    -0.050 A 
ATOM      4  C   UNL     1       0.006  -0.684  -1.209  0.00  0.00    +0.005 A 
ATOM      5  C   UNL     1       0.024  -2.050  -1.248  0.00  0.00    +0.029 A 
ATOM      6  C   UNL     1       0.039  -2.776  -0.054  0.00  0.00    +0.079 A 
ATOM      7  C   UNL     1       0.036  -2.081   1.176  0.00  0.00    +0.065 A 
ATOM      8  C   UNL     1       0.023  -0.687   1.187  0.00  0.00    +0.018 A 
ATOM      9  C   UNL     1       0.053  -2.866   2.418  0.00  0.00    +0.262 A 
ATOM     10  O   UNL     1       0.051  -2.325   3.508  0.00  0.00    -0.267 OA
ATOM     11  N   UNL     1       0.071  -4.215   2.304  0.00  0.00    -0.290 N 
ATOM     12  C   UNL     1       0.072  -4.805   1.072  0.00  0.00    +0.173 A 
ATOM     13  N   UNL     1       0.057  -4.125  -0.047  0.00  0.00    -0.223 NA
ATOM     14  C   UNL     1       0.089  -5.046   3.510  0.00  0.00    +0.154 C 
ENDBRANCH   1  12
BRANCH   1  15
ATOM     15  C   UNL     1       0.092  -6.916  -0.795  0.00  0.00    +0.137 C 
ATOM     16  C   UNL     1       1.389  -6.398  -1.420  0.00  0.00    +0.029 C 
BRANCH  15  17
ATOM     17  C   UNL     1      -0.012  -8.403  -1.013  0.00  0.00    +0.233 C 
ATOM     18  O   UNL     1       0.282  -9.169  -0.121  0.00  0.00    -0.274 OA
ATOM     19  N   UNL     1      -0.433  -8.882  -2.201  0.00  0.00    -0.239 N 
ATOM     20  C   UNL     1      -0.526 -10.213  -2.396  0.00  0.00    +0.306 C 
ATOM     21  O   UNL     1      -0.231 -10.980  -1.501  0.00  0.00    -0.252 OA
ATOM     22  N   UNL     1      -0.947 -10.691  -3.583  0.00  0.00    -0.296 N 
ATOM     23  H   UNL     1      -0.669  -8.270  -2.915  0.00  0.00    +0.159 HD
ATOM     24  H   UNL     1      -1.183 -10.079  -4.298  0.00  0.00    +0.151 HD
BRANCH  22  25
ATOM     25  C   UNL     1      -1.049 -12.137  -3.796  0.00  0.00    +0.132 C 
BRANCH  25  26
ATOM     26  C   UNL     1      -1.539 -12.406  -5.195  0.00  0.00    -0.016 C 
ATOM     27  C   UNL     1      -0.847 -13.181  -5.994  0.00  0.00    +0.005 C 
ENDBRANCH  25  26
ENDBRANCH  22  25
ENDBRANCH  15  17
ENDBRANCH   1  15
TORSDOF 5
