REMARK  Name = ZINC35966980
REMARK  8 active torsions:
REMARK  status: ('A' for Active; 'I' for Inactive)
REMARK    1  A    between atoms: C_1  and  C_2
REMARK    2  A    between atoms: C_5  and  C_8
REMARK    3  A    between atoms: N_13  and  C_16
REMARK    4  A    between atoms: C_16  and  C_17
REMARK    5  A    between atoms: N_19  and  C_20
REMARK    6  A    between atoms: C_20  and  C_21
REMARK    7  A    between atoms: C_21  and  C_22
REMARK    8  A    between atoms: N_28  and  C_32
REMARK                            x       y       z     vdW  Elec       q    Type
REMARK                         _______ _______ _______ _____ _____    ______ ____
ROOT
ATOM      1  C   UNL     1       0.059  -4.275  -0.021  0.00  0.00    +0.142 C 
ATOM      2  C   UNL     1      -1.366  -4.762   0.144  0.00  0.00    +0.058 C 
ATOM      3  C   UNL     1      -1.637  -5.564   1.194  0.00  0.00    +0.042 C 
ATOM      4  C   UNL     1      -3.111  -5.890   1.111  0.00  0.00    +0.160 C 
ATOM      5  N   UNL     1      -3.589  -5.180  -0.084  0.00  0.00    -0.283 N 
ATOM      6  C   UNL     1      -2.533  -4.536  -0.614  0.00  0.00    +0.247 C 
ATOM      7  O   UNL     1      -2.579  -3.848  -1.617  0.00  0.00    -0.270 OA
ATOM      8  N   UNL     1      -0.660  -5.927   2.077  0.00  0.00    -0.260 N 
ATOM      9  C   UNL     1       0.614  -5.528   1.979  0.00  0.00    +0.307 C 
ATOM     10  O   UNL     1       1.414  -5.903   2.813  0.00  0.00    -0.252 OA
ATOM     11  N   UNL     1       1.037  -4.722   0.985  0.00  0.00    -0.288 N 
ATOM     12  C   UNL     1      -1.028  -6.802   3.194  0.00  0.00    +0.139 C 
ATOM     13  H   UNL     1       1.965  -4.445   0.933  0.00  0.00    +0.151 HD
ENDROOT
BRANCH   1  18
ATOM     14  C   UNL     1      -0.018   1.503   0.010  0.00  0.00    +0.044 C 
ATOM     15  C   UNL     1       0.002  -0.004   0.002  0.00  0.00    -0.050 A 
ATOM     16  C   UNL     1       0.006  -0.689  -1.199  0.00  0.00    +0.004 A 
ATOM     17  C   UNL     1       0.025  -2.071  -1.206  0.00  0.00    +0.006 A 
ATOM     18  C   UNL     1       0.040  -2.768  -0.013  0.00  0.00    -0.023 A 
ATOM     19  C   UNL     1       0.037  -2.084   1.188  0.00  0.00    +0.006 A 
ATOM     20  C   UNL     1       0.023  -0.702   1.195  0.00  0.00    +0.004 A 
ENDBRANCH   1  18
BRANCH   5  21
ATOM     21  C   UNL     1      -4.959  -5.175  -0.602  0.00  0.00    +0.204 C 
BRANCH  21  22
ATOM     22  C   UNL     1      -5.725  -4.033   0.015  0.00  0.00    +0.230 C 
ATOM     23  O   UNL     1      -5.180  -3.297   0.810  0.00  0.00    -0.274 OA
ATOM     24  N   UNL     1      -7.016  -3.831  -0.316  0.00  0.00    -0.314 N 
ATOM     25  H   UNL     1      -7.452  -4.420  -0.951  0.00  0.00    +0.149 HD
BRANCH  24  26
ATOM     26  C   UNL     1      -7.761  -2.721   0.285  0.00  0.00    +0.110 C 
BRANCH  26  27
ATOM     27  C   UNL     1      -9.192  -2.716  -0.256  0.00  0.00    +0.074 C 
BRANCH  27  28
ATOM     28  C   UNL     1      -9.958  -1.574   0.361  0.00  0.00    +0.043 A 
ATOM     29  C   UNL     1     -10.589  -0.654  -0.455  0.00  0.00    +0.023 A 
ATOM     30  C   UNL     1     -11.291   0.392   0.123  0.00  0.00    +0.003 A 
ATOM     31  C   UNL     1     -11.332   0.474   1.507  0.00  0.00    +0.020 A 
ATOM     32  C   UNL     1     -10.677  -0.483   2.258  0.00  0.00    +0.111 A 
ATOM     33  N   UNL     1     -10.023  -1.468   1.674  0.00  0.00    -0.260 NA
ENDBRANCH  27  28
ENDBRANCH  26  27
ENDBRANCH  24  26
ENDBRANCH  21  22
ENDBRANCH   5  21
TORSDOF 6
