REMARK  Name = ZINC53045100
REMARK  5 active torsions:
REMARK  status: ('A' for Active; 'I' for Inactive)
REMARK    1  A    between atoms: C_2  and  N_17
REMARK    2  A    between atoms: C_6  and  C_7
REMARK    3  A    between atoms: N_9  and  C_10
REMARK    4  A    between atoms: C_10  and  C_15
REMARK    5  A    between atoms: C_15  and  O_16
REMARK                            x       y       z     vdW  Elec       q    Type
REMARK                         _______ _______ _______ _____ _____    ______ ____
ROOT
ATOM      1  C   UNL     1      -1.710  -2.253   2.245  0.00  0.00    +0.046 A 
ATOM      2  C   UNL     1      -1.230  -3.154   3.188  0.00  0.00    +0.044 A 
ATOM      3  C   UNL     1       0.047  -3.679   3.039  0.00  0.00    +0.135 A 
ATOM      4  N   UNL     1       0.810  -3.337   2.019  0.00  0.00    -0.237 NA
ATOM      5  C   UNL     1       0.400  -2.484   1.095  0.00  0.00    +0.137 A 
ATOM      6  C   UNL     1      -0.879  -1.908   1.173  0.00  0.00    +0.093 A 
ATOM      7  N   UNL     1       1.240  -2.155   0.041  0.00  0.00    -0.320 N 
ATOM      8  H   UNL     1       0.916  -1.592  -0.679  0.00  0.00    +0.148 HD
ENDROOT
BRANCH   7   9
ATOM      9  C   UNL     1       2.615  -2.659   0.015  0.00  0.00    +0.056 C 
ATOM     10  C   UNL     1       3.346  -2.175  -1.262  0.00  0.00    +0.028 C 
ATOM     11  C   UNL     1       2.846  -3.169  -2.340  0.00  0.00    +0.002 C 
ATOM     12  C   UNL     1       2.771  -4.521  -1.601  0.00  0.00    +0.002 C 
ATOM     13  C   UNL     1       2.624  -4.197  -0.104  0.00  0.00    +0.028 C 
BRANCH   9  14
ATOM     14  C   UNL     1       3.370  -2.215   1.269  0.00  0.00    +0.181 C 
BRANCH  14  15
ATOM     15  O   UNL     1       3.293  -0.793   1.393  0.00  0.00    -0.393 OA
ATOM     16  H   UNL     1       3.752  -0.441   2.168  0.00  0.00    +0.209 HD
ENDBRANCH  14  15
ENDBRANCH   9  14
ENDBRANCH   7   9
BRANCH   2  17
ATOM     17  N   UNL     1      -2.026  -3.528   4.278  0.00  0.00    -0.357 N 
ATOM     18  H   UNL     1      -2.917  -3.158   4.378  0.00  0.00    +0.142 HD
ATOM     19  H   UNL     1      -1.686  -4.157   4.933  0.00  0.00    +0.142 HD
ENDBRANCH   2  17
BRANCH   6  20
ATOM     20  C   UNL     1      -1.325  -0.985   0.174  0.00  0.00    +0.103 C 
ATOM     21  N   UNL     1      -1.678  -0.252  -0.619  0.00  0.00    -0.191 NA
ENDBRANCH   6  20
TORSDOF 5
