REMARK  Name = ZINC59878433
REMARK  9 active torsions:
REMARK  status: ('A' for Active; 'I' for Inactive)
REMARK    1  A    between atoms: C_1  and  C_2
REMARK    2  A    between atoms: C_2  and  C_4
REMARK    3  A    between atoms: C_2  and  S_14
REMARK    4  A    between atoms: N_6  and  N_7
REMARK    5  A    between atoms: C_8  and  C_10
REMARK    6  A    between atoms: S_14  and  C_15
REMARK    7  A    between atoms: N_21  and  N_22
REMARK    8  A    between atoms: C_23  and  C_24
REMARK    9  A    between atoms: C_27  and  N_30
REMARK                            x       y       z     vdW  Elec       q    Type
REMARK                         _______ _______ _______ _____ _____    ______ ____
ROOT
ATOM      1  C   UNL     1      -2.335  -0.110   1.573  0.00  0.00    +0.187 A 
ATOM      2  N   UNL     1      -3.577  -0.350   2.045  0.00  0.00    -0.252 N 
ATOM      3  H   UNL     1      -4.285  -0.838   1.595  0.00  0.00    +0.191 HD
ATOM      4  N   UNL     1      -3.643   0.246   3.315  0.00  0.00    -0.134 NA
ATOM      5  C   UNL     1      -2.474   0.798   3.539  0.00  0.00    +0.255 A 
ATOM      6  N   UNL     1      -1.680   0.578   2.485  0.00  0.00    -0.187 NA
ATOM      7  N   UNL     1      -2.116   1.497   4.691  0.00  0.00    -0.204 N 
ATOM      8  H   UNL     1      -1.226   1.874   4.773  0.00  0.00    +0.177 HD
ENDROOT
BRANCH   7   9
ATOM      9  N   UNL     1      -3.042   1.654   5.731  0.00  0.00    -0.188 NA
ATOM     10  C   UNL     1      -2.708   2.305   6.804  0.00  0.00    +0.138 C 
BRANCH  10  11
ATOM     11  C   UNL     1      -3.682   2.471   7.899  0.00  0.00    -0.005 A 
ATOM     12  C   UNL     1      -4.963   1.924   7.787  0.00  0.00    +0.012 A 
ATOM     13  C   UNL     1      -5.869   2.083   8.815  0.00  0.00    +0.033 A 
ATOM     14  C   UNL     1      -5.512   2.782   9.954  0.00  0.00    +0.126 A 
ATOM     15  C   UNL     1      -4.245   3.327  10.071  0.00  0.00    +0.033 A 
ATOM     16  C   UNL     1      -3.327   3.170   9.055  0.00  0.00    +0.012 A 
BRANCH  14  17
ATOM     17  N   UNL     1      -6.491   2.949  11.053  0.00  0.00    +0.056 N 
ATOM     18  O   UNL     1      -7.598   2.475  10.954  0.00  0.00    -0.126 OA
ATOM     19  O   UNL     1      -6.182   3.560  12.050  0.00  0.00    -0.126 OA
ENDBRANCH  14  17
ENDBRANCH  10  11
ENDBRANCH   7   9
BRANCH   1  20
ATOM     20  S   UNL     1      -1.700  -0.632   0.015  0.00  0.00    -0.074 S 
BRANCH  20  22
ATOM     21  C   UNL     1      -0.019   1.526   0.010  0.00  0.00    +0.029 C 
ATOM     22  C   UNL     1       0.002  -0.004   0.002  0.00  0.00    +0.138 C 
BRANCH  22  23
ATOM     23  C   UNL     1       0.707  -0.490  -1.238  0.00  0.00    +0.242 C 
ATOM     24  O   UNL     1       0.066  -0.782  -2.225  0.00  0.00    -0.273 OA
ATOM     25  N   UNL     1       2.051  -0.601  -1.250  0.00  0.00    -0.233 N 
ATOM     26  H   UNL     1       2.563  -0.367  -0.460  0.00  0.00    +0.173 HD
BRANCH  25  27
ATOM     27  N   UNL     1       2.706  -1.052  -2.402  0.00  0.00    -0.234 N 
ATOM     28  C   UNL     1       4.050  -1.163  -2.414  0.00  0.00    +0.232 C 
ATOM     29  O   UNL     1       4.691  -0.871  -1.426  0.00  0.00    -0.274 OA
ATOM     30  H   UNL     1       2.194  -1.286  -3.192  0.00  0.00    +0.173 HD
BRANCH  28  31
ATOM     31  C   UNL     1       4.755  -1.649  -3.654  0.00  0.00    +0.076 C 
ATOM     32  C   UNL     1       4.986  -0.548  -4.703  0.00  0.00    +0.013 C 
ATOM     33  C   UNL     1       6.319  -0.260  -3.992  0.00  0.00    +0.001 C 
ATOM     34  C   UNL     1       6.284  -1.718  -3.505  0.00  0.00    +0.013 C 
ENDBRANCH  28  31
ENDBRANCH  25  27
ENDBRANCH  22  23
ENDBRANCH  20  22
ENDBRANCH   1  20
TORSDOF 8
