REMARK  Name = ZINC63796258
REMARK  5 active torsions:
REMARK  status: ('A' for Active; 'I' for Inactive)
REMARK    1  A    between atoms: C_7  and  C_10
REMARK    2  A    between atoms: C_10  and  C_11
REMARK    3  A    between atoms: C_11  and  N_12
REMARK    4  A    between atoms: C_13  and  C_15
REMARK    5  A    between atoms: C_18  and  N_21
REMARK                            x       y       z     vdW  Elec       q    Type
REMARK                         _______ _______ _______ _____ _____    ______ ____
ROOT
ATOM      1  N   UNL     1      -0.965  -4.457  -1.458  0.00  0.00    -0.311 N 
ATOM      2  C   UNL     1      -1.050  -5.210  -2.572  0.00  0.00    +0.244 C 
ATOM      3  O   UNL     1      -0.428  -4.894  -3.568  0.00  0.00    -0.270 OA
ATOM      4  H   UNL     1      -1.461  -4.709  -0.663  0.00  0.00    +0.149 HD
ENDROOT
BRANCH   2   5
ATOM      5  C   UNL     1      -1.897  -6.418  -2.584  0.00  0.00    +0.037 A 
ATOM      6  C   UNL     1      -2.617  -6.780  -1.442  0.00  0.00    +0.015 A 
ATOM      7  C   UNL     1      -3.406  -7.907  -1.456  0.00  0.00    +0.024 A 
ATOM      8  C   UNL     1      -3.488  -8.687  -2.606  0.00  0.00    +0.035 A 
ATOM      9  C   UNL     1      -2.772  -8.330  -3.744  0.00  0.00    +0.024 A 
ATOM     10  C   UNL     1      -1.985  -7.200  -3.739  0.00  0.00    +0.015 A 
BRANCH   8  11
ATOM     11  N   UNL     1      -4.289  -9.828  -2.617  0.00  0.00    -0.269 N 
ATOM     12  C   UNL     1      -4.762 -10.308  -3.784  0.00  0.00    +0.307 C 
ATOM     13  O   UNL     1      -4.360  -9.851  -4.837  0.00  0.00    -0.252 OA
ATOM     14  N   UNL     1      -5.681 -11.294  -3.784  0.00  0.00    -0.281 N 
ATOM     15  C   UNL     1      -6.317 -11.737  -2.533  0.00  0.00    +0.137 C 
ATOM     16  C   UNL     1      -7.836 -11.745  -2.738  0.00  0.00    +0.179 C 
ATOM     17  O   UNL     1      -8.148 -12.499  -3.912  0.00  0.00    -0.377 OA
ATOM     18  C   UNL     1      -7.610 -11.955  -5.119  0.00  0.00    +0.179 C 
ATOM     19  C   UNL     1      -6.083 -11.954  -5.036  0.00  0.00    +0.137 C 
ATOM     20  H   UNL     1      -4.505 -10.277  -1.784  0.00  0.00    +0.156 HD
ENDBRANCH   8  11
ENDBRANCH   2   5
BRANCH   1  21
ATOM     21  C   UNL     1      -0.124  -3.257  -1.446  0.00  0.00    +0.109 C 
BRANCH  21  22
ATOM     22  C   UNL     1      -0.205  -2.591  -0.071  0.00  0.00    +0.052 C 
BRANCH  22  29
ATOM     23  C   UNL     1      -1.120   1.844  -0.818  0.00  0.00    +0.001 A 
ATOM     24  C   UNL     1       0.002   2.676  -0.705  0.00  0.00    +0.002 A 
ATOM     25  C   UNL     1       1.231   2.206  -0.404  0.00  0.00    +0.026 A 
ATOM     26  C   UNL     1       1.435   0.815  -0.186  0.00  0.00    +0.043 A 
ATOM     27  N   UNL     1       2.511   0.127   0.112  0.00  0.00    -0.380 N 
ATOM     28  C   UNL     1       2.144  -1.289   0.222  0.00  0.00    +0.144 C 
ATOM     29  C   UNL     1       0.660  -1.357  -0.060  0.00  0.00    -0.040 C 
ATOM     30  C   UNL     1       0.266  -0.085  -0.299  0.00  0.00    -0.001 A 
ATOM     31  C   UNL     1      -1.036   0.507  -0.629  0.00  0.00    +0.010 A 
ATOM     32  H   UNL     1       3.400   0.493   0.238  0.00  0.00    +0.160 HD
ENDBRANCH  22  29
ENDBRANCH  21  22
ENDBRANCH   1  21
TORSDOF 5
