REMARK  Name = ZINC13241873
REMARK  9 active torsions:
REMARK  status: ('A' for Active; 'I' for Inactive)
REMARK    1  A    between atoms: C_1  and  C_2
REMARK    2  A    between atoms: C_3  and  C_29
REMARK    3  A    between atoms: N_9  and  C_26
REMARK    4  A    between atoms: C_10  and  S_12
REMARK    5  A    between atoms: S_12  and  C_13
REMARK    6  A    between atoms: C_13  and  C_14
REMARK    7  A    between atoms: N_16  and  C_17
REMARK    8  A    between atoms: C_22  and  C_23
REMARK    9  A    between atoms: C_26  and  C_27
REMARK                            x       y       z     vdW  Elec       q    Type
REMARK                         _______ _______ _______ _____ _____    ______ ____
ROOT
ATOM      1  S   UNL     1      -0.824   1.687   1.493  0.00  0.00    -0.078 S 
ENDROOT
BRANCH   1  11
ATOM      2  C   UNL     1       2.735  -0.637   7.007  0.00  0.00    +0.045 C 
ATOM      3  C   UNL     1       2.850  -0.730   5.507  0.00  0.00    -0.026 A 
ATOM      4  C   UNL     1       3.860  -1.411   4.946  0.00  0.00    -0.008 A 
ATOM      5  S   UNL     1       3.561  -1.229   3.197  0.00  0.00    -0.073 S 
ATOM      6  C   UNL     1       2.087  -0.243   3.271  0.00  0.00    +0.117 A 
ATOM      7  C   UNL     1       1.869  -0.083   4.653  0.00  0.00    +0.075 A 
ATOM      8  C   UNL     1       0.721   0.690   5.016  0.00  0.00    +0.263 A 
ATOM      9  O   UNL     1       0.453   0.882   6.190  0.00  0.00    -0.267 OA
ATOM     10  N   UNL     1      -0.058   1.201   4.046  0.00  0.00    -0.283 N 
ATOM     11  C   UNL     1       0.227   0.997   2.727  0.00  0.00    +0.173 A 
ATOM     12  N   UNL     1       1.275   0.285   2.364  0.00  0.00    -0.216 NA
ATOM     13  C   UNL     1       4.980  -2.152   5.629  0.00  0.00    +0.052 C 
BRANCH  10  14
ATOM     14  C   UNL     1      -1.235   1.993   4.412  0.00  0.00    +0.154 C 
BRANCH  14  15
ATOM     15  C   UNL     1      -2.429   1.083   4.550  0.00  0.00    -0.013 C 
ATOM     16  C   UNL     1      -3.123   1.077   5.661  0.00  0.00    +0.005 C 
ENDBRANCH  14  15
ENDBRANCH  10  14
ENDBRANCH   1  11
BRANCH   1  17
ATOM     17  C   UNL     1       0.020   1.108   0.001  0.00  0.00    +0.173 C 
BRANCH  17  18
ATOM     18  C   UNL     1      -0.724   1.592  -1.217  0.00  0.00    +0.228 C 
ATOM     19  O   UNL     1      -1.726   2.264  -1.089  0.00  0.00    -0.275 OA
ATOM     20  N   UNL     1      -0.275   1.280  -2.449  0.00  0.00    -0.284 N 
ATOM     21  H   UNL     1       0.560   0.798  -2.553  0.00  0.00    +0.155 HD
BRANCH  20  22
ATOM     22  C   UNL     1      -1.012   1.648  -3.572  0.00  0.00    +0.050 A 
ATOM     23  C   UNL     1      -1.712   2.845  -3.584  0.00  0.00    +0.062 A 
ATOM     24  C   UNL     1      -2.439   3.212  -4.703  0.00  0.00    +0.125 A 
ATOM     25  C   UNL     1      -2.481   2.381  -5.815  0.00  0.00    +0.039 A 
ATOM     26  C   UNL     1      -1.795   1.188  -5.818  0.00  0.00    +0.020 A 
ATOM     27  C   UNL     1      -1.052   0.807  -4.696  0.00  0.00    +0.084 A 
ATOM     28  F   UNL     1      -3.115   4.381  -4.711  0.00  0.00    -0.205 F 
BRANCH  27  29
ATOM     29  C   UNL     1      -0.317  -0.468  -4.693  0.00  0.00    +0.388 C 
ATOM     30  O   UNL     1       0.247  -0.842  -3.683  0.00  0.00    -0.241 OA
ATOM     31  O   UNL     1      -0.269  -1.221  -5.810  0.00  0.00    -0.241 OA
ENDBRANCH  27  29
ENDBRANCH  20  22
ENDBRANCH  17  18
ENDBRANCH   1  17
TORSDOF 7
