REMARK  Name = ZINC02125673
REMARK  6 active torsions:
REMARK  status: ('A' for Active; 'I' for Inactive)
REMARK    1  A    between atoms: C_1  and  C_2
REMARK    2  A    between atoms: C_2  and  O_3
REMARK    3  A    between atoms: O_3  and  C_4
REMARK    4  A    between atoms: C_6  and  C_11
REMARK    5  A    between atoms: C_9  and  O_10
REMARK    6  A    between atoms: CA_24  and  C_26
REMARK                            x       y       z     vdW  Elec       q    Type
REMARK                         _______ _______ _______ _____ _____    ______ ____
ROOT
ATOM      1  C   UNL     1       2.543   1.330  -0.016  0.00  0.00    +0.008 C 
ATOM      2  C   UNL     1       1.097   1.768   0.001  0.00  0.00    +0.010 A 
ATOM      3  C   UNL     1       0.721   3.067   0.011  0.00  0.00    -0.021 A 
ATOM      4  C   UNL     1      -0.724   3.094   0.023  0.00  0.00    +0.003 A 
ATOM      5  C   UNL     1      -1.656   4.136   0.035  0.00  0.00    +0.010 A 
ATOM      6  C   UNL     1      -2.983   3.783   0.033  0.00  0.00    +0.001 A 
ATOM      7  C   UNL     1      -3.393   2.460   0.031  0.00  0.00    +0.002 A 
ATOM      8  C   UNL     1      -2.493   1.408   0.022  0.00  0.00    +0.026 A 
ATOM      9  C   UNL     1      -1.139   1.736   0.016  0.00  0.00    +0.047 A 
ATOM     10  N   UNL     1      -0.011   0.966   0.007  0.00  0.00    -0.359 N 
ATOM     11  H   UNL     1       0.002  -0.004   0.002  0.00  0.00    +0.166 HD
ATOM     12  C   UNL     1       1.698   4.216   0.009  0.00  0.00    +0.033 C 
ATOM     13  CA  UNL     1       3.079   3.665   0.393  0.00  0.00    +0.049 C 
ATOM     14  N   UNL     1       3.382   2.475  -0.430  0.00  0.00    +0.396 N 
ATOM     15  H1  UNL     1       3.197   2.691  -1.417  0.00  0.00    -0.083 HD
ATOM     16  H2  UNL     1       4.372   2.228  -0.313  0.00  0.00    -0.083 HD
ENDROOT
BRANCH   1  19
ATOM     17  C   UNL     1       2.937  -2.138  -1.462  0.00  0.00    +0.162 A 
ATOM     18  C   UNL     1       2.780  -1.102  -0.556  0.00  0.00    +0.051 A 
ATOM     19  C   UNL     1       2.719   0.205  -1.003  0.00  0.00    -0.052 A 
ATOM     20  C   UNL     1       2.824   0.482  -2.353  0.00  0.00    +0.006 A 
ATOM     21  C   UNL     1       2.986  -0.547  -3.263  0.00  0.00    +0.049 A 
ATOM     22  C   UNL     1       3.043  -1.859  -2.821  0.00  0.00    +0.158 A 
BRANCH  22  23
ATOM     23  O   UNL     1       3.202  -2.872  -3.715  0.00  0.00    -0.503 OA
ATOM     24  H   UNL     1       4.126  -3.099  -3.891  0.00  0.00    +0.292 HD
ENDBRANCH  22  23
BRANCH  17  25
ATOM     25  O   UNL     1       2.993  -3.424  -1.024  0.00  0.00    -0.489 OA
BRANCH  25  27
ATOM     26  C   UNL     1       2.962  -5.133   0.684  0.00  0.00    +0.048 C 
ATOM     27  C   UNL     1       2.878  -3.635   0.385  0.00  0.00    +0.226 C 
ENDBRANCH  25  27
ENDBRANCH  17  25
ENDBRANCH   1  19
BRANCH  13  28
ATOM     28  C   UNL     1       4.128   4.717   0.142  0.00  0.00    +0.343 C 
ATOM     29  O   UNL     1       4.802   4.671  -0.859  0.00  0.00    -0.248 OA
ATOM     30  OXT UNL     1       4.312   5.705   1.031  0.00  0.00    -0.248 OA
ENDBRANCH  13  28
TORSDOF 5
