REMARK  Name = ZINC39362303
REMARK  11 active torsions:
REMARK  status: ('A' for Active; 'I' for Inactive)
REMARK    1  A    between atoms: C_1  and  C_2
REMARK    2  A    between atoms: C_4  and  C_36
REMARK    3  A    between atoms: C_6  and  N_8
REMARK    4  A    between atoms: C_9  and  C_11
REMARK    5  A    between atoms: C_11  and  S_12
REMARK    6  A    between atoms: S_12  and  C_13
REMARK    7  A    between atoms: C_16  and  C_27
REMARK    8  A    between atoms: N_18  and  C_19
REMARK    9  A    between atoms: C_22  and  O_25
REMARK   10  A    between atoms: O_25  and  C_26
REMARK   11  A    between atoms: C_27  and  C_28
REMARK                            x       y       z     vdW  Elec       q    Type
REMARK                         _______ _______ _______ _____ _____    ______ ____
ROOT
ATOM      1  C   UNL     1       0.305  -2.781   7.703  0.00  0.00    +0.180 C 
ATOM      2  N   UNL     1       0.393  -4.067   7.642  0.00  0.00    -0.162 NA
ATOM      3  N   UNL     1       0.807  -4.610   8.864  0.00  0.00    -0.246 N 
ATOM      4  C   UNL     1       0.989  -3.470   9.780  0.00  0.00    +0.187 C 
ATOM      5  N   UNL     1       0.649  -2.297   8.957  0.00  0.00    -0.258 N 
ATOM      6  H   UNL     1       0.946  -5.548   9.068  0.00  0.00    +0.170 HD
ENDROOT
BRANCH   5   7
ATOM      7  C   UNL     1       0.667  -0.958   9.361  0.00  0.00    +0.038 A 
ATOM      8  C   UNL     1      -0.237  -0.507  10.314  0.00  0.00    +0.027 A 
ATOM      9  C   UNL     1      -0.219   0.815  10.712  0.00  0.00    +0.047 A 
ATOM     10  C   UNL     1       0.704   1.693  10.162  0.00  0.00    +0.120 A 
ATOM     11  C   UNL     1       1.607   1.244   9.210  0.00  0.00    +0.047 A 
ATOM     12  C   UNL     1       1.594  -0.079   8.814  0.00  0.00    +0.027 A 
BRANCH  10  13
ATOM     13  O   UNL     1       0.721   2.994  10.555  0.00  0.00    -0.495 OA
ATOM     14  C   UNL     1       1.698   3.843   9.947  0.00  0.00    +0.277 C 
ENDBRANCH  10  13
ENDBRANCH   5   7
BRANCH   1  15
ATOM     15  S   UNL     1      -0.188  -1.761   6.353  0.00  0.00    -0.079 S 
BRANCH  15  16
ATOM     16  C   UNL     1      -0.505  -2.936   5.008  0.00  0.00    +0.173 C 
BRANCH  16  18
ATOM     17  N   UNL     1      -1.233  -2.856   2.645  0.00  0.00    -0.285 N 
ATOM     18  C   UNL     1      -0.940  -2.184   3.776  0.00  0.00    +0.227 C 
ATOM     19  O   UNL     1      -1.027  -0.975   3.803  0.00  0.00    -0.275 OA
ATOM     20  H   UNL     1      -1.236  -3.826   2.644  0.00  0.00    +0.155 HD
BRANCH  17  26
ATOM     21  C   UNL     1      -3.721  -2.544  -1.584  0.00  0.00    +0.044 C 
ATOM     22  C   UNL     1      -2.733  -1.980  -0.596  0.00  0.00    -0.048 A 
ATOM     23  C   UNL     1      -2.119  -0.767  -0.849  0.00  0.00    +0.006 A 
ATOM     24  C   UNL     1      -1.212  -0.246   0.056  0.00  0.00    -0.048 A 
ATOM     25  C   UNL     1      -0.916  -0.936   1.215  0.00  0.00    +0.026 A 
ATOM     26  C   UNL     1      -1.531  -2.154   1.472  0.00  0.00    +0.034 A 
ATOM     27  C   UNL     1      -2.445  -2.672   0.564  0.00  0.00    +0.026 A 
ATOM     28  C   UNL     1      -0.545   1.077  -0.225  0.00  0.00    +0.044 C 
ENDBRANCH  17  26
ENDBRANCH  16  18
ENDBRANCH  15  16
ENDBRANCH   1  15
BRANCH   4  29
ATOM     29  C   UNL     1       2.441  -3.389  10.254  0.00  0.00    +0.097 C 
BRANCH  29  30
ATOM     30  C   UNL     1       2.795  -4.645  11.008  0.00  0.00    +0.029 A 
ATOM     31  N   UNL     1       2.500  -4.753  12.340  0.00  0.00    -0.311 N 
ATOM     32  C   UNL     1       2.811  -5.870  13.022  0.00  0.00    +0.327 A 
ATOM     33  O   UNL     1       2.540  -5.946  14.204  0.00  0.00    -0.247 OA
ATOM     34  N   UNL     1       3.418  -6.906  12.413  0.00  0.00    -0.275 N 
ATOM     35  C   UNL     1       3.726  -6.838  11.102  0.00  0.00    +0.254 A 
ATOM     36  O   UNL     1       4.275  -7.775  10.550  0.00  0.00    -0.268 OA
ATOM     37  C   UNL     1       3.400  -5.670  10.371  0.00  0.00    +0.091 A 
ATOM     38  H   UNL     1       3.635  -7.704  12.920  0.00  0.00    +0.173 HD
ATOM     39  H   UNL     1       2.062  -4.018  12.796  0.00  0.00    +0.170 HD
ENDBRANCH  29  30
ENDBRANCH   4  29
TORSDOF 8
