REMARK  Name = ZINC01758404
REMARK  13 active torsions:
REMARK  status: ('A' for Active; 'I' for Inactive)
REMARK    1  A    between atoms: C_1  and  C_2
REMARK    2  A    between atoms: C_4  and  O_47
REMARK    3  A    between atoms: C_14  and  C_15
REMARK    4  A    between atoms: C_14  and  O_36
REMARK    5  A    between atoms: C_15  and  C_17
REMARK    6  A    between atoms: C_17  and  O_18
REMARK    7  A    between atoms: O_18  and  C_19
REMARK    8  A    between atoms: C_19  and  C_21
REMARK    9  A    between atoms: C_21  and  C_22
REMARK   10  A    between atoms: C_22  and  C_23
REMARK   11  A    between atoms: N_25  and  C_26
REMARK   12  A    between atoms: C_26  and  C_27
REMARK   13  A    between atoms: C_45  and  C_46
REMARK                            x       y       z     vdW  Elec       q    Type
REMARK                         _______ _______ _______ _____ _____    ______ ____
ROOT
ATOM      1  C   UNL     1      -0.214   1.674  -0.035  0.00  0.00    +0.015 C 
ATOM      2  C   UNL     1      -0.110   0.148  -0.067  0.00  0.00    +0.009 C 
ATOM      3  C   UNL     1       0.576  -0.273  -1.346  0.00  0.00    +0.041 C 
ATOM      4  C   UNL     1       0.839  -1.777  -1.358  0.00  0.00    +0.120 C 
ATOM      5  C   UNL     1       1.734  -2.128  -0.162  0.00  0.00    +0.035 C 
ATOM      6  C   UNL     1       0.997  -1.774   1.127  0.00  0.00    -0.000 C 
ATOM      7  C   UNL     1       0.630  -0.328   1.195  0.00  0.00    +0.002 C 
ATOM      8  C   UNL     1      -0.479  -0.193   2.280  0.00  0.00    +0.008 C 
ATOM      9  C   UNL     1      -1.761  -0.663   1.559  0.00  0.00    +0.043 C 
ATOM     10  C   UNL     1      -1.519  -0.449   0.051  0.00  0.00    +0.133 C 
ATOM     11  C   UNL     1       1.860  -2.127   2.342  0.00  0.00    +0.008 C 
ATOM     12  C   UNL     1       2.111  -3.637   2.383  0.00  0.00    +0.032 C 
ATOM     13  C   UNL     1       2.726  -4.043   1.057  0.00  0.00    -0.056 C 
ATOM     14  C   UNL     1       3.854  -4.739   1.057  0.00  0.00    +0.051 C 
ATOM     15  C   UNL     1       4.489  -5.133  -0.211  0.00  0.00    +0.179 C 
ATOM     16  O   UNL     1       5.503  -5.806  -0.216  0.00  0.00    -0.288 OA
ATOM     17  C   UNL     1       3.870  -4.694  -1.473  0.00  0.00    +0.047 C 
ATOM     18  C   UNL     1       2.740  -4.004  -1.448  0.00  0.00    -0.012 C 
ATOM     19  C   UNL     1       2.037  -3.630  -0.213  0.00  0.00    +0.013 C 
ATOM     20  C   UNL     1       0.699  -4.371  -0.257  0.00  0.00    +0.020 C 
ENDROOT
BRANCH  10  21
ATOM     21  C   UNL     1      -1.587  -1.766  -0.678  0.00  0.00    +0.202 C 
ATOM     22  O   UNL     1      -1.416  -2.799  -0.077  0.00  0.00    -0.291 OA
BRANCH  21  23
ATOM     23  C   UNL     1      -1.869  -1.794  -2.159  0.00  0.00    +0.309 C 
BRANCH  23  24
ATOM     24  O   UNL     1      -2.018  -3.148  -2.590  0.00  0.00    -0.457 OA
BRANCH  24  25
ATOM     25  C   UNL     1      -2.275  -3.348  -3.892  0.00  0.00    +0.308 C 
ATOM     26  O   UNL     1      -2.371  -2.405  -4.641  0.00  0.00    -0.251 OA
BRANCH  25  27
ATOM     27  C   UNL     1      -2.445  -4.750  -4.420  0.00  0.00    +0.130 C 
BRANCH  27  28
ATOM     28  C   UNL     1      -2.728  -4.698  -5.923  0.00  0.00    +0.107 C 
BRANCH  28  29
ATOM     29  C   UNL     1      -2.897  -6.099  -6.450  0.00  0.00    +0.214 C 
ATOM     30  O   UNL     1      -2.801  -7.046  -5.699  0.00  0.00    -0.276 OA
ATOM     31  N   UNL     1      -3.155  -6.300  -7.758  0.00  0.00    -0.311 N 
ATOM     32  H   UNL     1      -3.232  -5.543  -8.359  0.00  0.00    +0.149 HD
BRANCH  31  33
ATOM     33  C   UNL     1      -3.320  -7.662  -8.271  0.00  0.00    +0.143 C 
BRANCH  33  34
ATOM     34  C   UNL     1      -3.599  -7.611  -9.751  0.00  0.00    +0.015 A 
ATOM     35  C   UNL     1      -4.896  -7.732 -10.215  0.00  0.00    +0.009 A 
ATOM     36  C   UNL     1      -5.155  -7.686 -11.572  0.00  0.00    +0.004 A 
ATOM     37  C   UNL     1      -4.118  -7.518 -12.471  0.00  0.00    +0.049 A 
ATOM     38  C   UNL     1      -2.816  -7.396 -12.014  0.00  0.00    +0.167 A 
ATOM     39  C   UNL     1      -2.556  -7.437 -10.646  0.00  0.00    +0.171 A 
ATOM     40  O   UNL     1      -1.213  -7.290 -10.453  0.00  0.00    -0.452 OA
ATOM     41  C   UNL     1      -0.609  -7.561 -11.732  0.00  0.00    +0.466 C 
ATOM     42  O   UNL     1      -1.636  -7.225 -12.678  0.00  0.00    -0.453 OA
ENDBRANCH  33  34
ENDBRANCH  31  33
ENDBRANCH  28  29
ENDBRANCH  27  28
ENDBRANCH  25  27
ENDBRANCH  24  25
ENDBRANCH  23  24
ENDBRANCH  21  23
ENDBRANCH  10  21
BRANCH  10  43
ATOM     43  O   UNL     1      -2.485   0.460  -0.479  0.00  0.00    -0.380 OA
ATOM     44  H   UNL     1      -3.396   0.137  -0.433  0.00  0.00    +0.211 HD
ENDBRANCH  10  43
BRANCH   4  45
ATOM     45  O   UNL     1       1.494  -2.140  -2.575  0.00  0.00    -0.391 OA
ATOM     46  H   UNL     1       0.985  -1.934  -3.371  0.00  0.00    +0.210 HD
ENDBRANCH   4  45
TORSDOF 11
