REMARK  Name = ZINC16924148
REMARK  9 active torsions:
REMARK  status: ('A' for Active; 'I' for Inactive)
REMARK    1  A    between atoms: C_1  and  C_2
REMARK    2  A    between atoms: C_2  and  O_3
REMARK    3  A    between atoms: O_3  and  C_4
REMARK    4  A    between atoms: C_7  and  N_10
REMARK    5  A    between atoms: C_13  and  C_18
REMARK    6  A    between atoms: C_18  and  C_19
REMARK    7  A    between atoms: N_21  and  C_22
REMARK    8  A    between atoms: C_25  and  O_30
REMARK    9  A    between atoms: C_27  and  C_28
REMARK                            x       y       z     vdW  Elec       q    Type
REMARK                         _______ _______ _______ _____ _____    ______ ____
ROOT
ATOM      1  N   UNL     1       0.038   1.364   0.564  0.00  0.00    -0.200 N 
ATOM      2  C   UNL     1       0.012   0.044   0.487  0.00  0.00    +0.241 C 
ATOM      3  O   UNL     1      -1.018  -0.590   0.569  0.00  0.00    -0.274 OA
ATOM      4  C   UNL     1       1.365  -0.625   0.290  0.00  0.00    +0.151 C 
ATOM      5  S   UNL     1       2.447   0.860   0.254  0.00  0.00    -0.054 S 
ATOM      6  C   UNL     1       1.169   2.088   0.476  0.00  0.00    +0.286 C 
ATOM      7  O   UNL     1       1.292   3.296   0.535  0.00  0.00    -0.262 OA
ENDROOT
BRANCH   1  11
ATOM      8  C   UNL     1      -3.573   3.387   1.088  0.00  0.00    +0.121 A 
ATOM      9  C   UNL     1      -3.339   2.678  -0.081  0.00  0.00    +0.047 A 
ATOM     10  C   UNL     1      -2.144   2.008  -0.255  0.00  0.00    +0.027 A 
ATOM     11  C   UNL     1      -1.177   2.045   0.740  0.00  0.00    +0.045 A 
ATOM     12  C   UNL     1      -1.413   2.751   1.911  0.00  0.00    +0.027 A 
ATOM     13  C   UNL     1      -2.606   3.425   2.082  0.00  0.00    +0.047 A 
BRANCH   8  14
ATOM     14  O   UNL     1      -4.750   4.046   1.258  0.00  0.00    -0.492 OA
BRANCH  14  16
ATOM     15  C   UNL     1      -6.297   5.430   2.496  0.00  0.00    +0.048 C 
ATOM     16  C   UNL     1      -4.923   4.756   2.486  0.00  0.00    +0.225 C 
ENDBRANCH  14  16
ENDBRANCH   8  14
ENDBRANCH   1  11
BRANCH   4  17
ATOM     17  C   UNL     1       1.421  -1.387  -1.036  0.00  0.00    +0.120 C 
BRANCH  17  18
ATOM     18  C   UNL     1       2.728  -2.131  -1.133  0.00  0.00    +0.219 C 
ATOM     19  O   UNL     1       3.535  -2.059  -0.231  0.00  0.00    -0.275 OA
ATOM     20  N   UNL     1       2.999  -2.876  -2.222  0.00  0.00    -0.285 N 
ATOM     21  H   UNL     1       2.390  -2.872  -2.977  0.00  0.00    +0.155 HD
BRANCH  20  22
ATOM     22  C   UNL     1       4.156  -3.653  -2.264  0.00  0.00    +0.048 A 
ATOM     23  C   UNL     1       4.633  -4.257  -1.109  0.00  0.00    +0.028 A 
ATOM     24  C   UNL     1       5.774  -5.031  -1.151  0.00  0.00    +0.047 A 
ATOM     25  C   UNL     1       6.463  -5.203  -2.346  0.00  0.00    +0.118 A 
ATOM     26  C   UNL     1       6.005  -4.604  -3.505  0.00  0.00    +0.062 A 
ATOM     27  C   UNL     1       4.846  -3.823  -3.474  0.00  0.00    +0.088 A 
BRANCH  27  28
ATOM     28  C   UNL     1       4.353  -3.181  -4.705  0.00  0.00    +0.388 C 
ATOM     29  O   UNL     1       3.298  -2.577  -4.695  0.00  0.00    -0.241 OA
ATOM     30  O   UNL     1       5.071  -3.263  -5.843  0.00  0.00    -0.241 OA
ENDBRANCH  27  28
BRANCH  25  31
ATOM     31  O   UNL     1       7.590  -5.962  -2.376  0.00  0.00    -0.507 OA
ATOM     32  H   UNL     1       8.403  -5.466  -2.206  0.00  0.00    +0.292 HD
ENDBRANCH  25  31
ENDBRANCH  20  22
ENDBRANCH  17  18
ENDBRANCH   4  17
TORSDOF 8
