REMARK  Name = ZINC09593949
REMARK  5 active torsions:
REMARK  status: ('A' for Active; 'I' for Inactive)
REMARK    1  A    between atoms: C_1  and  C_2
REMARK    2  A    between atoms: C_5  and  C_8
REMARK    3  A    between atoms: C_10  and  C_25
REMARK    4  A    between atoms: C_16  and  C_19
REMARK    5  A    between atoms: C_32  and  C_34
REMARK                            x       y       z     vdW  Elec       q    Type
REMARK                         _______ _______ _______ _____ _____    ______ ____
ROOT
ATOM      1  C   UNL     1      -1.518   1.045   2.123  0.00  0.00    +0.140 C 
ATOM      2  C   UNL     1      -0.854   0.515   0.845  0.00  0.00    +0.166 C 
ATOM      3  S   UNL     1      -1.802   1.135  -0.577  0.00  0.00    -0.069 S 
ATOM      4  C   UNL     1      -1.997   2.803  -0.030  0.00  0.00    +0.210 A 
ATOM      5  N   UNL     1      -2.409   3.833  -0.720  0.00  0.00    -0.121 NA
ATOM      6  N   UNL     1      -2.430   4.878   0.032  0.00  0.00    -0.127 NA
ATOM      7  C   UNL     1      -2.028   4.569   1.245  0.00  0.00    +0.182 A 
ATOM      8  N   UNL     1      -1.730   3.228   1.241  0.00  0.00    -0.221 N 
ATOM      9  N   UNL     1      -1.265   2.479   2.273  0.00  0.00    -0.272 N 
ATOM     10  H   UNL     1      -1.620   2.818   3.155  0.00  0.00    +0.167 HD
ENDROOT
BRANCH   2  11
ATOM     11  C   UNL     1       0.567   1.011   0.766  0.00  0.00    +0.231 C 
ATOM     12  O   UNL     1       0.854   2.103   1.209  0.00  0.00    -0.274 OA
ATOM     13  N   UNL     1       1.519   0.241   0.202  0.00  0.00    -0.298 N 
ATOM     14  C   UNL     1       1.167  -1.026  -0.452  0.00  0.00    +0.108 C 
ATOM     15  C   UNL     1       2.022  -2.146   0.150  0.00  0.00    +0.019 C 
ATOM     16  C   UNL     1       3.501  -1.770   0.036  0.00  0.00    +0.003 C 
ATOM     17  C   UNL     1       3.765  -0.484   0.824  0.00  0.00    +0.022 C 
ATOM     18  C   UNL     1       2.928   0.657   0.225  0.00  0.00    +0.073 C 
ATOM     19  C   UNL     1       3.079   1.913   1.086  0.00  0.00    +0.028 C 
ENDBRANCH   2  11
BRANCH   1  24
ATOM     20  C   UNL     1       0.621  -1.764   6.697  0.00  0.00    +0.044 C 
ATOM     21  C   UNL     1       0.064  -1.032   5.503  0.00  0.00    -0.050 A 
ATOM     22  C   UNL     1      -1.162  -1.398   4.979  0.00  0.00    +0.004 A 
ATOM     23  C   UNL     1      -1.674  -0.725   3.885  0.00  0.00    +0.006 A 
ATOM     24  C   UNL     1      -0.960   0.313   3.315  0.00  0.00    -0.024 A 
ATOM     25  C   UNL     1       0.268   0.674   3.837  0.00  0.00    +0.006 A 
ATOM     26  C   UNL     1       0.777   0.006   4.934  0.00  0.00    +0.004 A 
ENDBRANCH   1  24
BRANCH   7  27
ATOM     27  C   UNL     1      -1.917   5.490   2.395  0.00  0.00    +0.021 A 
ATOM     28  C   UNL     1      -1.070   5.181   3.461  0.00  0.00    +0.011 A 
ATOM     29  C   UNL     1      -0.968   6.048   4.530  0.00  0.00    +0.001 A 
ATOM     30  C   UNL     1      -1.710   7.215   4.552  0.00  0.00    +0.000 A 
ATOM     31  C   UNL     1      -2.555   7.524   3.501  0.00  0.00    +0.001 A 
ATOM     32  C   UNL     1      -2.663   6.669   2.424  0.00  0.00    +0.011 A 
ENDBRANCH   7  27
TORSDOF 3
