REMARK  Name = ZINC20673063
REMARK  3 active torsions:
REMARK  status: ('A' for Active; 'I' for Inactive)
REMARK    1  A    between atoms: C_4  and  C_7
REMARK    2  A    between atoms: C_8  and  C_9
REMARK    3  A    between atoms: C_21  and  C_24
REMARK                            x       y       z     vdW  Elec       q    Type
REMARK                         _______ _______ _______ _____ _____    ______ ____
ROOT
ATOM      1  C   UNL     1       1.282   1.847  -0.000  0.00  0.00    +0.025 C 
ATOM      2  C   UNL     1       2.099   1.482   1.237  0.00  0.00    +0.064 C 
ATOM      3  C   UNL     1       3.458   2.124   1.198  0.00  0.00    +0.057 A 
ATOM      4  C   UNL     1       4.038   2.541  -0.005  0.00  0.00    +0.057 A 
ATOM      5  C   UNL     1       5.309   3.128   0.021  0.00  0.00    +0.127 A 
ATOM      6  N   UNL     1       5.917   3.270   1.185  0.00  0.00    -0.222 NA
ATOM      7  C   UNL     1       5.335   2.866   2.307  0.00  0.00    +0.218 A 
ATOM      8  N   UNL     1       4.133   2.304   2.320  0.00  0.00    -0.219 NA
ATOM      9  N   UNL     1       6.003   3.035   3.501  0.00  0.00    -0.300 N 
ATOM     10  C   UNL     1       5.191   3.801   4.455  0.00  0.00    +0.108 C 
ATOM     11  C   UNL     1       5.899   3.844   5.811  0.00  0.00    +0.032 C 
ATOM     12  C   UNL     1       7.274   4.497   5.642  0.00  0.00    +0.078 C 
ATOM     13  C   UNL     1       8.082   3.708   4.608  0.00  0.00    +0.032 C 
ATOM     14  C   UNL     1       7.310   3.668   3.287  0.00  0.00    +0.108 C 
ATOM     15  C   UNL     1       3.320   2.365  -1.275  0.00  0.00    +0.167 C 
ATOM     16  O   UNL     1       3.705   2.897  -2.295  0.00  0.00    -0.292 OA
ATOM     17  C   UNL     1       2.079   1.495  -1.263  0.00  0.00    +0.087 C 
ENDROOT
BRANCH  12  18
ATOM     18  C   UNL     1       8.001   4.488   6.962  0.00  0.00    +0.214 C 
ATOM     19  O   UNL     1       9.061   3.908   7.067  0.00  0.00    -0.276 OA
ATOM     20  N   UNL     1       7.473   5.124   8.027  0.00  0.00    -0.329 N 
ATOM     21  H   UNL     1       8.003   5.118   8.990  0.00  0.00    +0.145 HD
ATOM     22  H   UNL     1       6.511   5.650   7.931  0.00  0.00    +0.145 HD
ENDBRANCH  12  18
BRANCH   1  24
ATOM     23  C   UNL     1      -1.169   1.723   0.017  0.00  0.00    +0.004 C 
ATOM     24  C   UNL     1      -0.013   1.076   0.008  0.00  0.00    -0.022 C 
BRANCH  23  28
ATOM     25  C   UNL     1      -4.819  -0.450   0.022  0.00  0.00    +0.000 A 
ATOM     26  C   UNL     1      -4.841   0.933   0.030  0.00  0.00    +0.001 A 
ATOM     27  C   UNL     1      -3.659   1.645   0.028  0.00  0.00    +0.008 A 
ATOM     28  C   UNL     1      -2.439   0.967   0.019  0.00  0.00    -0.025 A 
ATOM     29  C   UNL     1      -2.424  -0.429   0.005  0.00  0.00    +0.008 A 
ATOM     30  C   UNL     1      -3.613  -1.129   0.013  0.00  0.00    +0.001 A 
ENDBRANCH  23  28
ENDBRANCH   1  24
TORSDOF 3
