REMARK  Name = ZINC58334611
REMARK  6 active torsions:
REMARK  status: ('A' for Active; 'I' for Inactive)
REMARK    1  A    between atoms: C_1  and  C_2
REMARK    2  A    between atoms: C_8  and  C_25
REMARK    3  A    between atoms: C_8  and  C_26
REMARK    4  A    between atoms: C_10  and  N_11
REMARK    5  A    between atoms: C_12  and  C_14
REMARK    6  A    between atoms: C_17  and  C_21
REMARK                            x       y       z     vdW  Elec       q    Type
REMARK                         _______ _______ _______ _____ _____    ______ ____
ROOT
ATOM      1  N   UNL     1      -2.496  -3.308   0.956  0.00  0.00    -0.304 N 
ATOM      2  C   UNL     1      -3.661  -2.739   0.591  0.00  0.00    +0.250 C 
ATOM      3  O   UNL     1      -3.801  -2.309  -0.538  0.00  0.00    -0.270 OA
ATOM      4  H   UNL     1      -2.384  -3.651   1.856  0.00  0.00    +0.150 HD
ENDROOT
BRANCH   1  14
ATOM      5  C   UNL     1      -0.018   1.503   0.010  0.00  0.00    +0.086 C 
ATOM      6  C   UNL     1       0.002  -0.004   0.002  0.00  0.00    +0.103 A 
ATOM      7  C   UNL     1      -1.081  -0.806   0.003  0.00  0.00    +0.050 A 
ATOM      8  C   UNL     1      -0.602  -2.129  -0.007  0.00  0.00    +0.014 A 
ATOM      9  C   UNL     1       0.745  -2.064  -0.014  0.00  0.00    +0.111 A 
ATOM     10  O   UNL     1       1.104  -0.775  -0.013  0.00  0.00    -0.464 OA
ATOM     11  C   UNL     1       1.646  -3.276  -0.028  0.00  0.00    +0.081 C 
ATOM     12  C   UNL     1       0.815  -4.493  -0.450  0.00  0.00    -0.026 C 
ATOM     13  C   UNL     1      -0.462  -4.558   0.393  0.00  0.00    +0.034 C 
ATOM     14  C   UNL     1      -1.397  -3.409  -0.008  0.00  0.00    +0.107 C 
ATOM     15  C   UNL     1       1.633  -5.768  -0.235  0.00  0.00    +0.011 C 
ATOM     16  C   UNL     1       0.444  -4.369  -1.929  0.00  0.00    +0.011 C 
ENDBRANCH   1  14
BRANCH   2  17
ATOM     17  C   UNL     1      -4.768  -2.637   1.561  0.00  0.00    +0.103 A 
ATOM     18  C   UNL     1      -4.619  -3.123   2.865  0.00  0.00    +0.020 A 
ATOM     19  C   UNL     1      -5.687  -3.003   3.737  0.00  0.00    +0.033 A 
ATOM     20  C   UNL     1      -6.859  -2.413   3.299  0.00  0.00    +0.148 A 
ATOM     21  N   UNL     1      -6.978  -1.963   2.065  0.00  0.00    -0.204 NA
ATOM     22  C   UNL     1      -5.987  -2.047   1.194  0.00  0.00    +0.283 A 
ATOM     23  O   UNL     1      -6.151  -1.566  -0.061  0.00  0.00    -0.265 OA
BRANCH  20  24
ATOM     24  C   UNL     1      -8.022  -2.284   4.250  0.00  0.00    +0.434 C 
ATOM     25  F   UNL     1      -7.933  -1.065   4.931  0.00  0.00    -0.164 F 
ATOM     26  F   UNL     1      -9.220  -2.329   3.529  0.00  0.00    -0.164 F 
ATOM     27  F   UNL     1      -7.991  -3.337   5.170  0.00  0.00    -0.164 F 
ENDBRANCH  20  24
ENDBRANCH   2  17
TORSDOF 3
