REMARK  Name = ZINC33546536
REMARK  7 active torsions:
REMARK  status: ('A' for Active; 'I' for Inactive)
REMARK    1  A    between atoms: C_2  and  C_3
REMARK    2  A    between atoms: C_3  and  N_4
REMARK    3  A    between atoms: C_9  and  C_31
REMARK    4  A    between atoms: C_12  and  C_17
REMARK    5  A    between atoms: C_12  and  C_28
REMARK    6  A    between atoms: C_17  and  C_18
REMARK    7  A    between atoms: C_36  and  N_37
REMARK                            x       y       z     vdW  Elec       q    Type
REMARK                         _______ _______ _______ _____ _____    ______ ____
ROOT
ATOM      1  N   UNL     1       1.333   1.930  -0.114  0.00  0.00    -0.230 N 
ATOM      2  C   UNL     1       2.026   2.163   1.048  0.00  0.00    +0.228 C 
ATOM      3  O   UNL     1       1.740   1.796   2.168  0.00  0.00    -0.275 OA
ATOM      4  C   UNL     1       3.171   2.944   0.640  0.00  0.00    +0.111 C 
ATOM      5  C   UNL     1       4.501   3.334   1.127  0.00  0.00    +0.100 C 
ATOM      6  N   UNL     1       5.232   3.778  -0.106  0.00  0.00    -0.293 NA
ATOM      7  C   UNL     1       4.338   3.511  -1.280  0.00  0.00    +0.138 C 
ATOM      8  C   UNL     1       3.492   2.322  -0.777  0.00  0.00    +0.121 C 
ATOM      9  C   UNL     1       2.061   2.225  -1.232  0.00  0.00    +0.229 C 
ATOM     10  O   UNL     1       1.641   2.379  -2.358  0.00  0.00    -0.275 OA
ATOM     11  H   UNL     1       5.474   4.756  -0.051  0.00  0.00    +0.124 HD
ENDROOT
BRANCH   5  12
ATOM     12  C   UNL     1       5.197   2.157   1.760  0.00  0.00    +0.002 A 
ATOM     13  C   UNL     1       6.151   1.454   1.048  0.00  0.00    +0.027 A 
ATOM     14  C   UNL     1       6.790   0.374   1.630  0.00  0.00    +0.041 A 
ATOM     15  C   UNL     1       6.474  -0.003   2.923  0.00  0.00    +0.022 A 
ATOM     16  C   UNL     1       5.519   0.701   3.633  0.00  0.00    +0.034 A 
ATOM     17  C   UNL     1       4.885   1.784   3.053  0.00  0.00    +0.131 A 
ATOM     18 CL   UNL     1       7.989  -0.510   0.737  0.00  0.00    -0.084 Cl
BRANCH  17  19
ATOM     19  N   UNL     1       3.867   2.541   3.817  0.00  0.00    +0.057 N 
ATOM     20  O   UNL     1       3.594   2.215   4.948  0.00  0.00    -0.126 OA
ATOM     21  O   UNL     1       3.309   3.485   3.308  0.00  0.00    -0.126 OA
ENDBRANCH  17  19
ENDBRANCH   5  12
BRANCH   7  22
ATOM     22  C   UNL     1       5.147   3.108  -2.486  0.00  0.00    +0.377 C 
ATOM     23  O   UNL     1       6.364   3.065  -2.418  0.00  0.00    -0.244 OA
ATOM     24  O   UNL     1       4.585   2.825  -3.531  0.00  0.00    -0.244 OA
ENDBRANCH   7  22
BRANCH   1  25
ATOM     25  C   UNL     1      -0.037   1.413  -0.152  0.00  0.00    +0.204 C 
BRANCH  25  27
ATOM     26  C   UNL     1       0.019  -1.232  -0.217  0.00  0.00    +0.005 C 
ATOM     27  C   UNL     1      -0.006  -0.058  -0.188  0.00  0.00    -0.086 C 
ENDBRANCH  25  27
ENDBRANCH   1  25
BRANCH   7  28
ATOM     28  C   UNL     1       3.471   4.733  -1.591  0.00  0.00    +0.071 C 
BRANCH  28  29
ATOM     29  C   UNL     1       4.356   5.927  -1.839  0.00  0.00    -0.020 A 
ATOM     30  C   UNL     1       4.720   6.852  -0.937  0.00  0.00    +0.087 A 
ATOM     31  N   UNL     1       5.528   7.786  -1.526  0.00  0.00    -0.360 N 
ATOM     32  H   UNL     1       5.917   8.551  -1.075  0.00  0.00    +0.165 HD
ATOM     33  C   UNL     1       5.709   7.476  -2.856  0.00  0.00    +0.047 A 
ATOM     34  C   UNL     1       4.987   6.295  -3.109  0.00  0.00    +0.003 A 
ATOM     35  C   UNL     1       4.992   5.736  -4.388  0.00  0.00    +0.010 A 
ATOM     36  C   UNL     1       5.701   6.338  -5.389  0.00  0.00    +0.001 A 
ATOM     37  C   UNL     1       6.418   7.502  -5.144  0.00  0.00    +0.002 A 
ATOM     38  C   UNL     1       6.419   8.075  -3.891  0.00  0.00    +0.026 A 
ENDBRANCH  28  29
ENDBRANCH   7  28
TORSDOF 7
