REMARK  Name = ZINC13567458
REMARK  10 active torsions:
REMARK  status: ('A' for Active; 'I' for Inactive)
REMARK    1  A    between atoms: C_1  and  C_2
REMARK    2  A    between atoms: C_2  and  S_3
REMARK    3  A    between atoms: S_3  and  C_4
REMARK    4  A    between atoms: N_10  and  C_11
REMARK    5  A    between atoms: C_16  and  C_18
REMARK    6  A    between atoms: C_20  and  O_27
REMARK    7  A    between atoms: C_21  and  O_26
REMARK    8  A    between atoms: C_22  and  O_24
REMARK    9  A    between atoms: O_24  and  C_25
REMARK   10  A    between atoms: O_27  and  C_28
REMARK                            x       y       z     vdW  Elec       q    Type
REMARK                         _______ _______ _______ _____ _____    ______ ____
ROOT
ATOM      1  C   UNL     1      -1.207   2.125   0.019  0.00  0.00    +0.174 A 
ATOM      2  N   UNL     1      -1.255   3.441   0.032  0.00  0.00    -0.185 NA
ATOM      3  C   UNL     1      -0.130   4.172   0.025  0.00  0.00    +0.279 A 
ATOM      4  O   UNL     1      -0.188   5.393   0.033  0.00  0.00    -0.265 OA
ATOM      5  C   UNL     1       1.121   3.521   0.010  0.00  0.00    +0.065 A 
ATOM      6  C   UNL     1       1.160   2.161   0.003  0.00  0.00    +0.116 A 
ATOM      7  N   UNL     1      -0.018   1.461   0.010  0.00  0.00    -0.311 N 
ATOM      8  C   UNL     1       0.002  -0.004   0.002  0.00  0.00    +0.152 C 
ATOM      9  N   UNL     1       2.368   1.496  -0.013  0.00  0.00    -0.271 N 
ATOM     10  C   UNL     1       3.502   2.124   0.346  0.00  0.00    +0.219 C 
ATOM     11  O   UNL     1       4.556   1.525   0.317  0.00  0.00    -0.275 OA
ATOM     12  C   UNL     1       3.474   3.564   0.785  0.00  0.00    +0.109 C 
ATOM     13  C   UNL     1       2.397   4.318   0.001  0.00  0.00    +0.067 C 
ATOM     14  H   UNL     1       2.400   0.566  -0.285  0.00  0.00    +0.156 HD
ENDROOT
BRANCH  13  15
ATOM     15  C   UNL     1       2.856   4.516  -1.420  0.00  0.00    -0.032 A 
ATOM     16  C   UNL     1       3.146   3.419  -2.210  0.00  0.00    +0.054 A 
ATOM     17  C   UNL     1       3.563   3.597  -3.520  0.00  0.00    +0.165 A 
ATOM     18  C   UNL     1       3.700   4.880  -4.036  0.00  0.00    +0.201 A 
ATOM     19  C   UNL     1       3.413   5.980  -3.237  0.00  0.00    +0.165 A 
ATOM     20  C   UNL     1       2.992   5.794  -1.929  0.00  0.00    +0.054 A 
BRANCH  19  21
ATOM     21  O   UNL     1       3.545   7.238  -3.737  0.00  0.00    -0.491 OA
ATOM     22  C   UNL     1       3.232   8.321  -2.860  0.00  0.00    +0.277 C 
ENDBRANCH  19  21
BRANCH  18  23
ATOM     23  O   UNL     1       4.114   5.059  -5.320  0.00  0.00    -0.501 OA
ATOM     24  H   UNL     1       5.074   5.131  -5.418  0.00  0.00    +0.292 HD
ENDBRANCH  18  23
BRANCH  17  25
ATOM     25  O   UNL     1       3.844   2.517  -4.298  0.00  0.00    -0.491 OA
ATOM     26  C   UNL     1       3.681   1.228  -3.702  0.00  0.00    +0.277 C 
ENDBRANCH  17  25
ENDBRANCH  13  15
BRANCH   1  27
ATOM     27  S   UNL     1      -2.710   1.206   0.021  0.00  0.00    -0.088 S 
BRANCH  27  29
ATOM     28  C   UNL     1      -5.327   1.989   0.037  0.00  0.00    +0.016 C 
ATOM     29  C   UNL     1      -3.909   2.562   0.034  0.00  0.00    +0.074 C 
ENDBRANCH  27  29
ENDBRANCH   1  27
TORSDOF 6
