REMARK  Name = ZINC46874776
REMARK  9 active torsions:
REMARK  status: ('A' for Active; 'I' for Inactive)
REMARK    1  A    between atoms: C_1  and  C_2
REMARK    2  A    between atoms: C_2  and  C_3
REMARK    3  A    between atoms: C_2  and  C_4
REMARK    4  A    between atoms: C_2  and  C_23
REMARK    5  A    between atoms: C_4  and  N_5
REMARK    6  A    between atoms: N_8  and  N_9
REMARK    7  A    between atoms: C_10  and  C_12
REMARK    8  A    between atoms: C_12  and  C_13
REMARK    9  A    between atoms: N_21  and  C_22
REMARK                            x       y       z     vdW  Elec       q    Type
REMARK                         _______ _______ _______ _____ _____    ______ ____
ROOT
ATOM      1  N   UNL     1      -2.119  -0.061   1.218  0.00  0.00    -0.297 N 
ATOM      2  C   UNL     1      -3.403  -0.406   1.442  0.00  0.00    +0.316 C 
ATOM      3  O   UNL     1      -3.992  -1.108   0.643  0.00  0.00    -0.251 OA
ATOM      4  N   UNL     1      -4.034   0.029   2.551  0.00  0.00    -0.218 N 
ATOM      5  H   UNL     1      -1.649   0.499   1.855  0.00  0.00    +0.150 HD
ATOM      6  H   UNL     1      -4.957  -0.219   2.712  0.00  0.00    +0.174 HD
ENDROOT
BRANCH   4   7
ATOM      7  N   UNL     1      -3.355   0.839   3.471  0.00  0.00    -0.233 N 
ATOM      8  C   UNL     1      -3.986   1.274   4.580  0.00  0.00    +0.236 C 
ATOM      9  O   UNL     1      -5.141   0.964   4.781  0.00  0.00    -0.274 OA
ATOM     10  H   UNL     1      -2.431   1.087   3.310  0.00  0.00    +0.173 HD
BRANCH   8  11
ATOM     11  C   UNL     1      -3.256   2.144   5.569  0.00  0.00    +0.171 C 
BRANCH  11  12
ATOM     12  C   UNL     1      -4.178   2.490   6.710  0.00  0.00    +0.119 A 
ATOM     13  N   UNL     1      -4.963   3.527   6.747  0.00  0.00    -0.232 NA
ATOM     14  C   UNL     1      -5.653   3.536   7.916  0.00  0.00    +0.089 A 
ATOM     15  C   UNL     1      -6.607   4.396   8.465  0.00  0.00    +0.030 A 
ATOM     16  C   UNL     1      -7.134   4.132   9.697  0.00  0.00    +0.002 A 
ATOM     17  C   UNL     1      -6.730   3.015  10.415  0.00  0.00    +0.002 A 
ATOM     18  C   UNL     1      -5.790   2.152   9.893  0.00  0.00    +0.028 A 
ATOM     19  C   UNL     1      -5.245   2.404   8.641  0.00  0.00    +0.069 A 
ATOM     20  N   UNL     1      -4.315   1.759   7.850  0.00  0.00    -0.330 N 
ATOM     21  C   UNL     1      -3.605   0.520   8.178  0.00  0.00    +0.150 C 
ENDBRANCH  11  12
ENDBRANCH   8  11
ENDBRANCH   4   7
BRANCH   1  22
ATOM     22  C   UNL     1      -1.433  -0.534   0.013  0.00  0.00    +0.116 C 
BRANCH  22  24
ATOM     23  C   UNL     1      -0.019   1.526   0.010  0.00  0.00    +0.017 C 
ATOM     24  C   UNL     1       0.002  -0.004   0.002  0.00  0.00    +0.006 C 
ATOM     25  C   UNL     1       0.742  -0.511   1.242  0.00  0.00    +0.017 C 
BRANCH  24  26
ATOM     26  C   UNL     1       0.707  -0.490  -1.238  0.00  0.00    -0.040 A 
ATOM     27  C   UNL     1       0.036  -1.284  -2.148  0.00  0.00    +0.004 A 
ATOM     28  C   UNL     1       0.683  -1.730  -3.286  0.00  0.00    +0.000 A 
ATOM     29  C   UNL     1       2.001  -1.381  -3.513  0.00  0.00    +0.000 A 
ATOM     30  C   UNL     1       2.672  -0.586  -2.603  0.00  0.00    +0.000 A 
ATOM     31  C   UNL     1       2.024  -0.137  -1.467  0.00  0.00    +0.004 A 
ENDBRANCH  24  26
ENDBRANCH  22  24
ENDBRANCH   1  22
TORSDOF 6
