REMARK  Name = ZINC08788870
REMARK  6 active torsions:
REMARK  status: ('A' for Active; 'I' for Inactive)
REMARK    1  A    between atoms: C_1  and  O_2
REMARK    2  A    between atoms: O_2  and  C_3
REMARK    3  A    between atoms: C_6  and  C_9
REMARK    4  A    between atoms: C_9  and  N_10
REMARK    5  A    between atoms: C_15  and  C_32
REMARK    6  A    between atoms: C_32  and  C_33
REMARK                            x       y       z     vdW  Elec       q    Type
REMARK                         _______ _______ _______ _____ _____    ______ ____
ROOT
ATOM      1  N   UNL     1       0.053  -4.758  -1.405  0.00  0.00    -0.237 N 
ATOM      2  C   UNL     1       1.176  -4.981  -2.099  0.00  0.00    +0.224 C 
ATOM      3  O   UNL     1       2.302  -4.817  -1.681  0.00  0.00    -0.275 OA
ATOM      4  C   UNL     1       0.821  -5.468  -3.486  0.00  0.00    +0.073 C 
ATOM      5  C   UNL     1       1.188  -4.377  -4.515  0.00  0.00    -0.049 C 
ATOM      6  C   UNL     1      -1.148  -4.436  -4.501  0.00  0.00    +0.050 C 
ATOM      7  C   UNL     1      -0.733  -5.491  -3.470  0.00  0.00    +0.088 C 
ATOM      8  C   UNL     1      -1.075  -5.016  -2.076  0.00  0.00    +0.225 C 
ATOM      9  O   UNL     1      -2.197  -4.886  -1.636  0.00  0.00    -0.275 OA
ATOM     10  C   UNL     1      -2.386  -4.848  -5.245  0.00  0.00    -0.026 A 
ATOM     11  C   UNL     1      -2.702  -5.933  -6.033  0.00  0.00    +0.024 A 
ATOM     12  C   UNL     1      -3.962  -6.036  -6.596  0.00  0.00    +0.041 A 
ATOM     13  C   UNL     1      -4.902  -5.047  -6.366  0.00  0.00    +0.022 A 
ATOM     14  C   UNL     1      -4.589  -3.959  -5.577  0.00  0.00    +0.025 A 
ATOM     15  C   UNL     1      -3.324  -3.848  -5.007  0.00  0.00    +0.036 A 
ATOM     16  N   UNL     1      -2.777  -2.860  -4.184  0.00  0.00    -0.286 N 
ATOM     17  C   UNL     1      -1.503  -3.131  -3.842  0.00  0.00    +0.211 C 
ATOM     18  O   UNL     1      -0.783  -2.456  -3.138  0.00  0.00    -0.277 OA
ATOM     19 CL   UNL     1      -4.362  -7.403  -7.588  0.00  0.00    -0.084 Cl
ATOM     20  H   UNL     1      -3.259  -2.070  -3.893  0.00  0.00    +0.155 HD
ATOM     21  N   UNL     1       0.004  -4.288  -5.373  0.00  0.00    +0.394 N 
ATOM     22  H   UNL     1       0.018  -5.037  -6.074  0.00  0.00    -0.083 HD
ATOM     23  H   UNL     1      -0.023  -3.377  -5.846  0.00  0.00    -0.083 HD
ENDROOT
BRANCH   1  24
ATOM     24  C   UNL     1       0.060  -4.277  -0.021  0.00  0.00    +0.151 C 
BRANCH  24  28
ATOM     25  C   UNL     1       0.002  -0.004   0.002  0.00  0.00    +0.120 A 
ATOM     26  C   UNL     1       1.212  -0.682  -0.019  0.00  0.00    +0.046 A 
ATOM     27  C   UNL     1       1.228  -2.064  -0.020  0.00  0.00    +0.009 A 
ATOM     28  C   UNL     1       0.040  -2.770  -0.013  0.00  0.00    -0.029 A 
ATOM     29  C   UNL     1      -1.168  -2.096   0.002  0.00  0.00    +0.009 A 
ATOM     30  C   UNL     1      -1.189  -0.715   0.010  0.00  0.00    +0.046 A 
BRANCH  25  32
ATOM     31  C   UNL     1       1.248   2.021   0.001  0.00  0.00    +0.277 C 
ATOM     32  O   UNL     1      -0.016   1.355   0.009  0.00  0.00    -0.495 OA
ENDBRANCH  25  32
ENDBRANCH  24  28
ENDBRANCH   1  24
BRANCH   5  33
ATOM     33  C   UNL     1       2.426  -4.792  -5.312  0.00  0.00    +0.080 C 
BRANCH  33  34
ATOM     34  C   UNL     1       2.839  -3.664  -6.222  0.00  0.00    +0.209 C 
ATOM     35  O   UNL     1       2.206  -2.630  -6.232  0.00  0.00    -0.276 OA
ATOM     36  N   UNL     1       3.913  -3.804  -7.025  0.00  0.00    -0.329 N 
ATOM     37  H   UNL     1       4.419  -4.632  -7.017  0.00  0.00    +0.145 HD
ATOM     38  H   UNL     1       4.178  -3.079  -7.611  0.00  0.00    +0.145 HD
ENDBRANCH  33  34
ENDBRANCH   5  33
TORSDOF 5
