REMARK  Name = ZINC12783824
REMARK  7 active torsions:
REMARK  status: ('A' for Active; 'I' for Inactive)
REMARK    1  A    between atoms: C_1  and  C_2
REMARK    2  A    between atoms: C_9  and  N_14
REMARK    3  A    between atoms: C_15  and  C_17
REMARK    4  A    between atoms: C_22  and  S_23
REMARK    5  A    between atoms: S_23  and  C_24
REMARK    6  A    between atoms: C_24  and  C_25
REMARK    7  A    between atoms: C_25  and  C_32
REMARK                            x       y       z     vdW  Elec       q    Type
REMARK                         _______ _______ _______ _____ _____    ______ ____
ROOT
ATOM      1  C   UNL     1       4.335   8.354  -1.052  0.00  0.00    +0.050 A 
ATOM      2  C   UNL     1       5.527   7.725  -1.422  0.00  0.00    +0.014 A 
ATOM      3  C   UNL     1       6.599   8.479  -1.845  0.00  0.00    +0.001 A 
ATOM      4  C   UNL     1       6.507   9.862  -1.897  0.00  0.00    +0.001 A 
ATOM      5  C   UNL     1       5.340  10.498  -1.530  0.00  0.00    +0.015 A 
ATOM      6  C   UNL     1       4.245   9.755  -1.105  0.00  0.00    +0.020 A 
ENDROOT
BRANCH   1   8
ATOM      7  N   UNL     1       3.273   6.210  -0.554  0.00  0.00    -0.281 N 
ATOM      8  C   UNL     1       3.182   7.554  -0.603  0.00  0.00    +0.249 C 
ATOM      9  O   UNL     1       2.148   8.105  -0.278  0.00  0.00    -0.270 OA
ATOM     10  H   UNL     1       4.117   5.774  -0.749  0.00  0.00    +0.155 HD
BRANCH   7  18
ATOM     11  C   UNL     1      -0.680   2.564   3.054  0.00  0.00    +0.062 C 
ATOM     12  C   UNL     1      -1.635   3.298   2.110  0.00  0.00    +0.256 C 
ATOM     13  C   UNL     1      -1.699   4.755   2.494  0.00  0.00    +0.258 C 
ATOM     14  O   UNL     1      -2.539   5.141   3.280  0.00  0.00    -0.271 OA
ATOM     15  N   UNL     1      -0.815   5.627   1.964  0.00  0.00    -0.279 N 
ATOM     16  C   UNL     1       0.123   5.162   1.031  0.00  0.00    +0.077 A 
ATOM     17  C   UNL     1       1.233   5.923   0.705  0.00  0.00    +0.050 A 
ATOM     18  C   UNL     1       2.150   5.444  -0.221  0.00  0.00    +0.036 A 
ATOM     19  C   UNL     1       1.952   4.205  -0.818  0.00  0.00    +0.027 A 
ATOM     20  C   UNL     1       0.844   3.445  -0.492  0.00  0.00    +0.049 A 
ATOM     21  C   UNL     1      -0.072   3.919   0.431  0.00  0.00    +0.143 A 
ATOM     22  O   UNL     1      -1.166   3.181   0.761  0.00  0.00    -0.478 OA
ATOM     23  H   UNL     1      -0.829   6.561   2.224  0.00  0.00    +0.155 HD
ENDBRANCH   7  18
ENDBRANCH   1   8
BRANCH   6  24
ATOM     24  S   UNL     1       2.752  10.565  -0.636  0.00  0.00    -0.122 S 
BRANCH  24  25
ATOM     25  C   UNL     1       3.118  12.327  -0.869  0.00  0.00    +0.109 C 
BRANCH  25  26
ATOM     26  C   UNL     1       1.888  13.156  -0.492  0.00  0.00    +0.119 C 
ATOM     27  C   UNL     1       2.148  14.631  -0.727  0.00  0.00    +0.244 C 
ATOM     28  O   UNL     1       2.993  15.320  -0.197  0.00  0.00    -0.273 OA
ATOM     29  N   UNL     1       1.244  15.018  -1.649  0.00  0.00    -0.238 N 
ATOM     30  C   UNL     1       0.458  14.003  -2.026  0.00  0.00    +0.307 C 
ATOM     31  O   UNL     1      -0.432  14.106  -2.847  0.00  0.00    -0.252 OA
ATOM     32  N   UNL     1       0.762  12.852  -1.391  0.00  0.00    -0.285 N 
ATOM     33  C   UNL     1       1.497  12.904   0.965  0.00  0.00    +0.042 C 
ATOM     34  H   UNL     1       1.173  15.920  -1.998  0.00  0.00    +0.159 HD
ATOM     35  H   UNL     1       0.327  11.993  -1.504  0.00  0.00    +0.151 HD
ENDBRANCH  25  26
ENDBRANCH  24  25
ENDBRANCH   6  24
TORSDOF 5
