REMARK  Name = ZINC58178929
REMARK  7 active torsions:
REMARK  status: ('A' for Active; 'I' for Inactive)
REMARK    1  A    between atoms: C_1  and  C_2
REMARK    2  A    between atoms: N_9  and  C_10
REMARK    3  A    between atoms: C_10  and  C_11
REMARK    4  A    between atoms: C_11  and  O_12
REMARK    5  A    between atoms: O_12  and  C_13
REMARK    6  A    between atoms: C_20  and  C_22
REMARK    7  A    between atoms: C_20  and  C_23
REMARK                            x       y       z     vdW  Elec       q    Type
REMARK                         _______ _______ _______ _____ _____    ______ ____
ROOT
ATOM      1  C   UNL     1       0.045  -4.568  -3.907  0.00  0.00    +0.248 C 
ENDROOT
BRANCH   1   2
ATOM      2  C   UNL     1       0.046  -4.094  -2.452  0.00  0.00    +0.144 C 
BRANCH   2  11
ATOM      3  C   UNL     1      -0.018   1.503   0.010  0.00  0.00    +0.088 C 
ATOM      4  C   UNL     1       0.002  -0.004   0.002  0.00  0.00    +0.130 A 
ATOM      5  N   UNL     1       0.005  -0.638  -1.153  0.00  0.00    -0.218 NA
ATOM      6  C   UNL     1       0.024  -1.967  -1.199  0.00  0.00    +0.124 A 
ATOM      7  C   UNL     1       0.039  -2.684  -0.001  0.00  0.00    +0.083 A 
ATOM      8  C   UNL     1       0.035  -1.977   1.187  0.00  0.00    +0.135 A 
ATOM      9  N   UNL     1       0.022  -0.650   1.150  0.00  0.00    -0.221 NA
ATOM     10 CL   UNL     1       0.055  -2.813   2.708  0.00  0.00    -0.062 Cl
ATOM     11  N   UNL     1       0.026  -2.630  -2.416  0.00  0.00    -0.326 N 
ATOM     12  H   UNL     1       0.015  -2.124  -3.243  0.00  0.00    +0.148 HD
ENDBRANCH   2  11
ENDBRANCH   1   2
BRANCH   1  13
ATOM     13  O   UNL     1       1.258  -4.157  -4.543  0.00  0.00    -0.487 OA
BRANCH  13  14
ATOM     14  C   UNL     1       1.417  -4.501  -5.849  0.00  0.00    +0.162 A 
ATOM     15  C   UNL     1       0.425  -5.212  -6.502  0.00  0.00    +0.049 A 
ATOM     16  C   UNL     1       0.580  -5.566  -7.829  0.00  0.00    +0.004 A 
ATOM     17  C   UNL     1       1.733  -5.210  -8.506  0.00  0.00    +0.007 A 
ATOM     18  C   UNL     1       2.724  -4.504  -7.858  0.00  0.00    +0.002 A 
ATOM     19  C   UNL     1       2.579  -4.130  -6.530  0.00  0.00    +0.166 A 
ATOM     20  O   UNL     1       3.656  -3.419  -6.096  0.00  0.00    -0.482 OA
ATOM     21  C   UNL     1       4.766  -3.656  -6.980  0.00  0.00    +0.109 C 
ATOM     22  C   UNL     1       4.076  -3.993  -8.319  0.00  0.00    +0.086 C 
ATOM     23  C   UNL     1       5.598  -4.845  -6.498  0.00  0.00    +0.056 C 
ATOM     24  C   UNL     1       5.633  -2.402  -7.109  0.00  0.00    +0.056 C 
ENDBRANCH  13  14
ENDBRANCH   1  13
TORSDOF 4
