REMARK  Name = ZINC42527477
REMARK  7 active torsions:
REMARK  status: ('A' for Active; 'I' for Inactive)
REMARK    1  A    between atoms: C_1  and  C_2
REMARK    2  A    between atoms: C_3  and  C_9
REMARK    3  A    between atoms: C_4  and  N_8
REMARK    4  A    between atoms: N_11  and  C_12
REMARK    5  A    between atoms: N_11  and  C_15
REMARK    6  A    between atoms: C_12  and  C_13
REMARK    7  A    between atoms: C_13  and  O_14
REMARK                            x       y       z     vdW  Elec       q    Type
REMARK                         _______ _______ _______ _____ _____    ______ ____
ROOT
ATOM      1  C   UNL     1      -0.005  -0.377  -2.545  0.00  0.00    +0.252 C 
ATOM      2  O   UNL     1       1.043  -0.175  -3.130  0.00  0.00    -0.270 OA
ATOM      3  N   UNL     1      -1.178  -0.186  -3.181  0.00  0.00    -0.292 N 
ENDROOT
BRANCH   1   6
ATOM      4  C   UNL     1      -0.018   1.503   0.010  0.00  0.00    +0.068 C 
ATOM      5  C   UNL     1       0.002  -0.004   0.002  0.00  0.00    +0.074 A 
ATOM      6  C   UNL     1       0.008  -0.828  -1.149  0.00  0.00    +0.098 A 
ATOM      7  C   UNL     1       0.029  -2.147  -0.704  0.00  0.00    +0.124 A 
ATOM      8  N   UNL     1       0.034  -2.112   0.644  0.00  0.00    -0.264 N 
ATOM      9  H   UNL     1       0.048  -2.883   1.232  0.00  0.00    +0.190 HD
ATOM     10  N   UNL     1       0.023  -0.774   1.053  0.00  0.00    -0.177 NA
BRANCH   7  11
ATOM     11  N   UNL     1       0.041  -3.279  -1.494  0.00  0.00    -0.343 N 
ATOM     12  H   UNL     1       0.035  -3.196  -2.460  0.00  0.00    +0.144 HD
ATOM     13  H   UNL     1       0.055  -4.157  -1.083  0.00  0.00    +0.144 HD
ENDBRANCH   7  11
ENDBRANCH   1   6
BRANCH   3  14
ATOM     14  C   UNL     1      -1.192   0.264  -4.575  0.00  0.00    +0.076 C 
ATOM     15  C   UNL     1      -0.460  -0.758  -5.448  0.00  0.00    +0.022 C 
ATOM     16  C   UNL     1      -0.474  -0.288  -6.904  0.00  0.00    +0.002 C 
ATOM     17  C   UNL     1       0.228   1.067  -7.009  0.00  0.00    +0.000 C 
ATOM     18  C   UNL     1      -0.504   2.089  -6.136  0.00  0.00    +0.002 C 
ATOM     19  C   UNL     1      -0.490   1.619  -4.680  0.00  0.00    +0.022 C 
ENDBRANCH   3  14
BRANCH   3  20
ATOM     20  C   UNL     1      -2.440  -0.429  -2.478  0.00  0.00    +0.136 C 
BRANCH  20  21
ATOM     21  C   UNL     1      -2.897   0.859  -1.789  0.00  0.00    +0.174 C 
BRANCH  21  22
ATOM     22  O   UNL     1      -3.199   1.845  -2.778  0.00  0.00    -0.393 OA
ATOM     23  H   UNL     1      -3.496   2.690  -2.413  0.00  0.00    +0.209 HD
ENDBRANCH  21  22
ENDBRANCH  20  21
ENDBRANCH   3  20
TORSDOF 6
