REMARK  Name = ZINC63689083
REMARK  13 active torsions:
REMARK  status: ('A' for Active; 'I' for Inactive)
REMARK    1  A    between atoms: C_1  and  C_2
REMARK    2  A    between atoms: C_2  and  C_3
REMARK    3  A    between atoms: C_2  and  C_4
REMARK    4  A    between atoms: C_4  and  C_5
REMARK    5  A    between atoms: C_4  and  N_21
REMARK    6  A    between atoms: N_7  and  C_8
REMARK    7  A    between atoms: C_8  and  C_9
REMARK    8  A    between atoms: C_14  and  C_15
REMARK    9  A    between atoms: C_15  and  N_16
REMARK   10  A    between atoms: N_16  and  C_17
REMARK   11  A    between atoms: N_16  and  C_18
REMARK   12  A    between atoms: C_18  and  C_19
REMARK   13  A    between atoms: C_18  and  C_20
REMARK                            x       y       z     vdW  Elec       q    Type
REMARK                         _______ _______ _______ _____ _____    ______ ____
ROOT
ATOM      1  C   UNL     1      -0.065  -1.249   1.262  0.00  0.00    +0.234 C 
ATOM      2  O   UNL     1       1.041  -1.665   1.534  0.00  0.00    -0.274 OA
ATOM      3  N   UNL     1      -1.109  -2.099   1.205  0.00  0.00    -0.310 N 
ATOM      4  H   UNL     1      -1.994  -1.767   0.988  0.00  0.00    +0.149 HD
ENDROOT
BRANCH   1   5
ATOM      5  C   UNL     1      -0.272   0.218   0.988  0.00  0.00    +0.163 C 
BRANCH   5   6
ATOM      6  N   UNL     1       1.006   0.923   1.112  0.00  0.00    -0.288 N 
ATOM      7  C   UNL     1       1.025   2.237   1.412  0.00  0.00    +0.298 C 
ATOM      8  O   UNL     1      -0.019   2.837   1.581  0.00  0.00    -0.253 OA
ATOM      9  N   UNL     1       2.201   2.885   1.526  0.00  0.00    -0.313 N 
ATOM     10  H   UNL     1       1.839   0.444   0.977  0.00  0.00    +0.151 HD
ATOM     11  H   UNL     1       3.034   2.406   1.391  0.00  0.00    +0.146 HD
ATOM     12  H   UNL     1       2.215   3.831   1.742  0.00  0.00    +0.146 HD
ENDBRANCH   5   6
BRANCH   5  14
ATOM     13  C   UNL     1      -1.030   1.890  -0.706  0.00  0.00    +0.009 C 
ATOM     14  C   UNL     1      -0.820   0.400  -0.428  0.00  0.00    +0.012 C 
ATOM     15  C   UNL     1       0.177  -0.171  -1.438  0.00  0.00    +0.009 C 
ENDBRANCH   5  14
ENDBRANCH   1   5
BRANCH   3  16
ATOM     16  C   UNL     1      -0.908  -3.526   1.471  0.00  0.00    +0.139 C 
BRANCH  16  17
ATOM     17  C   UNL     1      -2.223  -4.251   1.344  0.00  0.00    -0.029 A 
ATOM     18  C   UNL     1      -2.901  -4.657   2.479  0.00  0.00    +0.005 A 
ATOM     19  C   UNL     1      -4.107  -5.322   2.362  0.00  0.00    +0.000 A 
ATOM     20  C   UNL     1      -4.636  -5.581   1.111  0.00  0.00    +0.000 A 
ATOM     21  C   UNL     1      -3.959  -5.174  -0.023  0.00  0.00    +0.002 A 
ATOM     22  C   UNL     1      -2.754  -4.505   0.094  0.00  0.00    -0.059 A 
BRANCH  22  23
ATOM     23  C   UNL     1      -2.019  -4.057  -1.143  0.00  0.00    -0.043 C 
BRANCH  23  24
ATOM     24  N   UNL     1      -2.675  -4.616  -2.332  0.00  0.00    +0.382 N 
ATOM     25  C   UNL     1      -2.504  -6.075  -2.345  0.00  0.00    -0.095 C 
ATOM     26  H   UNL     1      -3.658  -4.392  -2.311  0.00  0.00    -0.081 HD
BRANCH  24  27
ATOM     27  C   UNL     1      -2.069  -4.041  -3.541  0.00  0.00    -0.075 C 
ATOM     28  C   UNL     1      -2.752  -4.623  -4.780  0.00  0.00    -0.014 C 
ATOM     29  C   UNL     1      -2.246  -2.521  -3.527  0.00  0.00    -0.014 C 
ENDBRANCH  24  27
ENDBRANCH  23  24
ENDBRANCH  22  23
ENDBRANCH  16  17
ENDBRANCH   3  16
TORSDOF 8
