REMARK  Name = ZINC16009838
REMARK  5 active torsions:
REMARK  status: ('A' for Active; 'I' for Inactive)
REMARK    1  A    between atoms: C_1  and  C_2
REMARK    2  A    between atoms: C_16  and  C_19
REMARK    3  A    between atoms: C_19  and  C_20
REMARK    4  A    between atoms: C_20  and  C_21
REMARK    5  A    between atoms: N_26  and  C_29
REMARK                            x       y       z     vdW  Elec       q    Type
REMARK                         _______ _______ _______ _____ _____    ______ ____
ROOT
ATOM      1  C   UNL     1       1.057   1.680   0.832  0.00  0.00    +0.047 C 
ATOM      2  C   UNL     1       0.861   0.200   0.625  0.00  0.00    -0.011 A 
ATOM      3  C   UNL     1       0.872  -0.324  -0.652  0.00  0.00    +0.046 A 
ATOM      4  C   UNL     1       0.692  -1.682  -0.852  0.00  0.00    +0.021 A 
ATOM      5  C   UNL     1       0.501  -2.518   0.234  0.00  0.00    +0.009 A 
ATOM      6  C   UNL     1       0.490  -1.999   1.510  0.00  0.00    +0.004 A 
ATOM      7  C   UNL     1       0.675  -0.636   1.723  0.00  0.00    +0.043 A 
ATOM      8  N   UNL     1       0.628  -0.350   3.089  0.00  0.00    -0.283 N 
ATOM      9  C   UNL     1       0.426  -1.455   3.833  0.00  0.00    +0.243 C 
ATOM     10  O   UNL     1       0.341  -1.510   5.041  0.00  0.00    -0.273 OA
ATOM     11  C   UNL     1       0.314  -2.607   2.872  0.00  0.00    +0.136 C 
ATOM     12  C   UNL     1      -1.033  -3.330   2.997  0.00  0.00    +0.123 C 
ATOM     13  C   UNL     1      -0.735  -4.560   3.899  0.00  0.00    +0.107 C 
ATOM     14  C   UNL     1       0.768  -4.452   4.231  0.00  0.00    +0.068 C 
ATOM     15  N   UNL     1       1.346  -3.624   3.148  0.00  0.00    -0.295 NA
ATOM     16  C   UNL     1      -1.554  -4.287   5.141  0.00  0.00    +0.232 C 
ATOM     17  O   UNL     1      -1.612  -5.008   6.113  0.00  0.00    -0.274 OA
ATOM     18  N   UNL     1      -2.202  -3.125   5.000  0.00  0.00    -0.210 N 
ATOM     19  C   UNL     1      -1.986  -2.496   3.822  0.00  0.00    +0.233 C 
ATOM     20  O   UNL     1      -2.470  -1.439   3.478  0.00  0.00    -0.274 OA
ATOM     21 CL   UNL     1       1.113   0.725  -2.015  0.00  0.00    -0.083 Cl
ATOM     22  H   UNL     1       0.730   0.540   3.460  0.00  0.00    +0.155 HD
ATOM     23  H   UNL     1       1.526  -4.188   2.332  0.00  0.00    +0.123 HD
ENDROOT
BRANCH  18  24
ATOM     24  C   UNL     1      -3.045  -2.602   5.991  0.00  0.00    +0.044 A 
ATOM     25  C   UNL     1      -2.514  -2.172   7.199  0.00  0.00    +0.025 A 
ATOM     26  C   UNL     1      -3.346  -1.657   8.174  0.00  0.00    +0.022 A 
ATOM     27  C   UNL     1      -4.708  -1.570   7.946  0.00  0.00    +0.041 A 
ATOM     28  C   UNL     1      -5.240  -1.998   6.743  0.00  0.00    +0.022 A 
ATOM     29  C   UNL     1      -4.411  -2.508   5.763  0.00  0.00    +0.025 A 
ATOM     30 CL   UNL     1      -5.752  -0.922   9.173  0.00  0.00    -0.084 Cl
ENDBRANCH  18  24
BRANCH  14  31
ATOM     31  C   UNL     1       1.408  -5.842   4.262  0.00  0.00    +0.028 C 
BRANCH  31  32
ATOM     32  C   UNL     1       2.865  -5.723   4.715  0.00  0.00    +0.097 C 
BRANCH  32  33
ATOM     33  C   UNL     1       3.495  -7.091   4.745  0.00  0.00    +0.211 C 
ATOM     34  O   UNL     1       2.843  -8.066   4.436  0.00  0.00    -0.276 OA
ATOM     35  N   UNL     1       4.783  -7.232   5.116  0.00  0.00    -0.329 N 
ATOM     36  H   UNL     1       5.304  -6.453   5.364  0.00  0.00    +0.145 HD
ATOM     37  H   UNL     1       5.188  -8.113   5.136  0.00  0.00    +0.145 HD
ENDBRANCH  32  33
ENDBRANCH  31  32
ENDBRANCH  14  31
TORSDOF 4
