REMARK  Name = ZINC63557546
REMARK  9 active torsions:
REMARK  status: ('A' for Active; 'I' for Inactive)
REMARK    1  A    between atoms: C_3  and  S_31
REMARK    2  A    between atoms: C_6  and  C_7
REMARK    3  A    between atoms: C_7  and  C_8
REMARK    4  A    between atoms: C_8  and  N_9
REMARK    5  A    between atoms: C_10  and  C_12
REMARK    6  A    between atoms: N_17  and  C_19
REMARK    7  A    between atoms: C_19  and  C_20
REMARK    8  A    between atoms: C_20  and  C_21
REMARK    9  A    between atoms: S_31  and  N_34
REMARK                            x       y       z     vdW  Elec       q    Type
REMARK                         _______ _______ _______ _____ _____    ______ ____
ROOT
ATOM      1  C   UNL     1      -4.889  -2.888  -2.575  0.00  0.00    +0.101 C 
ATOM      2  C   UNL     1      -6.025  -2.055  -1.937  0.00  0.00    +0.110 C 
ATOM      3  C   UNL     1      -7.247  -2.406  -2.756  0.00  0.00    +0.216 C 
ATOM      4  O   UNL     1      -8.393  -2.191  -2.422  0.00  0.00    -0.276 OA
ATOM      5  N   UNL     1      -6.879  -2.992  -3.909  0.00  0.00    -0.300 N 
ATOM      6  C   UNL     1      -5.418  -3.096  -4.011  0.00  0.00    +0.121 C 
ENDROOT
BRANCH   1   8
ATOM      7  N   UNL     1      -3.004  -1.778  -1.420  0.00  0.00    -0.315 N 
ATOM      8  C   UNL     1      -3.594  -2.117  -2.584  0.00  0.00    +0.218 C 
ATOM      9  O   UNL     1      -3.084  -1.801  -3.637  0.00  0.00    -0.275 OA
ATOM     10  H   UNL     1      -3.412  -2.031  -0.578  0.00  0.00    +0.149 HD
BRANCH   7  11
ATOM     11  C   UNL     1      -1.745  -1.028  -1.429  0.00  0.00    +0.109 C 
BRANCH  11  12
ATOM     12  C   UNL     1      -1.293  -0.775   0.011  0.00  0.00    +0.054 C 
BRANCH  12  18
ATOM     13  C   UNL     1      -0.017   1.378   0.010  0.00  0.00    +0.005 A 
ATOM     14  C   UNL     1       1.171   2.086   0.002  0.00  0.00    +0.029 A 
ATOM     15  C   UNL     1       2.377   1.411  -0.013  0.00  0.00    +0.105 A 
ATOM     16  C   UNL     1       2.396   0.029  -0.020  0.00  0.00    +0.029 A 
ATOM     17  C   UNL     1       1.208  -0.679  -0.012  0.00  0.00    +0.005 A 
ATOM     18  C   UNL     1       0.002  -0.004   0.002  0.00  0.00    -0.046 A 
BRANCH  15  19
ATOM     19  S   UNL     1       3.891   2.312  -0.024  0.00  0.00    +0.056 S 
ATOM     20  O   UNL     1       4.872   1.453  -0.588  0.00  0.00    -0.153 OA
ATOM     21  O   UNL     1       3.597   3.593  -0.566  0.00  0.00    -0.153 OA
BRANCH  19  22
ATOM     22  N   UNL     1       4.327   2.556   1.555  0.00  0.00    -0.204 NA
ATOM     23  H   UNL     1       3.768   2.215   2.271  0.00  0.00    +0.144 HD
ATOM     24  H   UNL     1       5.142   3.039   1.764  0.00  0.00    +0.144 HD
ENDBRANCH  19  22
ENDBRANCH  15  19
ENDBRANCH  12  18
ENDBRANCH  11  12
ENDBRANCH   7  11
ENDBRANCH   1   8
BRANCH   5  25
ATOM     25  C   UNL     1      -7.815  -3.466  -4.931  0.00  0.00    +0.112 C 
BRANCH  25  26
ATOM     26  C   UNL     1      -8.094  -2.340  -5.929  0.00  0.00    +0.052 C 
BRANCH  26  27
ATOM     27  C   UNL     1      -9.056  -2.828  -6.981  0.00  0.00    -0.040 C 
ATOM     28  C   UNL     1     -10.400  -2.672  -6.989  0.00  0.00    +0.002 A 
ATOM     29  C   UNL     1     -11.331  -2.026  -6.055  0.00  0.00    +0.048 A 
ATOM     30  C   UNL     1     -12.654  -2.031  -6.340  0.00  0.00    +0.124 A 
ATOM     31  C   UNL     1     -13.156  -2.637  -7.502  0.00  0.00    +0.040 A 
ATOM     32  C   UNL     1     -12.363  -3.250  -8.405  0.00  0.00    +0.029 A 
ATOM     33  C   UNL     1     -10.955  -3.304  -8.207  0.00  0.00    +0.043 A 
ATOM     34  N   UNL     1      -9.992  -3.830  -8.924  0.00  0.00    -0.380 N 
ATOM     35  C   UNL     1      -8.715  -3.586  -8.245  0.00  0.00    +0.144 C 
ATOM     36  F   UNL     1     -13.514  -1.438  -5.483  0.00  0.00    -0.205 F 
ATOM     37  H   UNL     1     -10.105  -4.299  -9.765  0.00  0.00    +0.160 HD
ENDBRANCH  26  27
ENDBRANCH  25  26
ENDBRANCH   5  25
TORSDOF 9
