REMARK  Name = ZINC62203189
REMARK  3 active torsions:
REMARK  status: ('A' for Active; 'I' for Inactive)
REMARK    1  A    between atoms: C_1  and  C_2
REMARK    2  A    between atoms: C_4  and  C_10
REMARK    3  A    between atoms: N_8  and  N_9
REMARK                            x       y       z     vdW  Elec       q    Type
REMARK                         _______ _______ _______ _____ _____    ______ ____
ROOT
ATOM      1  C   UNL     1      -0.018   1.503   0.010  0.00  0.00    +0.066 C 
ATOM      2  C   UNL     1       0.002  -0.004   0.002  0.00  0.00    +0.044 A 
ATOM      3  C   UNL     1       0.006  -0.697  -1.196  0.00  0.00    +0.051 A 
ATOM      4  C   UNL     1       0.025  -2.093  -1.157  0.00  0.00    +0.076 A 
ATOM      5  N   UNL     1       0.039  -2.706   0.025  0.00  0.00    -0.213 NA
ATOM      6  C   UNL     1       0.035  -2.004   1.147  0.00  0.00    +0.230 A 
ATOM      7  N   UNL     1       0.022  -0.679   1.140  0.00  0.00    -0.219 NA
ATOM      8  N   UNL     1       0.049  -2.672   2.360  0.00  0.00    -0.252 N 
ATOM      9  H   UNL     1       0.062  -3.642   2.379  0.00  0.00    +0.169 HD
ENDROOT
BRANCH   4  10
ATOM     10  C   UNL     1       0.029  -2.881  -2.413  0.00  0.00    +0.001 A 
ATOM     11  C   UNL     1       0.020  -2.234  -3.648  0.00  0.00    +0.010 A 
ATOM     12  C   UNL     1       0.022  -2.978  -4.807  0.00  0.00    +0.004 A 
ATOM     13  C   UNL     1       0.035  -4.368  -4.758  0.00  0.00    -0.044 A 
ATOM     14  C   UNL     1       0.049  -5.013  -3.541  0.00  0.00    -0.044 A 
ATOM     15  C   UNL     1       0.048  -4.271  -2.368  0.00  0.00    +0.014 A 
ATOM     16  C   UNL     1       0.079  -6.514  -3.418  0.00  0.00    +0.035 C 
ATOM     17  C   UNL     1      -0.346  -7.169  -4.731  0.00  0.00    +0.005 C 
ATOM     18  C   UNL     1       0.481  -6.557  -5.867  0.00  0.00    +0.005 C 
ATOM     19  C   UNL     1       0.029  -5.112  -6.069  0.00  0.00    +0.035 C 
ENDBRANCH   4  10
BRANCH   8  20
ATOM     20  N   UNL     1       0.045  -1.966   3.529  0.00  0.00    -0.254 NA
ATOM     21  H   UNL     1       0.057  -2.584   4.325  0.00  0.00    +0.140 HD
ATOM     22  H   UNL     1       0.818  -1.318   3.562  0.00  0.00    +0.140 HD
ENDBRANCH   8  20
TORSDOF 2
