REMARK  Name = ZINC12144626
REMARK  9 active torsions:
REMARK  status: ('A' for Active; 'I' for Inactive)
REMARK    1  A    between atoms: C_1  and  C_2
REMARK    2  A    between atoms: C_4  and  C_28
REMARK    3  A    between atoms: C_5  and  S_9
REMARK    4  A    between atoms: C_6  and  C_8
REMARK    5  A    between atoms: S_9  and  N_12
REMARK    6  A    between atoms: N_12  and  C_13
REMARK    7  A    between atoms: C_13  and  C_15
REMARK    8  A    between atoms: C_13  and  C_16
REMARK    9  A    between atoms: C_20  and  C_22
REMARK                            x       y       z     vdW  Elec       q    Type
REMARK                         _______ _______ _______ _____ _____    ______ ____
ROOT
ATOM      1  N   UNL     1       4.664  -1.169  -0.365  0.00  0.00    -0.180 NA
ATOM      2  H   UNL     1       4.806  -2.100  -0.596  0.00  0.00    +0.149 HD
ENDROOT
BRANCH   1   3
ATOM      3  S   UNL     1       3.784  -0.775   0.981  0.00  0.00    +0.060 S 
ATOM      4  O   UNL     1       4.548   0.183   1.700  0.00  0.00    -0.153 OA
ATOM      5  O   UNL     1       3.357  -2.000   1.561  0.00  0.00    -0.153 OA
BRANCH   3  10
ATOM      6  C   UNL     1      -1.197   2.062  -0.904  0.00  0.00    +0.044 C 
ATOM      7  C   UNL     1       0.049   1.353  -0.439  0.00  0.00    -0.050 A 
ATOM      8  C   UNL     1       0.070  -0.027  -0.358  0.00  0.00    +0.008 A 
ATOM      9  C   UNL     1       1.210  -0.676   0.076  0.00  0.00    -0.024 A 
ATOM     10  C   UNL     1       2.330   0.054   0.428  0.00  0.00    +0.111 A 
ATOM     11  C   UNL     1       2.309   1.433   0.347  0.00  0.00    -0.024 A 
ATOM     12  C   UNL     1       1.169   2.083  -0.086  0.00  0.00    +0.008 A 
ATOM     13  C   UNL     1       3.530   2.229   0.732  0.00  0.00    +0.046 C 
ATOM     14  C   UNL     1       1.233  -2.181   0.165  0.00  0.00    +0.046 C 
ENDBRANCH   3  10
ENDBRANCH   1   3
BRANCH   1  15
ATOM     15  C   UNL     1       5.229  -0.111  -1.207  0.00  0.00    +0.140 C 
ATOM     16  C   UNL     1       6.675   0.158  -0.787  0.00  0.00    +0.034 C 
BRANCH  15  17
ATOM     17  C   UNL     1       5.197  -0.547  -2.649  0.00  0.00    +0.144 A 
ATOM     18  N   UNL     1       5.173   0.270  -3.718  0.00  0.00    -0.261 N 
ATOM     19  H   UNL     1       5.173   1.240  -3.708  0.00  0.00    +0.190 HD
ATOM     20  N   UNL     1       5.149  -0.558  -4.852  0.00  0.00    -0.152 NA
ATOM     21  C   UNL     1       5.160  -1.799  -4.415  0.00  0.00    +0.181 A 
ATOM     22  N   UNL     1       5.194  -1.782  -3.076  0.00  0.00    -0.210 NA
BRANCH  21  23
ATOM     23  C   UNL     1       5.143  -3.015  -5.264  0.00  0.00    +0.024 A 
ATOM     24  C   UNL     1       5.163  -4.290  -4.692  0.00  0.00    +0.031 A 
ATOM     25  C   UNL     1       5.140  -5.395  -5.518  0.00  0.00    +0.111 A 
ATOM     26  N   UNL     1       5.111  -5.259  -6.830  0.00  0.00    -0.263 NA
ATOM     27  C   UNL     1       5.096  -4.074  -7.410  0.00  0.00    +0.111 A 
ATOM     28  C   UNL     1       5.112  -2.917  -6.658  0.00  0.00    +0.031 A 
ENDBRANCH  21  23
ENDBRANCH  15  17
ENDBRANCH   1  15
TORSDOF 5
