REMARK  Name = ZINC05679504
REMARK  7 active torsions:
REMARK  status: ('A' for Active; 'I' for Inactive)
REMARK    1  A    between atoms: C_1  and  C_2
REMARK    2  A    between atoms: C_5  and  O_25
REMARK    3  A    between atoms: C_6  and  C_8
REMARK    4  A    between atoms: C_8  and  O_10
REMARK    5  A    between atoms: O_10  and  C_11
REMARK    6  A    between atoms: C_11  and  C_13
REMARK    7  A    between atoms: C_11  and  C_14
REMARK                            x       y       z     vdW  Elec       q    Type
REMARK                         _______ _______ _______ _____ _____    ______ ____
ROOT
ATOM      1  C   UNL     1       4.864   1.289  -0.041  0.00  0.00    +0.259 C 
ATOM      2  C   UNL     1       5.215   1.202   1.445  0.00  0.00    +0.062 C 
ENDROOT
BRANCH   1   3
ATOM      3  C   UNL     1       5.942   2.051  -0.769  0.00  0.00    +0.260 C 
ATOM      4  O   UNL     1       5.706   3.150  -1.224  0.00  0.00    -0.271 OA
ATOM      5  N   UNL     1       7.168   1.510  -0.914  0.00  0.00    -0.268 N 
ATOM      6  C   UNL     1       7.545   0.158  -0.493  0.00  0.00    +0.118 C 
ATOM      7  C   UNL     1       9.028   0.016  -0.874  0.00  0.00    +0.056 C 
ATOM      8  C   UNL     1       9.390   1.347  -1.494  0.00  0.00    -0.024 A 
ATOM      9  C   UNL     1       8.268   2.159  -1.484  0.00  0.00    +0.040 A 
ATOM     10  C   UNL     1       8.359   3.449  -2.010  0.00  0.00    +0.024 A 
ATOM     11  C   UNL     1       9.552   3.904  -2.531  0.00  0.00    +0.002 A 
ATOM     12  C   UNL     1      10.666   3.086  -2.537  0.00  0.00    +0.000 A 
ATOM     13  C   UNL     1      10.583   1.807  -2.018  0.00  0.00    +0.005 A 
ENDBRANCH   1   3
BRANCH   1  14
ATOM     14  O   UNL     1       3.595   1.977  -0.199  0.00  0.00    -0.449 OA
BRANCH  14  15
ATOM     15  C   UNL     1       2.482   1.217  -0.190  0.00  0.00    +0.343 C 
ATOM     16  O   UNL     1       2.570   0.013  -0.054  0.00  0.00    -0.245 OA
BRANCH  15  22
ATOM     17  C   UNL     1      -0.300   5.307  -0.814  0.00  0.00    +0.044 C 
ATOM     18  C   UNL     1      -0.188   3.814  -0.645  0.00  0.00    -0.049 A 
ATOM     19  C   UNL     1      -1.332   3.033  -0.637  0.00  0.00    +0.007 A 
ATOM     20  C   UNL     1      -1.242   1.663  -0.488  0.00  0.00    +0.046 A 
ATOM     21  C   UNL     1      -0.002   1.060  -0.336  0.00  0.00    +0.131 A 
ATOM     22  C   UNL     1       1.158   1.847  -0.345  0.00  0.00    +0.101 A 
ATOM     23  C   UNL     1       1.053   3.232  -0.501  0.00  0.00    +0.022 A 
BRANCH  21  24
ATOM     24  O   UNL     1       0.087  -0.285  -0.185  0.00  0.00    -0.506 OA
ATOM     25  H   UNL     1       0.056  -0.580   0.735  0.00  0.00    +0.292 HD
ENDBRANCH  21  24
ENDBRANCH  15  22
ENDBRANCH  14  15
ENDBRANCH   1  14
TORSDOF 5
