REMARK  Name = ZINC67099480
REMARK  5 active torsions:
REMARK  status: ('A' for Active; 'I' for Inactive)
REMARK    1  A    between atoms: C_5  and  C_7
REMARK    2  A    between atoms: C_9  and  C_12
REMARK    3  A    between atoms: C_12  and  O_13
REMARK    4  A    between atoms: O_13  and  C_14
REMARK    5  A    between atoms: C_18  and  C_20
REMARK                            x       y       z     vdW  Elec       q    Type
REMARK                         _______ _______ _______ _____ _____    ______ ____
ROOT
ATOM      1  C   UNL     1      -0.324  -5.424  -0.034  0.00  0.00    +0.308 C 
ENDROOT
BRANCH   1   4
ATOM      2  C   UNL     1       1.250  -2.160  -0.023  0.00  0.00    +0.260 A 
ATOM      3  N   UNL     1       0.201  -2.952  -0.023  0.00  0.00    -0.188 NA
ATOM      4  C   UNL     1       0.593  -4.228  -0.032  0.00  0.00    +0.209 A 
ATOM      5  N   UNL     1       1.895  -4.274  -0.039  0.00  0.00    -0.057 NA
ATOM      6  O   UNL     1       2.352  -2.930  -0.039  0.00  0.00    -0.333 OA
BRANCH   2  11
ATOM      7  C   UNL     1      -0.017   1.375   0.010  0.00  0.00    +0.001 A 
ATOM      8  C   UNL     1       1.170   2.087   0.002  0.00  0.00    +0.001 A 
ATOM      9  C   UNL     1       2.383   1.422  -0.013  0.00  0.00    +0.021 A 
ATOM     10  C   UNL     1       2.417   0.041  -0.021  0.00  0.00    +0.053 A 
ATOM     11  C   UNL     1       1.222  -0.683  -0.014  0.00  0.00    +0.058 A 
ATOM     12  C   UNL     1       0.002  -0.004   0.002  0.00  0.00    +0.015 A 
ATOM     13 CL   UNL     1       3.939  -0.792  -0.042  0.00  0.00    -0.083 Cl
ENDBRANCH   2  11
ENDBRANCH   1   4
BRANCH   1  14
ATOM     14  O   UNL     1      -0.621  -5.794  -1.382  0.00  0.00    -0.484 OA
BRANCH  14  15
ATOM     15  C   UNL     1      -1.442  -6.862  -1.562  0.00  0.00    +0.122 A 
ATOM     16  C   UNL     1      -1.955  -7.537  -0.462  0.00  0.00    +0.046 A 
ATOM     17  C   UNL     1      -2.790  -8.623  -0.641  0.00  0.00    +0.004 A 
ATOM     18  C   UNL     1      -3.119  -9.044  -1.914  0.00  0.00    +0.009 A 
ATOM     19  C   UNL     1      -2.608  -8.373  -3.023  0.00  0.00    -0.011 A 
ATOM     20  C   UNL     1      -1.771  -7.275  -2.843  0.00  0.00    +0.054 A 
BRANCH  19  21
ATOM     21  C   UNL     1      -2.961  -8.823  -4.393  0.00  0.00    +0.019 A 
ATOM     22  C   UNL     1      -3.773  -9.871  -4.713  0.00  0.00    +0.113 A 
ATOM     23  N   UNL     1      -3.833  -9.945  -6.058  0.00  0.00    -0.284 N 
ATOM     24  H   UNL     1      -4.339 -10.596  -6.570  0.00  0.00    +0.188 HD
ATOM     25  N   UNL     1      -3.041  -8.920  -6.588  0.00  0.00    -0.182 NA
ATOM     26  C   UNL     1      -2.521  -8.243  -5.599  0.00  0.00    +0.142 A 
ENDBRANCH  19  21
ENDBRANCH  14  15
ENDBRANCH   1  14
TORSDOF 5
