REMARK  Name = ZINC24000628
REMARK  7 active torsions:
REMARK  status: ('A' for Active; 'I' for Inactive)
REMARK    1  A    between atoms: C_1  and  C_2
REMARK    2  A    between atoms: C_5  and  C_8
REMARK    3  A    between atoms: C_11  and  S_13
REMARK    4  A    between atoms: S_13  and  C_14
REMARK    5  A    between atoms: C_14  and  C_16
REMARK    6  A    between atoms: C_14  and  C_17
REMARK    7  A    between atoms: C_23  and  C_26
REMARK                            x       y       z     vdW  Elec       q    Type
REMARK                         _______ _______ _______ _____ _____    ______ ____
ROOT
ATOM      1  C   UNL     1       1.371   2.631  -1.950  0.00  0.00    +0.139 C 
ATOM      2  C   UNL     1       2.258   1.514  -2.505  0.00  0.00    +0.029 C 
ENDROOT
BRANCH   1   3
ATOM      3  C   UNL     1      -0.078   2.261  -2.138  0.00  0.00    +0.229 C 
ATOM      4  O   UNL     1      -0.680   2.647  -3.118  0.00  0.00    -0.274 OA
ATOM      5  N   UNL     1      -0.705   1.502  -1.218  0.00  0.00    -0.300 N 
ATOM      6  C   UNL     1      -2.144   1.226  -1.329  0.00  0.00    +0.108 C 
ATOM      7  C   UNL     1      -2.364  -0.289  -1.278  0.00  0.00    +0.020 C 
ATOM      8  C   UNL     1      -1.710  -0.849  -0.009  0.00  0.00    +0.016 C 
ATOM      9  C   UNL     1      -0.204  -0.578  -0.044  0.00  0.00    +0.092 C 
ATOM     10  C   UNL     1       0.038   0.934  -0.084  0.00  0.00    +0.120 C 
BRANCH   9  11
ATOM     11  C   UNL     1       0.441  -1.158   1.188  0.00  0.00    +0.215 C 
ATOM     12  O   UNL     1       1.036  -0.434   1.959  0.00  0.00    -0.276 OA
ATOM     13  N   UNL     1       0.358  -2.481   1.433  0.00  0.00    -0.329 N 
ATOM     14  H   UNL     1       0.829  -2.904   2.333  0.00  0.00    +0.145 HD
ATOM     15  H   UNL     1      -0.181  -3.137   0.734  0.00  0.00    +0.145 HD
ENDBRANCH   9  11
ENDBRANCH   1   3
BRANCH   1  16
ATOM     16  S   UNL     1       1.720   4.173  -2.832  0.00  0.00    -0.053 S 
BRANCH  16  20
ATOM     17  C   UNL     1       5.362   5.279  -2.083  0.00  0.00    +0.249 A 
ATOM     18  N   UNL     1       5.268   4.173  -1.386  0.00  0.00    -0.106 NA
ATOM     19  N   UNL     1       4.090   3.676  -1.528  0.00  0.00    -0.101 NA
ATOM     20  C   UNL     1       3.387   4.441  -2.331  0.00  0.00    +0.278 A 
ATOM     21  O   UNL     1       4.173   5.472  -2.695  0.00  0.00    -0.411 OA
BRANCH  17  26
ATOM     22  C   UNL     1       9.984   8.685  -2.464  0.00  0.00    +0.044 C 
ATOM     23  C   UNL     1       8.773   7.793  -2.364  0.00  0.00    -0.050 A 
ATOM     24  C   UNL     1       8.822   6.650  -1.585  0.00  0.00    +0.004 A 
ATOM     25  C   UNL     1       7.717   5.830  -1.489  0.00  0.00    +0.013 A 
ATOM     26  C   UNL     1       6.548   6.154  -2.180  0.00  0.00    +0.039 A 
ATOM     27  C   UNL     1       6.508   7.305  -2.969  0.00  0.00    +0.013 A 
ATOM     28  C   UNL     1       7.618   8.120  -3.052  0.00  0.00    +0.004 A 
ENDBRANCH  17  26
ENDBRANCH  16  20
ENDBRANCH   1  16
TORSDOF 5
