REMARK  Name = ZINC04254199
REMARK  9 active torsions:
REMARK  status: ('A' for Active; 'I' for Inactive)
REMARK    1  A    between atoms: C_1  and  C_2
REMARK    2  A    between atoms: C_6  and  N_8
REMARK    3  A    between atoms: N_8  and  C_9
REMARK    4  A    between atoms: C_9  and  C_10
REMARK    5  A    between atoms: C_9  and  C_11
REMARK    6  A    between atoms: C_9  and  C_12
REMARK    7  A    between atoms: N_16  and  C_17
REMARK    8  A    between atoms: C_18  and  C_24
REMARK    9  A    between atoms: C_22  and  C_23
REMARK                            x       y       z     vdW  Elec       q    Type
REMARK                         _______ _______ _______ _____ _____    ______ ____
ROOT
ATOM      1  C   UNL     1       1.127   7.380  -3.806  0.00  0.00    +0.179 A 
ATOM      2  N   UNL     1       1.277   6.807  -4.971  0.00  0.00    -0.111 NA
ATOM      3  N   UNL     1       0.814   7.556  -5.907  0.00  0.00    -0.023 NA
ATOM      4  N   UNL     1       0.349   8.651  -5.411  0.00  0.00    -0.039 NA
ATOM      5  N   UNL     1       0.536   8.576  -4.020  0.00  0.00    -0.194 N 
ENDROOT
BRANCH   5   6
ATOM      6  C   UNL     1       0.185   9.537  -3.060  0.00  0.00    +0.075 A 
ATOM      7  C   UNL     1       1.158  10.367  -2.519  0.00  0.00    -0.025 A 
ATOM      8  C   UNL     1       0.808  11.315  -1.577  0.00  0.00    +0.005 A 
ATOM      9  C   UNL     1      -0.507  11.430  -1.165  0.00  0.00    +0.001 A 
ATOM     10  C   UNL     1      -1.476  10.601  -1.698  0.00  0.00    +0.005 A 
ATOM     11  C   UNL     1      -1.134   9.654  -2.644  0.00  0.00    -0.025 A 
ATOM     12  C   UNL     1      -2.191   8.750  -3.223  0.00  0.00    +0.046 C 
ATOM     13  C   UNL     1       2.592  10.239  -2.964  0.00  0.00    +0.046 C 
ENDBRANCH   5   6
BRANCH   1  14
ATOM     14  C   UNL     1       1.542   6.815  -2.472  0.00  0.00    +0.088 C 
ATOM     15  C   UNL     1       1.565   5.287  -2.551  0.00  0.00    +0.039 C 
ATOM     16  C   UNL     1       0.544   7.255  -1.399  0.00  0.00    +0.039 C 
BRANCH  14  17
ATOM     17  N   UNL     1       2.878   7.306  -2.127  0.00  0.00    -0.332 N 
ATOM     18  H   UNL     1       3.317   7.958  -2.696  0.00  0.00    +0.147 HD
BRANCH  17  24
ATOM     19  C   UNL     1       6.874   7.178   0.731  0.00  0.00    +0.044 C 
ATOM     20  C   UNL     1       5.458   6.757   0.431  0.00  0.00    -0.049 A 
ATOM     21  C   UNL     1       4.794   5.903   1.293  0.00  0.00    +0.003 A 
ATOM     22  C   UNL     1       3.494   5.519   1.024  0.00  0.00    +0.002 A 
ATOM     23  C   UNL     1       2.855   5.982  -0.110  0.00  0.00    +0.023 A 
ATOM     24  C   UNL     1       3.521   6.835  -0.980  0.00  0.00    +0.028 A 
ATOM     25  C   UNL     1       4.828   7.219  -0.707  0.00  0.00    +0.026 A 
ENDBRANCH  17  24
ENDBRANCH  14  17
ENDBRANCH   1  14
TORSDOF 4
