REMARK  Name = ZINC17402026
REMARK  10 active torsions:
REMARK  status: ('A' for Active; 'I' for Inactive)
REMARK    1  A    between atoms: C_1  and  C_2
REMARK    2  A    between atoms: C_2  and  C_4
REMARK    3  A    between atoms: C_2  and  N_21
REMARK    4  A    between atoms: N_6  and  N_7
REMARK    5  A    between atoms: C_8  and  C_10
REMARK    6  A    between atoms: C_10  and  N_11
REMARK    7  A    between atoms: N_21  and  S_22
REMARK    8  A    between atoms: S_22  and  C_25
REMARK    9  A    between atoms: C_28  and  N_31
REMARK   10  A    between atoms: C_32  and  C_34
REMARK                            x       y       z     vdW  Elec       q    Type
REMARK                         _______ _______ _______ _____ _____    ______ ____
ROOT
ATOM      1  C   UNL     1      -0.187   8.167   3.467  0.00  0.00    +0.247 C 
ATOM      2  O   UNL     1      -1.354   8.277   3.778  0.00  0.00    -0.273 OA
ATOM      3  N   UNL     1       0.739   7.901   4.409  0.00  0.00    -0.233 N 
ATOM      4  H   UNL     1       1.672   7.812   4.160  0.00  0.00    +0.173 HD
ENDROOT
BRANCH   3   5
ATOM      5  N   UNL     1       0.353   7.752   5.748  0.00  0.00    -0.233 N 
ATOM      6  C   UNL     1       1.280   7.485   6.690  0.00  0.00    +0.246 C 
ATOM      7  O   UNL     1       2.447   7.375   6.379  0.00  0.00    -0.273 OA
ATOM      8  H   UNL     1      -0.580   7.840   5.996  0.00  0.00    +0.173 HD
BRANCH   6   9
ATOM      9  C   UNL     1       0.865   7.325   8.130  0.00  0.00    +0.202 C 
BRANCH   9  10
ATOM     10  N   UNL     1       2.060   7.166   8.969  0.00  0.00    -0.321 N 
ATOM     11  C   UNL     1       2.869   8.386   8.967  0.00  0.00    +0.106 C 
ATOM     12  C   UNL     1       4.114   8.152   9.832  0.00  0.00    +0.024 C 
ATOM     13  C   UNL     1       5.000   7.131   9.115  0.00  0.00    +0.038 C 
ATOM     14  C   UNL     1       4.162   5.964   8.658  0.00  0.00    -0.026 A 
ATOM     15  C   UNL     1       2.781   6.030   8.602  0.00  0.00    +0.033 A 
ATOM     16  C   UNL     1       2.059   4.919   8.162  0.00  0.00    +0.023 A 
ATOM     17  C   UNL     1       2.713   3.764   7.790  0.00  0.00    +0.002 A 
ATOM     18  C   UNL     1       4.093   3.702   7.854  0.00  0.00    +0.000 A 
ATOM     19  C   UNL     1       4.813   4.798   8.286  0.00  0.00    +0.005 A 
ENDBRANCH   9  10
ENDBRANCH   6   9
ENDBRANCH   3   5
BRANCH   1  21
ATOM     20  C   UNL     1       1.220   9.486   1.908  0.00  0.00    +0.035 C 
ATOM     21  C   UNL     1       0.228   8.327   2.027  0.00  0.00    +0.160 C 
BRANCH  21  22
ATOM     22  N   UNL     1      -0.953   8.610   1.207  0.00  0.00    -0.178 NA
ATOM     23  H   UNL     1      -1.678   9.145   1.568  0.00  0.00    +0.149 HD
BRANCH  22  24
ATOM     24  S   UNL     1      -1.052   8.015  -0.335  0.00  0.00    +0.059 S 
ATOM     25  O   UNL     1       0.177   8.335  -0.973  0.00  0.00    -0.153 OA
ATOM     26  O   UNL     1      -2.308   8.432  -0.852  0.00  0.00    -0.153 OA
BRANCH  24  27
ATOM     27  C   UNL     1      -1.115   6.259  -0.214  0.00  0.00    +0.105 A 
ATOM     28  C   UNL     1      -2.336   5.618  -0.108  0.00  0.00    +0.030 A 
ATOM     29  C   UNL     1      -2.388   4.241  -0.013  0.00  0.00    +0.025 A 
ATOM     30  C   UNL     1      -1.214   3.500  -0.023  0.00  0.00    +0.033 A 
ATOM     31  C   UNL     1       0.011   4.147  -0.124  0.00  0.00    +0.025 A 
ATOM     32  C   UNL     1       0.057   5.524  -0.224  0.00  0.00    +0.030 A 
BRANCH  30  33
ATOM     33  N   UNL     1      -1.264   2.105   0.073  0.00  0.00    -0.286 N 
ATOM     34  C   UNL     1      -2.275   1.426  -0.503  0.00  0.00    +0.214 C 
ATOM     35  O   UNL     1      -3.185   2.027  -1.034  0.00  0.00    -0.276 OA
ATOM     36  C   UNL     1      -2.278  -0.081  -0.483  0.00  0.00    +0.109 C 
ATOM     37  H   UNL     1      -0.571   1.627   0.555  0.00  0.00    +0.155 HD
ENDBRANCH  30  33
ENDBRANCH  24  27
ENDBRANCH  22  24
ENDBRANCH  21  22
ENDBRANCH   1  21
TORSDOF 8
