REMARK  Name = ZINC40780933
REMARK  2 active torsions:
REMARK  status: ('A' for Active; 'I' for Inactive)
REMARK    1  A    between atoms: C_14  and  N_25
REMARK    2  A    between atoms: C_15  and  N_19
REMARK                            x       y       z     vdW  Elec       q    Type
REMARK                         _______ _______ _______ _____ _____    ______ ____
ROOT
ATOM      1  C   UNL     1       2.379   1.436   0.016  0.00  0.00    +0.005 A 
ATOM      2  C   UNL     1       1.137   2.057   0.002  0.00  0.00    +0.018 A 
ATOM      3  C   UNL     1      -0.006   1.283  -0.019  0.00  0.00    +0.084 A 
ATOM      4  N   UNL     1       0.069  -0.035  -0.027  0.00  0.00    -0.350 N 
ATOM      5  C   UNL     1       1.234  -0.664  -0.014  0.00  0.00    +0.099 A 
ATOM      6  C   UNL     1       2.426   0.054   0.008  0.00  0.00    +0.042 A 
ATOM      7  N   UNL     1       1.267  -2.053  -0.022  0.00  0.00    -0.314 N 
ATOM      8  C   UNL     1       2.544  -2.771  -0.140  0.00  0.00    +0.125 C 
ATOM      9  C   UNL     1       2.674  -3.738   1.044  0.00  0.00    +0.125 C 
ATOM     10  N   UNL     1       1.432  -4.516   1.153  0.00  0.00    -0.311 N 
ATOM     11  C   UNL     1       0.154  -3.798   1.271  0.00  0.00    +0.125 C 
ATOM     12  C   UNL     1       0.025  -2.831   0.093  0.00  0.00    +0.125 C 
ATOM     13  C   UNL     1       1.464  -5.905   1.145  0.00  0.00    +0.147 A 
ATOM     14  C   UNL     1       1.486  -6.621   2.344  0.00  0.00    +0.106 A 
ATOM     15  C   UNL     1       1.518  -8.015   2.279  0.00  0.00    +0.150 A 
ATOM     16  N   UNL     1       1.526  -8.604   1.085  0.00  0.00    -0.219 NA
ATOM     17  C   UNL     1       1.505  -7.891  -0.022  0.00  0.00    +0.225 A 
ATOM     18  N   UNL     1       1.469  -6.574  -0.005  0.00  0.00    -0.219 NA
ATOM     19  H   UNL     1      -0.749  -0.555  -0.042  0.00  0.00    +0.166 HD
ENDROOT
BRANCH  15  20
ATOM     20  N   UNL     1       1.542  -8.776   3.443  0.00  0.00    -0.277 N 
ATOM     21  C   UNL     1       1.573 -10.161   3.365  0.00  0.00    +0.163 A 
ATOM     22  N   UNL     1       1.591 -10.920   2.290  0.00  0.00    -0.233 NA
ATOM     23  C   UNL     1       1.622 -12.237   2.386  0.00  0.00    +0.120 A 
ATOM     24  C   UNL     1       1.633 -12.764   3.634  0.00  0.00    +0.068 A 
ATOM     25  S   UNL     1       1.605 -11.278   4.623  0.00  0.00    -0.061 S 
ATOM     26  H   UNL     1       1.536  -8.338   4.308  0.00  0.00    +0.156 HD
ENDBRANCH  15  20
BRANCH  14  27
ATOM     27  N   UNL     1       1.477  -5.957   3.581  0.00  0.00    -0.353 N 
ATOM     28  H   UNL     1       1.381  -4.992   3.613  0.00  0.00    +0.143 HD
ATOM     29  H   UNL     1       1.566  -6.463   4.404  0.00  0.00    +0.143 HD
ENDBRANCH  14  27
TORSDOF 2
