REMARK  Name = ZINC59890290
REMARK  12 active torsions:
REMARK  status: ('A' for Active; 'I' for Inactive)
REMARK    1  A    between atoms: C_1  and  C_2
REMARK    2  A    between atoms: C_4  and  C_33
REMARK    3  A    between atoms: C_5  and  S_9
REMARK    4  A    between atoms: C_6  and  C_8
REMARK    5  A    between atoms: S_9  and  N_12
REMARK    6  A    between atoms: C_15  and  C_18
REMARK    7  A    between atoms: N_20  and  C_21
REMARK    8  A    between atoms: C_21  and  C_22
REMARK    9  A    between atoms: C_22  and  N_30
REMARK   10  A    between atoms: C_26  and  C_29
REMARK   11  A    between atoms: N_30  and  C_31
REMARK   12  A    between atoms: N_30  and  C_32
REMARK                            x       y       z     vdW  Elec       q    Type
REMARK                         _______ _______ _______ _____ _____    ______ ____
ROOT
ATOM      1  N   UNL     1      -0.247  -5.918   0.740  0.00  0.00    -0.177 NA
ATOM      2  C   UNL     1       0.505  -6.175  -0.496  0.00  0.00    +0.110 C 
ATOM      3  C   UNL     1       0.817  -7.672  -0.580  0.00  0.00    +0.030 C 
ATOM      4  C   UNL     1       1.537  -8.112   0.697  0.00  0.00    +0.077 C 
ATOM      5  C   UNL     1       0.628  -7.875   1.905  0.00  0.00    +0.030 C 
ATOM      6  C   UNL     1       0.316  -6.375   2.018  0.00  0.00    +0.110 C 
ENDROOT
BRANCH   4   7
ATOM      7  C   UNL     1       1.877  -9.577   0.603  0.00  0.00    +0.216 C 
ATOM      8  O   UNL     1       1.572 -10.208  -0.387  0.00  0.00    -0.276 OA
ATOM      9  N   UNL     1       2.518 -10.187   1.620  0.00  0.00    -0.316 N 
ATOM     10  H   UNL     1       2.761  -9.683   2.412  0.00  0.00    +0.149 HD
BRANCH   9  11
ATOM     11  C   UNL     1       2.847 -11.611   1.528  0.00  0.00    +0.092 C 
BRANCH  11  12
ATOM     12  C   UNL     1       3.670 -12.024   2.751  0.00  0.00    -0.050 C 
ATOM     13  C   UNL     1       2.854 -11.776   4.021  0.00  0.00    -0.010 C 
ATOM     14  C   UNL     1       1.567 -12.602   3.970  0.00  0.00    -0.001 C 
ATOM     15  C   UNL     1       1.917 -14.088   3.871  0.00  0.00    +0.003 C 
ATOM     16  C   UNL     1       2.733 -14.335   2.601  0.00  0.00    -0.015 C 
ATOM     17  C   UNL     1       4.020 -13.510   2.652  0.00  0.00    -0.007 C 
ATOM     18  C   UNL     1       3.084 -15.822   2.502  0.00  0.00    +0.007 C 
BRANCH  12  19
ATOM     19  N   UNL     1       4.905 -11.231   2.800  0.00  0.00    +0.381 N 
ATOM     20  C   UNL     1       5.734 -11.685   3.925  0.00  0.00    -0.096 C 
ATOM     21  C   UNL     1       5.648 -11.404   1.545  0.00  0.00    -0.096 C 
ATOM     22  H   UNL     1       4.675 -10.257   2.924  0.00  0.00    -0.082 HD
ENDBRANCH  12  19
ENDBRANCH  11  12
ENDBRANCH   9  11
ENDBRANCH   4   7
BRANCH   1  23
ATOM     23  S   UNL     1      -1.698  -5.120   0.694  0.00  0.00    +0.061 S 
ATOM     24  O   UNL     1      -2.408  -5.502   1.865  0.00  0.00    -0.153 OA
ATOM     25  O   UNL     1      -2.224  -5.310  -0.612  0.00  0.00    -0.153 OA
BRANCH  23  30
ATOM     26  C   UNL     1      -0.511   0.770   1.239  0.00  0.00    +0.044 C 
ATOM     27  C   UNL     1      -0.807  -0.701   1.103  0.00  0.00    -0.050 A 
ATOM     28  C   UNL     1      -1.040  -1.466   2.230  0.00  0.00    +0.008 A 
ATOM     29  C   UNL     1      -1.312  -2.816   2.106  0.00  0.00    -0.024 A 
ATOM     30  C   UNL     1      -1.352  -3.400   0.853  0.00  0.00    +0.111 A 
ATOM     31  C   UNL     1      -1.120  -2.634  -0.274  0.00  0.00    -0.024 A 
ATOM     32  C   UNL     1      -0.852  -1.284  -0.150  0.00  0.00    +0.008 A 
ATOM     33  C   UNL     1      -1.163  -3.271  -1.639  0.00  0.00    +0.046 C 
ATOM     34  C   UNL     1      -1.565  -3.650   3.335  0.00  0.00    +0.046 C 
ENDBRANCH  23  30
ENDBRANCH   1  23
TORSDOF 6
