REMARK  Name = ZINC39862501
REMARK  5 active torsions:
REMARK  status: ('A' for Active; 'I' for Inactive)
REMARK    1  A    between atoms: C_2  and  C_3
REMARK    2  A    between atoms: C_3  and  N_4
REMARK    3  A    between atoms: C_8  and  C_9
REMARK    4  A    between atoms: C_12  and  O_15
REMARK    5  A    between atoms: N_18  and  C_19
REMARK                            x       y       z     vdW  Elec       q    Type
REMARK                         _______ _______ _______ _____ _____    ______ ____
ROOT
ATOM      1  N   UNL     1       2.352  -1.964   0.965  0.00  0.00    -0.242 N 
ATOM      2  C   UNL     1       2.513  -1.469   2.180  0.00  0.00    +0.259 C 
ATOM      3  O   UNL     1       2.881  -0.322   2.355  0.00  0.00    -0.269 OA
ATOM      4  C   UNL     1       2.228  -2.369   3.313  0.00  0.00    +0.078 C 
ATOM      5  C   UNL     1       2.308  -2.127   4.646  0.00  0.00    +0.028 C 
ATOM      6  S   UNL     1       1.747  -3.863   2.458  0.00  0.00    -0.049 S 
ATOM      7  C   UNL     1       1.930  -3.262   0.786  0.00  0.00    +0.170 C 
ATOM      8  N   UNL     1       1.715  -3.905  -0.342  0.00  0.00    -0.206 NA
ENDROOT
BRANCH   5   9
ATOM      9  C   UNL     1       2.133  -3.228   5.604  0.00  0.00    -0.024 A 
ATOM     10  C   UNL     1       2.238  -4.556   5.174  0.00  0.00    +0.011 A 
ATOM     11  C   UNL     1       2.074  -5.583   6.076  0.00  0.00    +0.046 A 
ATOM     12  C   UNL     1       1.802  -5.304   7.410  0.00  0.00    +0.117 A 
ATOM     13  C   UNL     1       1.696  -3.987   7.842  0.00  0.00    +0.046 A 
ATOM     14  C   UNL     1       1.865  -2.951   6.950  0.00  0.00    +0.011 A 
BRANCH  12  15
ATOM     15  O   UNL     1       1.640  -6.321   8.295  0.00  0.00    -0.507 OA
ATOM     16  H   UNL     1       2.459  -6.603   8.724  0.00  0.00    +0.292 HD
ENDBRANCH  12  15
ENDBRANCH   5   9
BRANCH   8  17
ATOM     17  C   UNL     1       1.295  -5.202  -0.319  0.00  0.00    +0.155 A 
ATOM     18  C   UNL     1       1.074  -5.883  -1.521  0.00  0.00    +0.048 A 
ATOM     19  C   UNL     1       0.648  -7.196  -1.479  0.00  0.00    +0.005 A 
ATOM     20  C   UNL     1       0.455  -7.793  -0.239  0.00  0.00    +0.020 A 
ATOM     21  C   UNL     1       0.692  -7.065   0.910  0.00  0.00    +0.113 A 
ATOM     22  N   UNL     1       1.103  -5.814   0.847  0.00  0.00    -0.236 NA
ENDBRANCH   8  17
BRANCH   1  23
ATOM     23  C   UNL     1       2.618  -1.122  -0.204  0.00  0.00    +0.142 C 
BRANCH  23  25
ATOM     24  C   UNL     1       1.360   0.911  -0.697  0.00  0.00    +0.005 C 
ATOM     25  C   UNL     1       1.358  -0.395  -0.597  0.00  0.00    -0.015 C 
ENDBRANCH  23  25
ENDBRANCH   1  23
TORSDOF 5
