REMARK  Name = ZINC04018726
REMARK  8 active torsions:
REMARK  status: ('A' for Active; 'I' for Inactive)
REMARK    1  A    between atoms: C_6  and  C_7
REMARK    2  A    between atoms: C_12  and  O_18
REMARK    3  A    between atoms: O_18  and  C_19
REMARK    4  A    between atoms: C_21  and  O_34
REMARK    5  A    between atoms: C_23  and  O_33
REMARK    6  A    between atoms: C_25  and  O_32
REMARK    7  A    between atoms: C_27  and  C_30
REMARK    8  A    between atoms: C_30  and  O_31
REMARK                            x       y       z     vdW  Elec       q    Type
REMARK                         _______ _______ _______ _____ _____    ______ ____
ROOT
ATOM      1  C   UNL     1       3.696  -0.702  -0.046  0.00  0.00    +0.064 A 
ATOM      2  C   UNL     1       4.654  -0.385  -0.954  0.00  0.00    +0.208 A 
ATOM      3  O   UNL     1       5.833  -1.011  -1.003  0.00  0.00    -0.462 OA
ATOM      4  C   UNL     1       6.174  -2.013  -0.169  0.00  0.00    +0.142 A 
ATOM      5  C   UNL     1       7.414  -2.629  -0.274  0.00  0.00    +0.092 A 
ATOM      6  C   UNL     1       7.747  -3.658   0.591  0.00  0.00    +0.128 A 
ATOM      7  C   UNL     1       6.849  -4.083   1.567  0.00  0.00    +0.047 A 
ATOM      8  C   UNL     1       5.625  -3.489   1.683  0.00  0.00    +0.019 A 
ATOM      9  C   UNL     1       5.274  -2.450   0.819  0.00  0.00    +0.065 A 
ATOM     10  C   UNL     1       3.962  -1.785   0.915  0.00  0.00    +0.200 A 
ATOM     11  O   UNL     1       3.138  -2.116   1.750  0.00  0.00    -0.286 OA
ENDROOT
BRANCH   1  17
ATOM     12  C   UNL     1       1.204  -0.683  -0.016  0.00  0.00    +0.012 A 
ATOM     13  C   UNL     1       0.002  -0.004   0.002  0.00  0.00    +0.050 A 
ATOM     14  C   UNL     1      -0.017   1.383   0.010  0.00  0.00    +0.162 A 
ATOM     15  C   UNL     1       1.178   2.096   0.002  0.00  0.00    +0.163 A 
ATOM     16  C   UNL     1       2.386   1.419  -0.017  0.00  0.00    +0.058 A 
ATOM     17  C   UNL     1       2.403   0.026  -0.026  0.00  0.00    -0.008 A 
ATOM     18  O   UNL     1       1.178   3.457   0.018  0.00  0.00    -0.485 OA
ATOM     19  C   UNL     1      -0.048   4.105  -0.340  0.00  0.00    +0.270 C 
ATOM     20  C   UNL     1      -1.194   3.411   0.409  0.00  0.00    +0.270 C 
ATOM     21  O   UNL     1      -1.214   2.033   0.019  0.00  0.00    -0.485 OA
ENDBRANCH   1  17
BRANCH   6  22
ATOM     22  O   UNL     1       8.961  -4.257   0.486  0.00  0.00    -0.461 OA
BRANCH  22  23
ATOM     23  C   UNL     1       9.245  -5.312   1.408  0.00  0.00    +0.339 C 
ATOM     24  C   UNL     1      10.724  -5.693   1.308  0.00  0.00    +0.214 C 
ATOM     25  C   UNL     1      11.007  -6.864   2.254  0.00  0.00    +0.180 C 
ATOM     26  C   UNL     1      10.080  -8.030   1.896  0.00  0.00    +0.177 C 
ATOM     27  C   UNL     1       8.626  -7.559   1.974  0.00  0.00    +0.179 C 
ATOM     28  O   UNL     1       8.439  -6.449   1.093  0.00  0.00    -0.331 OA
BRANCH  26  29
ATOM     29  O   UNL     1      10.367  -8.478   0.570  0.00  0.00    -0.386 OA
ATOM     30  H   UNL     1      11.274  -8.792   0.448  0.00  0.00    +0.210 HD
ENDBRANCH  26  29
BRANCH  25  31
ATOM     31  O   UNL     1      12.368  -7.274   2.113  0.00  0.00    -0.386 OA
ATOM     32  H   UNL     1      13.011  -6.583   2.324  0.00  0.00    +0.210 HD
ENDBRANCH  25  31
BRANCH  24  33
ATOM     33  O   UNL     1      11.532  -4.574   1.678  0.00  0.00    -0.383 OA
ATOM     34  H   UNL     1      11.400  -3.793   1.123  0.00  0.00    +0.210 HD
ENDBRANCH  24  33
BRANCH  27  35
ATOM     35  C   UNL     1       7.696  -8.701   1.560  0.00  0.00    +0.190 C 
BRANCH  35  36
ATOM     36  O   UNL     1       6.337  -8.299   1.742  0.00  0.00    -0.392 OA
ATOM     37  H   UNL     1       5.691  -8.976   1.499  0.00  0.00    +0.210 HD
ENDBRANCH  35  36
ENDBRANCH  27  35
ENDBRANCH  22  23
ENDBRANCH   6  22
TORSDOF 8
