REMARK  Name = ZINC21022472
REMARK  10 active torsions:
REMARK  status: ('A' for Active; 'I' for Inactive)
REMARK    1  A    between atoms: C_1  and  C_2
REMARK    2  A    between atoms: C_8  and  S_28
REMARK    3  A    between atoms: C_12  and  C_14
REMARK    4  A    between atoms: N_16  and  C_17
REMARK    5  A    between atoms: C_17  and  C_18
REMARK    6  A    between atoms: C_18  and  N_19
REMARK    7  A    between atoms: N_19  and  C_20
REMARK    8  A    between atoms: N_19  and  C_21
REMARK    9  A    between atoms: C_21  and  C_22
REMARK   10  A    between atoms: S_28  and  N_31
REMARK                            x       y       z     vdW  Elec       q    Type
REMARK                         _______ _______ _______ _____ _____    ______ ____
ROOT
ATOM      1  C   UNL     1      -2.721   0.630  -7.446  0.00  0.00    +0.109 C 
ATOM      2  C   UNL     1      -1.901   0.434  -6.197  0.00  0.00    +0.217 C 
ATOM      3  O   UNL     1      -2.302  -0.297  -5.317  0.00  0.00    -0.276 OA
ATOM      4  N   UNL     1      -0.721   1.071  -6.059  0.00  0.00    -0.259 N 
ATOM      5  C   UNL     1      -0.161   1.935  -7.005  0.00  0.00    +0.040 A 
ATOM      6  C   UNL     1      -0.657   2.326  -8.250  0.00  0.00    +0.026 A 
ATOM      7  C   UNL     1       0.060   3.198  -9.041  0.00  0.00    +0.030 A 
ATOM      8  C   UNL     1       1.276   3.693  -8.607  0.00  0.00    +0.106 A 
ATOM      9  C   UNL     1       1.774   3.311  -7.375  0.00  0.00    +0.034 A 
ATOM     10  C   UNL     1       1.059   2.436  -6.579  0.00  0.00    -0.022 A 
ATOM     11  C   UNL     1       1.366   1.862  -5.212  0.00  0.00    +0.069 C 
ATOM     12  C   UNL     1       0.162   0.960  -4.895  0.00  0.00    +0.171 C 
ENDROOT
BRANCH  12  13
ATOM     13  C   UNL     1      -0.543   1.446  -3.655  0.00  0.00    +0.234 C 
ATOM     14  O   UNL     1      -1.540   2.130  -3.753  0.00  0.00    -0.274 OA
ATOM     15  N   UNL     1      -0.067   1.120  -2.437  0.00  0.00    -0.316 N 
ATOM     16  H   UNL     1       0.837   0.499  -2.348  0.00  0.00    +0.149 HD
BRANCH  15  17
ATOM     17  C   UNL     1      -0.753   1.593  -1.232  0.00  0.00    +0.086 C 
BRANCH  17  18
ATOM     18  C   UNL     1      -0.013   1.086   0.008  0.00  0.00    -0.060 C 
BRANCH  18  19
ATOM     19  N   UNL     1      -0.700   1.560   1.217  0.00  0.00    +0.382 N 
ATOM     20  C   UNL     1      -0.615   3.022   1.332  0.00  0.00    -0.096 C 
ATOM     21  H   UNL     1      -1.763   1.289   1.129  0.00  0.00    -0.082 HD
BRANCH  19  22
ATOM     22  C   UNL     1      -0.165   0.904   2.418  0.00  0.00    -0.043 C 
BRANCH  22  23
ATOM     23  C   UNL     1      -1.046   1.223   3.598  0.00  0.00    -0.064 A 
ATOM     24  C   UNL     1      -0.784   2.335   4.376  0.00  0.00    +0.002 A 
ATOM     25  C   UNL     1      -1.595   2.630   5.456  0.00  0.00    +0.000 A 
ATOM     26  C   UNL     1      -2.662   1.807   5.764  0.00  0.00    +0.000 A 
ATOM     27  C   UNL     1      -2.921   0.692   4.990  0.00  0.00    +0.000 A 
ATOM     28  C   UNL     1      -2.113   0.400   3.906  0.00  0.00    +0.002 A 
ENDBRANCH  22  23
ENDBRANCH  19  22
ENDBRANCH  18  19
ENDBRANCH  17  18
ENDBRANCH  15  17
ENDBRANCH  12  13
BRANCH   8  29
ATOM     29  S   UNL     1       2.189   4.808  -9.621  0.00  0.00    +0.061 S 
ATOM     30  O   UNL     1       1.249   5.432 -10.486  0.00  0.00    -0.153 OA
ATOM     31  O   UNL     1       3.033   5.549  -8.752  0.00  0.00    -0.153 OA
BRANCH  29  32
ATOM     32  N   UNL     1       3.182   3.895 -10.581  0.00  0.00    -0.177 NA
ATOM     33  C   UNL     1       4.554   3.484 -10.249  0.00  0.00    +0.109 C 
ATOM     34  C   UNL     1       5.093   2.673 -11.446  0.00  0.00    +0.018 C 
ATOM     35  C   UNL     1       4.203   3.159 -12.620  0.00  0.00    +0.018 C 
ATOM     36  C   UNL     1       2.840   3.365 -11.914  0.00  0.00    +0.109 C 
ENDBRANCH  29  32
ENDBRANCH   8  29
TORSDOF 8
