REMARK  Name = ZINC21604687
REMARK  10 active torsions:
REMARK  status: ('A' for Active; 'I' for Inactive)
REMARK    1  A    between atoms: C_1  and  C_2
REMARK    2  A    between atoms: C_2  and  C_4
REMARK    3  A    between atoms: C_2  and  S_13
REMARK    4  A    between atoms: S_13  and  C_14
REMARK    5  A    between atoms: C_17  and  C_20
REMARK    6  A    between atoms: N_18  and  N_19
REMARK    7  A    between atoms: C_23  and  O_28
REMARK    8  A    between atoms: C_24  and  O_26
REMARK    9  A    between atoms: O_26  and  C_27
REMARK   10  A    between atoms: O_28  and  C_29
REMARK                            x       y       z     vdW  Elec       q    Type
REMARK                         _______ _______ _______ _____ _____    ______ ____
ROOT
ATOM      1  C   UNL     1      -3.335   5.474   3.811  0.00  0.00    +0.209 A 
ATOM      2  N   UNL     1      -2.973   4.636   4.756  0.00  0.00    -0.121 NA
ATOM      3  N   UNL     1      -2.829   5.262   5.869  0.00  0.00    -0.127 NA
ATOM      4  C   UNL     1      -3.091   6.537   5.704  0.00  0.00    +0.182 A 
ATOM      5  N   UNL     1      -3.417   6.714   4.379  0.00  0.00    -0.224 N 
ENDROOT
BRANCH   4   6
ATOM      6  C   UNL     1      -3.038   7.587   6.743  0.00  0.00    +0.024 A 
ATOM      7  C   UNL     1      -3.671   8.813   6.531  0.00  0.00    +0.015 A 
ATOM      8  C   UNL     1      -3.622   9.792   7.502  0.00  0.00    +0.050 A 
ATOM      9  C   UNL     1      -2.944   9.561   8.690  0.00  0.00    +0.162 A 
ATOM     10  C   UNL     1      -2.310   8.340   8.908  0.00  0.00    +0.162 A 
ATOM     11  C   UNL     1      -2.362   7.353   7.941  0.00  0.00    +0.061 A 
BRANCH  10  12
ATOM     12  O   UNL     1      -1.646   8.117  10.073  0.00  0.00    -0.491 OA
ATOM     13  C   UNL     1      -1.019   6.842  10.229  0.00  0.00    +0.277 C 
ENDBRANCH  10  12
BRANCH   9  14
ATOM     14  O   UNL     1      -2.898  10.529   9.644  0.00  0.00    -0.491 OA
ATOM     15  C   UNL     1      -3.569  11.757   9.355  0.00  0.00    +0.277 C 
ENDBRANCH   9  14
ENDBRANCH   4   6
BRANCH   5  16
ATOM     16  N   UNL     1      -3.755   7.884   3.761  0.00  0.00    -0.295 N 
ATOM     17  H   UNL     1      -3.785   8.821   4.336  0.00  0.00    +0.163 HD
ATOM     18  H   UNL     1      -3.999   7.889   2.688  0.00  0.00    +0.163 HD
ENDBRANCH   5  16
BRANCH   1  19
ATOM     19  S   UNL     1      -3.649   5.074   2.124  0.00  0.00    -0.072 S 
BRANCH  19  21
ATOM     20  C   UNL     1      -4.366   2.606   3.049  0.00  0.00    +0.029 C 
ATOM     21  C   UNL     1      -3.329   3.293   2.158  0.00  0.00    +0.137 C 
BRANCH  21  22
ATOM     22  C   UNL     1      -3.421   2.739   0.760  0.00  0.00    +0.229 C 
ATOM     23  O   UNL     1      -4.015   3.356  -0.099  0.00  0.00    -0.274 OA
ATOM     24  N   UNL     1      -2.843   1.558   0.463  0.00  0.00    -0.301 N 
ATOM     25  C   UNL     1      -2.143   0.847   1.509  0.00  0.00    +0.108 C 
ATOM     26  C   UNL     1      -0.664   1.298   1.539  0.00  0.00    +0.019 C 
ATOM     27  C   UNL     1       0.056   0.778   0.367  0.00  0.00    +0.002 C 
ATOM     28  C   UNL     1      -0.467   1.295  -0.969  0.00  0.00    +0.002 C 
ATOM     29  C   UNL     1      -1.627   0.441  -1.417  0.00  0.00    +0.019 C 
ATOM     30  C   UNL     1      -2.952   1.043  -0.916  0.00  0.00    +0.108 C 
ENDBRANCH  21  22
ENDBRANCH  19  21
ENDBRANCH   1  19
TORSDOF 7
