REMARK  Name = ZINC58821864
REMARK  13 active torsions:
REMARK  status: ('A' for Active; 'I' for Inactive)
REMARK    1  A    between atoms: C_1  and  C_2
REMARK    2  A    between atoms: C_2  and  C_3
REMARK    3  A    between atoms: C_3  and  C_5
REMARK    4  A    between atoms: C_3  and  C_6
REMARK    5  A    between atoms: C_6  and  C_8
REMARK    6  A    between atoms: C_6  and  N_25
REMARK    7  A    between atoms: N_10  and  C_11
REMARK    8  A    between atoms: C_11  and  C_12
REMARK    9  A    between atoms: C_15  and  N_18
REMARK   10  A    between atoms: N_21  and  C_22
REMARK   11  A    between atoms: C_22  and  C_23
REMARK   12  A    between atoms: C_22  and  C_24
REMARK   13  A    between atoms: C_26  and  C_28
REMARK                            x       y       z     vdW  Elec       q    Type
REMARK                         _______ _______ _______ _____ _____    ______ ____
ROOT
ATOM      1  C   UNL     1      -0.551  -2.819  -1.431  0.00  0.00    +0.234 C 
ATOM      2  O   UNL     1      -1.043  -3.421  -0.500  0.00  0.00    -0.274 OA
ATOM      3  N   UNL     1      -1.269  -2.607  -2.552  0.00  0.00    -0.310 N 
ATOM      4  H   UNL     1      -0.903  -2.063  -3.267  0.00  0.00    +0.149 HD
ENDROOT
BRANCH   1   5
ATOM      5  C   UNL     1       0.864  -2.310  -1.336  0.00  0.00    +0.162 C 
BRANCH   5   6
ATOM      6  N   UNL     1       1.554  -2.989  -0.236  0.00  0.00    -0.300 N 
ATOM      7  C   UNL     1       2.897  -3.102  -0.251  0.00  0.00    +0.245 C 
ATOM      8  O   UNL     1       3.536  -2.640  -1.177  0.00  0.00    -0.270 OA
ATOM      9  H   UNL     1       1.045  -3.357   0.502  0.00  0.00    +0.150 HD
BRANCH   7  10
ATOM     10  C   UNL     1       3.594  -3.787   0.858  0.00  0.00    +0.037 A 
ATOM     11  C   UNL     1       2.862  -4.323   1.919  0.00  0.00    +0.014 A 
ATOM     12  C   UNL     1       3.518  -4.962   2.951  0.00  0.00    +0.021 A 
ATOM     13  C   UNL     1       4.898  -5.071   2.936  0.00  0.00    +0.041 A 
ATOM     14  C   UNL     1       5.629  -4.541   1.886  0.00  0.00    +0.021 A 
ATOM     15  C   UNL     1       4.985  -3.905   0.846  0.00  0.00    +0.014 A 
ATOM     16 CL   UNL     1       5.716  -5.875   4.239  0.00  0.00    -0.084 Cl
ENDBRANCH   7  10
ENDBRANCH   5   6
BRANCH   5  17
ATOM     17  C   UNL     1       0.847  -0.802  -1.073  0.00  0.00    +0.015 C 
ATOM     18  C   UNL     1       0.238  -0.531   0.304  0.00  0.00    +0.010 C 
BRANCH  17  20
ATOM     19  C   UNL     1       2.251   1.262  -0.977  0.00  0.00    +0.004 C 
ATOM     20  C   UNL     1       2.278  -0.261  -1.115  0.00  0.00    +0.002 C 
ENDBRANCH  17  20
ENDBRANCH   5  17
ENDBRANCH   1   5
BRANCH   3  21
ATOM     21  C   UNL     1      -2.604  -3.195  -2.689  0.00  0.00    +0.139 C 
BRANCH  21  22
ATOM     22  C   UNL     1      -3.189  -2.808  -4.023  0.00  0.00    -0.030 A 
ATOM     23  C   UNL     1      -3.934  -1.650  -4.139  0.00  0.00    +0.007 A 
ATOM     24  C   UNL     1      -4.472  -1.293  -5.361  0.00  0.00    +0.023 A 
ATOM     25  C   UNL     1      -4.263  -2.098  -6.472  0.00  0.00    +0.035 A 
ATOM     26  C   UNL     1      -3.513  -3.261  -6.352  0.00  0.00    +0.023 A 
ATOM     27  C   UNL     1      -2.974  -3.610  -5.129  0.00  0.00    +0.007 A 
BRANCH  25  28
ATOM     28  N   UNL     1      -4.806  -1.740  -7.710  0.00  0.00    -0.269 N 
ATOM     29  C   UNL     1      -4.982  -0.439  -8.018  0.00  0.00    +0.304 C 
ATOM     30  O   UNL     1      -4.580   0.424  -7.262  0.00  0.00    -0.253 OA
ATOM     31  N   UNL     1      -5.603  -0.096  -9.164  0.00  0.00    -0.297 N 
ATOM     32  H   UNL     1      -5.057  -2.427  -8.348  0.00  0.00    +0.156 HD
ATOM     33  H   UNL     1      -5.923  -0.784  -9.767  0.00  0.00    +0.151 HD
BRANCH  31  34
ATOM     34  C   UNL     1      -5.793   1.318  -9.498  0.00  0.00    +0.068 C 
ATOM     35  C   UNL     1      -4.537   1.852 -10.190  0.00  0.00    +0.027 C 
ATOM     36  C   UNL     1      -6.993   1.463 -10.436  0.00  0.00    +0.027 C 
ENDBRANCH  31  34
ENDBRANCH  25  28
ENDBRANCH  21  22
ENDBRANCH   3  21
TORSDOF 9
