REMARK  Name = ZINC67100325
REMARK  3 active torsions:
REMARK  status: ('A' for Active; 'I' for Inactive)
REMARK    1  A    between atoms: C_10  and  N_12
REMARK    2  A    between atoms: N_15  and  C_16
REMARK    3  A    between atoms: C_16  and  C_17
REMARK                            x       y       z     vdW  Elec       q    Type
REMARK                         _______ _______ _______ _____ _____    ______ ____
ROOT
ATOM      1  N   UNL     1       4.631   0.029  -0.946  0.00  0.00    -0.293 N 
ATOM      2  C   UNL     1       5.321   1.107  -0.525  0.00  0.00    +0.300 C 
ATOM      3  O   UNL     1       5.202   1.496   0.621  0.00  0.00    -0.253 OA
ATOM      4  N   UNL     1       6.144   1.754  -1.374  0.00  0.00    -0.295 N 
ATOM      5  H   UNL     1       4.726  -0.282  -1.860  0.00  0.00    +0.151 HD
ATOM      6  H   UNL     1       6.239   1.444  -2.288  0.00  0.00    +0.151 HD
ENDROOT
BRANCH   1  16
ATOM      7  C   UNL     1      -0.017   1.375   0.010  0.00  0.00    +0.000 A 
ATOM      8  C   UNL     1       1.174   2.078   0.002  0.00  0.00    +0.000 A 
ATOM      9  C   UNL     1       2.372   1.395  -0.010  0.00  0.00    +0.006 A 
ATOM     10  C   UNL     1       2.393   0.006  -0.017  0.00  0.00    -0.024 A 
ATOM     11  C   UNL     1       1.208  -0.694  -0.015  0.00  0.00    -0.042 A 
ATOM     12  C   UNL     1       0.002  -0.004   0.002  0.00  0.00    +0.004 A 
ATOM     13  C   UNL     1       1.155  -2.199  -0.038  0.00  0.00    +0.035 C 
ATOM     14  C   UNL     1       2.501  -2.790   0.375  0.00  0.00    +0.007 C 
ATOM     15  C   UNL     1       3.599  -2.130  -0.467  0.00  0.00    +0.027 C 
ATOM     16  C   UNL     1       3.737  -0.675  -0.023  0.00  0.00    +0.105 C 
ENDBRANCH   1  16
BRANCH   4  17
ATOM     17  C   UNL     1       6.894   2.926  -0.916  0.00  0.00    +0.141 C 
BRANCH  17  18
ATOM     18  C   UNL     1       7.732   3.460  -2.049  0.00  0.00    -0.027 A 
ATOM     19  C   UNL     1       9.019   2.989  -2.235  0.00  0.00    +0.009 A 
ATOM     20  C   UNL     1       9.795   3.474  -3.273  0.00  0.00    +0.050 A 
ATOM     21  C   UNL     1       9.277   4.433  -4.127  0.00  0.00    +0.162 A 
ATOM     22  C   UNL     1       7.985   4.905  -3.940  0.00  0.00    +0.162 A 
ATOM     23  C   UNL     1       7.210   4.415  -2.903  0.00  0.00    +0.054 A 
ATOM     24  O   UNL     1       7.484   5.850  -4.788  0.00  0.00    -0.488 OA
ATOM     25  C   UNL     1       8.082   7.145  -4.704  0.00  0.00    +0.232 C 
ATOM     26  C   UNL     1       9.342   7.213  -5.553  0.00  0.00    +0.082 C 
ATOM     27  C   UNL     1      10.434   6.285  -5.044  0.00  0.00    +0.232 C 
ATOM     28  O   UNL     1      10.030   4.919  -5.156  0.00  0.00    -0.488 OA
ENDBRANCH  17  18
ENDBRANCH   4  17
TORSDOF 3
