REMARK  Name = ZINC39361908
REMARK  9 active torsions:
REMARK  status: ('A' for Active; 'I' for Inactive)
REMARK    1  A    between atoms: C_1  and  C_2
REMARK    2  A    between atoms: C_5  and  C_34
REMARK    3  A    between atoms: C_6  and  N_8
REMARK    4  A    between atoms: C_9  and  C_25
REMARK    5  A    between atoms: C_13  and  S_14
REMARK    6  A    between atoms: S_14  and  C_15
REMARK    7  A    between atoms: C_15  and  C_16
REMARK    8  A    between atoms: C_21  and  C_24
REMARK    9  A    between atoms: C_25  and  C_26
REMARK                            x       y       z     vdW  Elec       q    Type
REMARK                         _______ _______ _______ _____ _____    ______ ____
ROOT
ATOM      1  N   UNL     1       0.051  -2.797   2.391  0.00  0.00    -0.258 N 
ATOM      2  C   UNL     1       1.241  -3.223   3.147  0.00  0.00    +0.187 C 
ATOM      3  N   UNL     1       0.684  -3.920   4.319  0.00  0.00    -0.246 N 
ATOM      4  N   UNL     1      -0.708  -3.862   4.183  0.00  0.00    -0.162 NA
ATOM      5  C   UNL     1      -1.052  -3.231   3.111  0.00  0.00    +0.180 C 
ATOM      6  H   UNL     1       1.182  -4.336   5.041  0.00  0.00    +0.170 HD
ENDROOT
BRANCH   1  12
ATOM      7  C   UNL     1      -0.018   1.503   0.010  0.00  0.00    +0.044 C 
ATOM      8  C   UNL     1       0.002  -0.004   0.002  0.00  0.00    -0.049 A 
ATOM      9  C   UNL     1       0.006  -0.688  -1.200  0.00  0.00    +0.004 A 
ATOM     10  C   UNL     1       0.025  -2.071  -1.212  0.00  0.00    +0.005 A 
ATOM     11  C   UNL     1       0.040  -2.773  -0.023  0.00  0.00    -0.029 A 
ATOM     12  C   UNL     1       0.036  -2.089   1.186  0.00  0.00    +0.041 A 
ATOM     13  C   UNL     1       0.023  -0.700   1.194  0.00  0.00    +0.027 A 
ATOM     14  C   UNL     1       0.059  -4.280  -0.037  0.00  0.00    +0.045 C 
ENDBRANCH   1  12
BRANCH   5  15
ATOM     15  S   UNL     1      -2.722  -2.958   2.620  0.00  0.00    -0.079 S 
BRANCH  15  16
ATOM     16  C   UNL     1      -3.700  -3.739   3.933  0.00  0.00    +0.173 C 
BRANCH  16  17
ATOM     17  C   UNL     1      -5.167  -3.576   3.632  0.00  0.00    +0.229 C 
ATOM     18  O   UNL     1      -5.519  -2.990   2.630  0.00  0.00    -0.275 OA
ATOM     19  N   UNL     1      -6.089  -4.081   4.476  0.00  0.00    -0.267 N 
ATOM     20  C   UNL     1      -7.447  -3.929   4.197  0.00  0.00    +0.168 A 
ATOM     21  C   UNL     1      -7.997  -3.279   3.070  0.00  0.00    +0.091 A 
ATOM     22  C   UNL     1      -9.337  -3.344   3.164  0.00  0.00    +0.136 A 
ATOM     23  O   UNL     1      -9.647  -4.002   4.292  0.00  0.00    -0.358 OA
ATOM     24  N   UNL     1      -8.437  -4.370   4.930  0.00  0.00    -0.063 NA
ATOM     25  C   UNL     1     -10.321  -2.776   2.174  0.00  0.00    +0.089 C 
ATOM     26  H   UNL     1      -5.807  -4.549   5.278  0.00  0.00    +0.156 HD
ENDBRANCH  16  17
ENDBRANCH  15  16
ENDBRANCH   5  15
BRANCH   2  27
ATOM     27  C   UNL     1       2.063  -2.008   3.582  0.00  0.00    +0.097 C 
BRANCH  27  28
ATOM     28  C   UNL     1       3.334  -2.473   4.245  0.00  0.00    +0.029 A 
ATOM     29  N   UNL     1       3.338  -2.792   5.576  0.00  0.00    -0.311 N 
ATOM     30  C   UNL     1       4.467  -3.209   6.178  0.00  0.00    +0.327 A 
ATOM     31  O   UNL     1       4.448  -3.488   7.361  0.00  0.00    -0.247 OA
ATOM     32  N   UNL     1       5.617  -3.322   5.488  0.00  0.00    -0.275 N 
ATOM     33  C   UNL     1       5.655  -3.017   4.175  0.00  0.00    +0.254 A 
ATOM     34  O   UNL     1       6.695  -3.119   3.550  0.00  0.00    -0.268 OA
ATOM     35  C   UNL     1       4.473  -2.582   3.529  0.00  0.00    +0.091 A 
ATOM     36  H   UNL     1       6.422  -3.624   5.937  0.00  0.00    +0.173 HD
ATOM     37  H   UNL     1       2.519  -2.717   6.090  0.00  0.00    +0.170 HD
ENDBRANCH  27  28
ENDBRANCH   2  27
TORSDOF 6
