REMARK  Name = ZINC08514914
REMARK  2 active torsions:
REMARK  status: ('A' for Active; 'I' for Inactive)
REMARK    1  A    between atoms: N_9  and  N_10
REMARK    2  A    between atoms: C_19  and  O_21
REMARK                            x       y       z     vdW  Elec       q    Type
REMARK                         _______ _______ _______ _____ _____    ______ ____
ROOT
ATOM      1  C   UNL     1       0.048   1.400   0.635  0.00  0.00    +0.040 A 
ATOM      2  C   UNL     1       1.194   2.114   0.359  0.00  0.00    +0.031 A 
ATOM      3  C   UNL     1       2.405   1.444   0.156  0.00  0.00    +0.077 A 
ATOM      4  C   UNL     1       2.425   0.036   0.239  0.00  0.00    +0.035 A 
ATOM      5  C   UNL     1       1.263  -0.669   0.517  0.00  0.00    +0.050 A 
ATOM      6  C   UNL     1       0.077   0.015   0.715  0.00  0.00    +0.124 A 
ATOM      7  F   UNL     1      -1.057  -0.667   0.987  0.00  0.00    -0.205 F 
ATOM      8  C   UNL     1       3.828  -0.356  -0.021  0.00  0.00    +0.152 C 
ATOM      9  N   UNL     1       4.335  -1.569  -0.049  0.00  0.00    -0.175 NA
ATOM     10  C   UNL     1       4.526   0.922  -0.241  0.00  0.00    +0.241 C 
ATOM     11  N   UNL     1       3.656   1.892  -0.125  0.00  0.00    -0.211 NA
ENDROOT
BRANCH   9  12
ATOM     12  N   UNL     1       3.560  -2.595   0.050  0.00  0.00    -0.219 N 
ATOM     13  C   UNL     1       4.104  -3.873   0.142  0.00  0.00    +0.157 A 
ATOM     14  C   UNL     1       3.261  -4.976   0.243  0.00  0.00    +0.084 A 
ATOM     15  C   UNL     1       3.816  -6.242   0.334  0.00  0.00    +0.045 A 
ATOM     16  C   UNL     1       5.200  -6.360   0.320  0.00  0.00    +0.061 A 
ATOM     17  C   UNL     1       5.976  -5.221   0.218  0.00  0.00    +0.133 A 
ATOM     18  N   UNL     1       5.419  -4.029   0.128  0.00  0.00    -0.236 NA
ATOM     19 CL   UNL     1       5.948  -7.923   0.432  0.00  0.00    -0.082 Cl
ATOM     20 CL   UNL     1       1.538  -4.769   0.256  0.00  0.00    -0.080 Cl
ATOM     21  H   UNL     1       2.597  -2.477   0.060  0.00  0.00    +0.176 HD
ENDBRANCH   9  12
BRANCH  10  22
ATOM     22  O   UNL     1       5.845   1.068  -0.517  0.00  0.00    -0.491 OA
ATOM     23  H   UNL     1       6.124   1.987  -0.630  0.00  0.00    +0.294 HD
ENDBRANCH  10  22
TORSDOF 2
