REMARK  Name = ZINC40723598
REMARK  9 active torsions:
REMARK  status: ('A' for Active; 'I' for Inactive)
REMARK    1  A    between atoms: C_1  and  N_2
REMARK    2  A    between atoms: N_2  and  C_3
REMARK    3  A    between atoms: C_5  and  N_22
REMARK    4  A    between atoms: C_6  and  N_10
REMARK    5  A    between atoms: N_10  and  C_11
REMARK    6  A    between atoms: C_14  and  O_19
REMARK    7  A    between atoms: C_16  and  O_17
REMARK    8  A    between atoms: O_17  and  C_18
REMARK    9  A    between atoms: O_19  and  C_20
REMARK                            x       y       z     vdW  Elec       q    Type
REMARK                         _______ _______ _______ _____ _____    ______ ____
ROOT
ATOM      1  N   UNL     1      -4.818  -0.549  -0.097  0.00  0.00    -0.295 N 
ATOM      2  H   UNL     1      -4.926   0.402  -0.252  0.00  0.00    +0.154 HD
ENDROOT
BRANCH   1   8
ATOM      3  C   UNL     1       0.156   0.421   2.442  0.00  0.00    +0.130 C 
ATOM      4  N   UNL     1      -0.160   0.030   1.066  0.00  0.00    -0.320 N 
ATOM      5  C   UNL     1       0.687   0.489  -0.038  0.00  0.00    +0.130 C 
ATOM      6  C   UNL     1      -1.262  -0.776   0.808  0.00  0.00    +0.147 A 
ATOM      7  C   UNL     1      -2.495  -0.207   0.481  0.00  0.00    +0.106 A 
ATOM      8  C   UNL     1      -3.569  -1.063   0.232  0.00  0.00    +0.149 A 
ATOM      9  N   UNL     1      -3.379  -2.378   0.315  0.00  0.00    -0.219 NA
ATOM     10  C   UNL     1      -2.199  -2.873   0.626  0.00  0.00    +0.225 A 
ATOM     11  N   UNL     1      -1.158  -2.101   0.864  0.00  0.00    -0.219 NA
BRANCH   7  12
ATOM     12  N   UNL     1      -2.649   1.186   0.406  0.00  0.00    -0.353 N 
ATOM     13  H   UNL     1      -1.878   1.766   0.504  0.00  0.00    +0.143 HD
ATOM     14  H   UNL     1      -3.528   1.569   0.257  0.00  0.00    +0.143 HD
ENDBRANCH   7  12
ENDBRANCH   1   8
BRANCH   1  15
ATOM     15  C   UNL     1      -5.923  -1.407  -0.205  0.00  0.00    +0.076 A 
ATOM     16  C   UNL     1      -5.907  -2.641   0.427  0.00  0.00    +0.050 A 
ATOM     17  C   UNL     1      -6.996  -3.487   0.320  0.00  0.00    +0.084 A 
ATOM     18  C   UNL     1      -8.106  -3.102  -0.420  0.00  0.00    +0.142 A 
ATOM     19  C   UNL     1      -8.124  -1.869  -1.054  0.00  0.00    +0.094 A 
ATOM     20  C   UNL     1      -7.038  -1.018  -0.943  0.00  0.00    +0.145 A 
ATOM     21 CL   UNL     1      -6.976  -5.031   1.112  0.00  0.00    -0.080 Cl
BRANCH  20  22
ATOM     22  O   UNL     1      -7.057   0.195  -1.560  0.00  0.00    -0.493 OA
ATOM     23  C   UNL     1      -8.233   0.528  -2.299  0.00  0.00    +0.277 C 
ENDBRANCH  20  22
BRANCH  18  24
ATOM     24  O   UNL     1      -9.175  -3.936  -0.524  0.00  0.00    -0.494 OA
ATOM     25  C   UNL     1     -10.283  -3.476  -1.302  0.00  0.00    +0.277 C 
ENDBRANCH  18  24
ENDBRANCH   1  15
TORSDOF 5
