REMARK  Name = ZINC34906270
REMARK  11 active torsions:
REMARK  status: ('A' for Active; 'I' for Inactive)
REMARK    1  A    between atoms: C_1  and  C_2
REMARK    2  A    between atoms: C_2  and  N_3
REMARK    3  A    between atoms: N_6  and  C_7
REMARK    4  A    between atoms: C_13  and  N_15
REMARK    5  A    between atoms: C_16  and  C_18
REMARK    6  A    between atoms: C_21  and  C_23
REMARK    7  A    between atoms: C_23  and  O_24
REMARK    8  A    between atoms: O_24  and  C_25
REMARK    9  A    between atoms: C_28  and  C_31
REMARK   10  A    between atoms: C_31  and  C_32
REMARK   11  A    between atoms: C_31  and  C_33
REMARK                            x       y       z     vdW  Elec       q    Type
REMARK                         _______ _______ _______ _____ _____    ______ ____
ROOT
ATOM      1  N   UNL     1       0.569  -3.433  -4.976  0.00  0.00    -0.305 N 
ATOM      2  C   UNL     1       0.648  -3.076  -6.273  0.00  0.00    +0.263 C 
ATOM      3  O   UNL     1       1.709  -3.160  -6.863  0.00  0.00    -0.269 OA
ATOM      4  H   UNL     1      -0.277  -3.365  -4.505  0.00  0.00    +0.149 HD
ENDROOT
BRANCH   1  10
ATOM      5  C   UNL     1       1.609  -3.670  -2.775  0.00  0.00    +0.095 C 
ATOM      6  C   UNL     1       2.852  -4.182  -2.045  0.00  0.00    +0.024 C 
ATOM      7  C   UNL     1       3.010  -5.683  -2.296  0.00  0.00    +0.002 C 
ATOM      8  C   UNL     1       3.161  -5.935  -3.798  0.00  0.00    +0.002 C 
ATOM      9  C   UNL     1       1.917  -5.423  -4.528  0.00  0.00    +0.024 C 
ATOM     10  C   UNL     1       1.759  -3.923  -4.276  0.00  0.00    +0.093 C 
BRANCH   5  14
ATOM     11  N   UNL     1       0.688  -0.476  -1.203  0.00  0.00    -0.300 N 
ATOM     12  C   UNL     1       0.827  -1.799  -1.425  0.00  0.00    +0.300 C 
ATOM     13  O   UNL     1       0.383  -2.599  -0.625  0.00  0.00    -0.253 OA
ATOM     14  N   UNL     1       1.458  -2.233  -2.534  0.00  0.00    -0.295 N 
ATOM     15  H   UNL     1       1.042   0.162  -1.842  0.00  0.00    +0.150 HD
ATOM     16  H   UNL     1       1.812  -1.595  -3.172  0.00  0.00    +0.151 HD
BRANCH  11  18
ATOM     17  C   UNL     1      -0.019   1.526   0.010  0.00  0.00    +0.024 C 
ATOM     18  C   UNL     1       0.002  -0.004   0.002  0.00  0.00    +0.102 C 
ENDBRANCH  11  18
ENDBRANCH   5  14
ENDBRANCH   1  10
BRANCH   2  19
ATOM     19  C   UNL     1      -0.548  -2.583  -6.976  0.00  0.00    +0.133 A 
ATOM     20  C   UNL     1      -0.514  -2.215  -8.294  0.00  0.00    +0.080 A 
ATOM     21  S   UNL     1      -2.102  -1.746  -8.580  0.00  0.00    -0.076 S 
ATOM     22  C   UNL     1      -2.746  -2.025  -7.055  0.00  0.00    +0.116 A 
ATOM     23  N   UNL     1      -1.733  -2.475  -6.366  0.00  0.00    -0.236 NA
BRANCH  22  24
ATOM     24  C   UNL     1      -4.164  -1.812  -6.591  0.00  0.00    +0.291 C 
BRANCH  24  25
ATOM     25  O   UNL     1      -4.305  -0.484  -6.085  0.00  0.00    -0.485 OA
BRANCH  25  26
ATOM     26  C   UNL     1      -5.532  -0.127  -5.623  0.00  0.00    +0.121 A 
ATOM     27  C   UNL     1      -6.578  -1.038  -5.651  0.00  0.00    +0.046 A 
ATOM     28  C   UNL     1      -7.824  -0.673  -5.180  0.00  0.00    +0.007 A 
ATOM     29  C   UNL     1      -8.030   0.600  -4.682  0.00  0.00    -0.045 A 
ATOM     30  C   UNL     1      -6.990   1.511  -4.653  0.00  0.00    +0.007 A 
ATOM     31  C   UNL     1      -5.740   1.148  -5.117  0.00  0.00    +0.046 A 
BRANCH  29  32
ATOM     32  C   UNL     1      -9.391   0.996  -4.170  0.00  0.00    +0.013 C 
ATOM     33  C   UNL     1      -9.286   1.391  -2.695  0.00  0.00    +0.012 C 
ATOM     34  C   UNL     1      -9.915   2.184  -4.979  0.00  0.00    +0.012 C 
ENDBRANCH  29  32
ENDBRANCH  25  26
ENDBRANCH  24  25
ENDBRANCH  22  24
ENDBRANCH   2  19
TORSDOF 8
