REMARK  Name = ZINC20729800
REMARK  5 active torsions:
REMARK  status: ('A' for Active; 'I' for Inactive)
REMARK    1  A    between atoms: C_1  and  C_2
REMARK    2  A    between atoms: C_2  and  C_3
REMARK    3  A    between atoms: C_2  and  O_4
REMARK    4  A    between atoms: O_4  and  C_5
REMARK    5  A    between atoms: C_9  and  C_11
REMARK                            x       y       z     vdW  Elec       q    Type
REMARK                         _______ _______ _______ _____ _____    ______ ____
ROOT
ATOM      1  C   UNL     1      -4.404  -4.127  -1.111  0.00  0.00    +0.112 C 
ATOM      2  C   UNL     1      -4.425  -5.370  -0.278  0.00  0.00    +0.029 A 
ATOM      3  C   UNL     1      -3.548  -5.570   0.749  0.00  0.00    +0.111 A 
ATOM      4  N   UNL     1      -3.814  -6.766   1.301  0.00  0.00    -0.283 N 
ATOM      5  H   UNL     1      -3.346  -7.167   2.050  0.00  0.00    +0.188 HD
ATOM      6  N   UNL     1      -4.883  -7.330   0.604  0.00  0.00    -0.158 NA
ATOM      7  C   UNL     1      -5.257  -6.486  -0.353  0.00  0.00    +0.151 A 
ATOM      8  N   UNL     1      -6.305  -6.790  -1.202  0.00  0.00    -0.268 N 
ATOM      9  C   UNL     1      -6.850  -6.197  -2.222  0.00  0.00    +0.228 C 
ATOM     10  O   UNL     1      -7.710  -6.843  -2.783  0.00  0.00    -0.275 OA
ATOM     11  C   UNL     1      -6.596  -4.867  -2.810  0.00  0.00    +0.166 C 
ATOM     12  S   UNL     1      -4.855  -4.419  -2.823  0.00  0.00    -0.138 S 
ATOM     13  H   UNL     1      -6.729  -7.636  -0.988  0.00  0.00    +0.156 HD
ENDROOT
BRANCH   1  18
ATOM     14  C   UNL     1      -1.538  -1.739  -0.505  0.00  0.00    +0.121 A 
ATOM     15  C   UNL     1      -0.465  -2.469  -0.997  0.00  0.00    +0.045 A 
ATOM     16  C   UNL     1      -0.671  -3.729  -1.522  0.00  0.00    +0.004 A 
ATOM     17  C   UNL     1      -1.945  -4.265  -1.558  0.00  0.00    +0.005 A 
ATOM     18  C   UNL     1      -3.016  -3.541  -1.069  0.00  0.00    -0.026 A 
ATOM     19  C   UNL     1      -2.815  -2.281  -0.538  0.00  0.00    +0.050 A 
BRANCH  14  20
ATOM     20  O   UNL     1      -1.339  -0.499   0.012  0.00  0.00    -0.489 OA
BRANCH  20  22
ATOM     21  C   UNL     1      -1.982   1.168   1.640  0.00  0.00    +0.051 C 
ATOM     22  C   UNL     1      -2.466   0.143   0.612  0.00  0.00    +0.167 C 
ATOM     23  C   UNL     1      -3.283   0.853  -0.469  0.00  0.00    +0.051 C 
ENDBRANCH  20  22
ENDBRANCH  14  20
ENDBRANCH   1  18
TORSDOF 3
