REMARK  Name = ZINC15226510
REMARK  8 active torsions:
REMARK  status: ('A' for Active; 'I' for Inactive)
REMARK    1  A    between atoms: C_1  and  C_2
REMARK    2  A    between atoms: C_5  and  C_16
REMARK    3  A    between atoms: C_5  and  C_31
REMARK    4  A    between atoms: C_6  and  C_9
REMARK    5  A    between atoms: N_17  and  N_18
REMARK    6  A    between atoms: N_18  and  C_19
REMARK    7  A    between atoms: C_24  and  C_28
REMARK    8  A    between atoms: C_24  and  C_29
REMARK                            x       y       z     vdW  Elec       q    Type
REMARK                         _______ _______ _______ _____ _____    ______ ____
ROOT
ATOM      1  C   UNL     1      -0.251   1.298   0.752  0.00  0.00    +0.039 C 
ATOM      2  C   UNL     1      -0.073  -0.171   0.471  0.00  0.00    -0.076 C 
ATOM      3  C   UNL     1       0.186  -0.529  -0.746  0.00  0.00    -0.026 C 
ATOM      4  C   UNL     1       0.399  -1.951  -1.177  0.00  0.00    +0.055 C 
ATOM      5  C   UNL     1      -0.141  -2.910  -0.114  0.00  0.00    +0.159 C 
ATOM      6  C   UNL     1       0.411  -2.481   1.252  0.00  0.00    +0.049 C 
ATOM      7  C   UNL     1      -0.200  -1.128   1.620  0.00  0.00    +0.040 C 
ENDROOT
BRANCH   6   8
ATOM      8  C   UNL     1       0.045  -3.508   2.292  0.00  0.00    -0.042 A 
ATOM      9  C   UNL     1      -1.281  -3.711   2.626  0.00  0.00    +0.005 A 
ATOM     10  C   UNL     1      -1.617  -4.654   3.580  0.00  0.00    +0.015 A 
ATOM     11  C   UNL     1      -0.626  -5.394   4.199  0.00  0.00    +0.018 A 
ATOM     12  C   UNL     1       0.700  -5.190   3.865  0.00  0.00    +0.015 A 
ATOM     13  C   UNL     1       1.035  -4.251   2.907  0.00  0.00    +0.005 A 
ATOM     14 BR   UNL     1      -1.085  -6.683   5.505  0.00  0.00    -0.050 Br
ENDBRANCH   6   8
BRANCH   5  15
ATOM     15  C   UNL     1       0.311  -4.315  -0.423  0.00  0.00    +0.247 C 
ATOM     16  N   UNL     1      -0.040  -4.894  -1.588  0.00  0.00    -0.236 N 
ATOM     17  O   UNL     1       0.989  -4.923   0.377  0.00  0.00    -0.273 OA
ATOM     18  H   UNL     1      -0.583  -4.407  -2.228  0.00  0.00    +0.173 HD
BRANCH  16  19
ATOM     19  N   UNL     1       0.380  -6.199  -1.876  0.00  0.00    -0.271 N 
ATOM     20  H   UNL     1       0.922  -6.686  -1.236  0.00  0.00    +0.169 HD
BRANCH  19  21
ATOM     21  C   UNL     1       0.030  -6.777  -3.039  0.00  0.00    +0.102 C 
ATOM     22  C   UNL     1       0.446  -8.071  -3.324  0.00  0.00    +0.075 C 
ATOM     23  C   UNL     1       1.267  -8.864  -2.386  0.00  0.00    +0.168 C 
ATOM     24  O   UNL     1       2.162  -8.360  -1.738  0.00  0.00    -0.292 OA
ATOM     25  C   UNL     1       0.936 -10.338  -2.275  0.00  0.00    +0.086 C 
ATOM     26  C   UNL     1       0.854 -10.935  -3.682  0.00  0.00    -0.021 C 
ATOM     27  C   UNL     1      -0.240 -10.229  -4.487  0.00  0.00    +0.086 C 
ATOM     28  C   UNL     1       0.093  -8.758  -4.583  0.00  0.00    +0.168 C 
ATOM     29  O   UNL     1       0.073  -8.171  -5.646  0.00  0.00    -0.292 OA
ATOM     30  C   UNL     1       0.528 -12.427  -3.583  0.00  0.00    +0.012 C 
ATOM     31  C   UNL     1       2.199 -10.758  -4.388  0.00  0.00    +0.012 C 
ENDBRANCH  19  21
ENDBRANCH  16  19
ENDBRANCH   5  15
BRANCH   5  32
ATOM     32  C   UNL     1      -1.646  -2.850  -0.094  0.00  0.00    +0.372 C 
ATOM     33  O   UNL     1      -2.298  -3.877  -0.172  0.00  0.00    -0.245 OA
ATOM     34  O   UNL     1      -2.212  -1.774   0.000  0.00  0.00    -0.245 OA
ENDBRANCH   5  32
TORSDOF 5
