REMARK  Name = ZINC66282444
REMARK  8 active torsions:
REMARK  status: ('A' for Active; 'I' for Inactive)
REMARK    1  A    between atoms: C_1  and  C_2
REMARK    2  A    between atoms: C_2  and  C_3
REMARK    3  A    between atoms: C_2  and  O_4
REMARK    4  A    between atoms: O_4  and  C_5
REMARK    5  A    between atoms: C_9  and  C_11
REMARK    6  A    between atoms: C_12  and  C_13
REMARK    7  A    between atoms: C_18  and  C_21
REMARK    8  A    between atoms: C_23  and  C_27
REMARK                            x       y       z     vdW  Elec       q    Type
REMARK                         _______ _______ _______ _____ _____    ______ ____
ROOT
ATOM      1  C   UNL     1       7.022  -1.768  -4.526  0.00  0.00    +0.243 C 
ATOM      2  O   UNL     1       6.447  -1.984  -5.576  0.00  0.00    -0.270 OA
ATOM      3  N   UNL     1       8.366  -1.853  -4.463  0.00  0.00    -0.261 N 
ATOM      4  C   UNL     1       9.094  -2.187  -5.596  0.00  0.00    +0.165 A 
ATOM      5  N   UNL     1      10.396  -2.320  -5.718  0.00  0.00    -0.225 NA
ATOM      6  C   UNL     1      10.945  -2.647  -6.880  0.00  0.00    +0.082 A 
ATOM      7  C   UNL     1      10.091  -2.836  -7.930  0.00  0.00    +0.077 A 
ATOM      8  S   UNL     1       8.520  -2.526  -7.141  0.00  0.00    -0.060 S 
ATOM      9  H   UNL     1       8.824  -1.680  -3.625  0.00  0.00    +0.157 HD
ENDROOT
BRANCH   6  10
ATOM     10  C   UNL     1      12.415  -2.801  -7.033  0.00  0.00    +0.019 A 
ATOM     11  C   UNL     1      13.370  -2.732  -6.001  0.00  0.00    +0.042 A 
ATOM     12  C   UNL     1      14.597  -2.927  -6.573  0.00  0.00    +0.102 A 
ATOM     13  N   UNL     1      14.411  -3.111  -7.925  0.00  0.00    -0.356 N 
ATOM     14  H   UNL     1      15.113  -3.271  -8.574  0.00  0.00    +0.165 HD
ATOM     15  C   UNL     1      13.085  -3.039  -8.198  0.00  0.00    +0.093 A 
BRANCH  12  16
ATOM     16  C   UNL     1      15.884  -2.936  -5.870  0.00  0.00    +0.258 C 
ATOM     17  O   UNL     1      15.922  -2.760  -4.667  0.00  0.00    -0.269 OA
ATOM     18  N   UNL     1      17.026  -3.140  -6.557  0.00  0.00    -0.324 N 
ATOM     19  H   UNL     1      16.996  -3.281  -7.517  0.00  0.00    +0.145 HD
ATOM     20  H   UNL     1      17.877  -3.147  -6.093  0.00  0.00    +0.145 HD
ENDBRANCH  12  16
ENDBRANCH   6  10
BRANCH   1  22
ATOM     21  C   UNL     1       4.910  -1.330  -3.393  0.00  0.00    +0.013 C 
ATOM     22  C   UNL     1       6.254  -1.415  -3.330  0.00  0.00    +0.068 C 
BRANCH  21  27
ATOM     23  C   UNL     1       2.026  -0.553  -1.118  0.00  0.00    +0.121 A 
ATOM     24  C   UNL     1       2.689  -0.308   0.078  0.00  0.00    +0.046 A 
ATOM     25  C   UNL     1       4.068  -0.395   0.141  0.00  0.00    +0.004 A 
ATOM     26  C   UNL     1       4.795  -0.727  -0.982  0.00  0.00    +0.008 A 
ATOM     27  C   UNL     1       4.138  -0.976  -2.191  0.00  0.00    -0.021 A 
ATOM     28  C   UNL     1       2.744  -0.892  -2.252  0.00  0.00    +0.053 A 
BRANCH  23  29
ATOM     29  O   UNL     1       0.671  -0.465  -1.174  0.00  0.00    -0.489 OA
BRANCH  29  31
ATOM     30  C   UNL     1      -0.044   1.273   0.346  0.00  0.00    +0.051 C 
ATOM     31  C   UNL     1      -0.015  -0.229   0.058  0.00  0.00    +0.167 C 
ATOM     32  C   UNL     1      -1.447  -0.756  -0.048  0.00  0.00    +0.051 C 
ENDBRANCH  29  31
ENDBRANCH  23  29
ENDBRANCH  21  27
ENDBRANCH   1  22
TORSDOF 6
