REMARK  Name = ZINC31558015
REMARK  10 active torsions:
REMARK  status: ('A' for Active; 'I' for Inactive)
REMARK    1  A    between atoms: C_1  and  C_2
REMARK    2  A    between atoms: C_3  and  C_35
REMARK    3  A    between atoms: N_4  and  C_28
REMARK    4  A    between atoms: C_5  and  N_9
REMARK    5  A    between atoms: C_6  and  C_7
REMARK    6  A    between atoms: C_10  and  C_12
REMARK    7  A    between atoms: C_12  and  N_13
REMARK    8  A    between atoms: C_17  and  C_19
REMARK    9  A    between atoms: N_21  and  C_22
REMARK   10  A    between atoms: C_22  and  C_23
REMARK                            x       y       z     vdW  Elec       q    Type
REMARK                         _______ _______ _______ _____ _____    ______ ____
ROOT
ATOM      1  N   UNL     1       0.122  -3.314   1.495  0.00  0.00    -0.272 N 
ATOM      2  C   UNL     1       0.237  -4.526   0.915  0.00  0.00    +0.202 C 
ATOM      3  O   UNL     1       0.386  -4.611  -0.286  0.00  0.00    -0.278 OA
ATOM      4  H   UNL     1       0.091  -3.240   2.462  0.00  0.00    +0.156 HD
ENDROOT
BRANCH   1   9
ATOM      5  C   UNL     1      -1.316   1.094  -0.516  0.00  0.00    +0.047 C 
ATOM      6  C   UNL     1      -0.576  -0.185  -0.222  0.00  0.00    -0.010 A 
ATOM      7  C   UNL     1       0.514  -0.645  -0.857  0.00  0.00    +0.027 A 
ATOM      8  N   UNL     1       0.892  -1.840  -0.302  0.00  0.00    -0.300 N 
ATOM      9  C   UNL     1       0.046  -2.174   0.709  0.00  0.00    +0.128 A 
ATOM     10  C   UNL     1      -0.904  -1.168   0.819  0.00  0.00    +0.095 A 
ATOM     11  C   UNL     1       1.212   0.044  -2.002  0.00  0.00    +0.064 C 
BRANCH   8  12
ATOM     12  C   UNL     1       1.992  -2.606  -0.715  0.00  0.00    +0.048 A 
ATOM     13  C   UNL     1       1.986  -3.213  -1.964  0.00  0.00    +0.029 A 
ATOM     14  C   UNL     1       3.069  -3.967  -2.370  0.00  0.00    +0.040 A 
ATOM     15  C   UNL     1       4.161  -4.119  -1.532  0.00  0.00    +0.124 A 
ATOM     16  C   UNL     1       4.169  -3.515  -0.285  0.00  0.00    +0.040 A 
ATOM     17  C   UNL     1       3.090  -2.755   0.121  0.00  0.00    +0.029 A 
ATOM     18  F   UNL     1       5.220  -4.857  -1.930  0.00  0.00    -0.205 F 
ENDBRANCH   8  12
BRANCH  10  19
ATOM     19  C   UNL     1      -1.986  -1.103   1.755  0.00  0.00    +0.103 C 
ATOM     20  N   UNL     1      -2.844  -1.051   2.498  0.00  0.00    -0.191 NA
ENDBRANCH  10  19
ENDBRANCH   1   9
BRANCH   2  21
ATOM     21  C   UNL     1       0.183  -5.773   1.758  0.00  0.00    +0.020 C 
BRANCH  21  22
ATOM     22  N   UNL     1       0.331  -6.954   0.897  0.00  0.00    +0.393 N 
ATOM     23  C   UNL     1      -0.837  -7.063  -0.003  0.00  0.00    -0.077 C 
ATOM     24  C   UNL     1      -1.095  -8.585  -0.133  0.00  0.00    -0.020 C 
ATOM     25  C   UNL     1      -0.771  -9.081   1.301  0.00  0.00    -0.008 C 
ATOM     26  C   UNL     1       0.399  -8.169   1.728  0.00  0.00    +0.020 C 
ATOM     27  H   UNL     1       1.174  -6.870   0.348  0.00  0.00    -0.080 HD
BRANCH  26  28
ATOM     28  C   UNL     1       1.710  -8.876   1.498  0.00  0.00    +0.200 C 
ATOM     29  O   UNL     1       2.517  -8.418   0.717  0.00  0.00    -0.278 OA
ATOM     30  N   UNL     1       1.985 -10.018   2.159  0.00  0.00    -0.310 N 
ATOM     31  H   UNL     1       1.340 -10.384   2.784  0.00  0.00    +0.149 HD
BRANCH  30  32
ATOM     32  C   UNL     1       3.260 -10.705   1.935  0.00  0.00    +0.178 C 
BRANCH  32  33
ATOM     33  C   UNL     1       3.318 -11.945   2.789  0.00  0.00    +0.122 A 
ATOM     34  C   UNL     1       2.901 -13.171   2.425  0.00  0.00    +0.046 A 
ATOM     35  C   UNL     1       3.142 -14.028   3.523  0.00  0.00    +0.041 A 
ATOM     36  C   UNL     1       3.692 -13.275   4.493  0.00  0.00    +0.195 A 
ATOM     37  O   UNL     1       3.802 -12.015   4.040  0.00  0.00    -0.466 OA
ENDBRANCH  32  33
ENDBRANCH  30  32
ENDBRANCH  26  28
ENDBRANCH  21  22
ENDBRANCH   2  21
TORSDOF 8
