REMARK  Name = ZINC20396384
REMARK  6 active torsions:
REMARK  status: ('A' for Active; 'I' for Inactive)
REMARK    1  A    between atoms: C_3  and  N_21
REMARK    2  A    between atoms: C_6  and  C_7
REMARK    3  A    between atoms: C_7  and  S_8
REMARK    4  A    between atoms: S_8  and  C_9
REMARK    5  A    between atoms: C_12  and  C_15
REMARK    6  A    between atoms: N_13  and  N_14
REMARK                            x       y       z     vdW  Elec       q    Type
REMARK                         _______ _______ _______ _____ _____    ______ ____
ROOT
ATOM      1  C   UNL     1      -6.997   4.869   1.479  0.00  0.00    +0.209 A 
ATOM      2  N   UNL     1      -7.523   5.166   0.314  0.00  0.00    -0.121 NA
ATOM      3  N   UNL     1      -8.635   5.788   0.483  0.00  0.00    -0.129 NA
ATOM      4  C   UNL     1      -8.883   5.923   1.754  0.00  0.00    +0.180 A 
ATOM      5  N   UNL     1      -7.852   5.338   2.435  0.00  0.00    -0.226 N 
ENDROOT
BRANCH   4   6
ATOM      6  C   UNL     1     -10.087   6.596   2.363  0.00  0.00    +0.187 C 
ATOM      7  C   UNL     1     -11.332   5.689   2.233  0.00  0.00    +0.042 C 
ATOM      8  C   UNL     1     -12.487   6.676   1.953  0.00  0.00    +0.031 C 
ATOM      9  C   UNL     1     -11.804   8.062   1.947  0.00  0.00    +0.161 C 
ATOM     10  O   UNL     1     -10.422   7.791   1.625  0.00  0.00    -0.369 OA
ENDBRANCH   4   6
BRANCH   5  11
ATOM     11  N   UNL     1      -7.705   5.244   3.790  0.00  0.00    -0.295 N 
ATOM     12  H   UNL     1      -8.472   5.666   4.457  0.00  0.00    +0.163 HD
ATOM     13  H   UNL     1      -6.821   4.747   4.215  0.00  0.00    +0.163 HD
ENDBRANCH   5  11
BRANCH   1  14
ATOM     14  S   UNL     1      -5.479   4.019   1.757  0.00  0.00    -0.080 S 
BRANCH  14  15
ATOM     15  C   UNL     1      -4.960   3.734   0.047  0.00  0.00    +0.112 C 
BRANCH  15  21
ATOM     16  C   UNL     1      -3.628   1.616   0.029  0.00  0.00    +0.006 A 
ATOM     17  C   UNL     1      -2.424   0.938   0.019  0.00  0.00    +0.023 A 
ATOM     18  C   UNL     1      -1.230   1.648   0.017  0.00  0.00    +0.025 A 
ATOM     19  C   UNL     1      -1.251   3.037   0.030  0.00  0.00    +0.023 A 
ATOM     20  C   UNL     1      -2.458   3.708   0.035  0.00  0.00    +0.006 A 
ATOM     21  C   UNL     1      -3.645   2.998   0.037  0.00  0.00    -0.037 A 
BRANCH  18  22
ATOM     22  N   UNL     1      -0.011   0.966   0.007  0.00  0.00    -0.358 N 
ATOM     23  H   UNL     1       0.934   1.529   0.006  0.00  0.00    +0.142 HD
ATOM     24  H   UNL     1       0.004  -0.134   0.001  0.00  0.00    +0.142 HD
ENDBRANCH  18  22
ENDBRANCH  15  21
ENDBRANCH  14  15
ENDBRANCH   1  14
TORSDOF 6
