REMARK  Name = ZINC60373611
REMARK  12 active torsions:
REMARK  status: ('A' for Active; 'I' for Inactive)
REMARK    1  A    between atoms: C_1  and  C_2
REMARK    2  A    between atoms: C_3  and  C_16
REMARK    3  A    between atoms: C_8  and  C_10
REMARK    4  A    between atoms: C_16  and  C_17
REMARK    5  A    between atoms: C_17  and  C_18
REMARK    6  A    between atoms: N_20  and  C_21
REMARK    7  A    between atoms: C_21  and  C_22
REMARK    8  A    between atoms: C_22  and  C_23
REMARK    9  A    between atoms: C_22  and  C_24
REMARK   10  A    between atoms: C_22  and  N_25
REMARK   11  A    between atoms: C_27  and  C_34
REMARK   12  A    between atoms: C_30  and  C_33
REMARK                            x       y       z     vdW  Elec       q    Type
REMARK                         _______ _______ _______ _____ _____    ______ ____
ROOT
ATOM      1  C   UNL     1      -3.132  -0.275  -1.617  0.00  0.00    +0.100 C 
ENDROOT
BRANCH   1   2
ATOM      2  C   UNL     1      -4.367   0.586  -1.536  0.00  0.00    +0.213 C 
ATOM      3  O   UNL     1      -4.762   0.979  -0.459  0.00  0.00    -0.276 OA
ATOM      4  N   UNL     1      -5.031   0.919  -2.660  0.00  0.00    -0.317 N 
ATOM      5  H   UNL     1      -4.715   0.605  -3.522  0.00  0.00    +0.149 HD
BRANCH   4   6
ATOM      6  C   UNL     1      -6.231   1.756  -2.582  0.00  0.00    +0.092 C 
BRANCH   6   7
ATOM      7  C   UNL     1      -6.713   2.091  -3.995  0.00  0.00    -0.055 C 
ATOM      8  C   UNL     1      -7.168   0.809  -4.696  0.00  0.00    -0.008 C 
ATOM      9  C   UNL     1      -7.884   3.072  -3.915  0.00  0.00    -0.008 C 
BRANCH   7  10
ATOM     10  N   UNL     1      -5.614   2.700  -4.755  0.00  0.00    +0.384 N 
ATOM     11  C   UNL     1      -5.149   3.906  -4.059  0.00  0.00    -0.075 C 
ATOM     12  C   UNL     1      -3.951   4.500  -4.804  0.00  0.00    -0.031 C 
ATOM     13  C   UNL     1      -4.373   4.863  -6.230  0.00  0.00    +0.003 C 
ATOM     14  C   UNL     1      -4.925   3.614  -6.923  0.00  0.00    -0.031 C 
ATOM     15  C   UNL     1      -6.087   3.053  -6.099  0.00  0.00    -0.075 C 
ATOM     16  C   UNL     1      -5.421   3.982  -8.322  0.00  0.00    +0.005 C 
ATOM     17  C   UNL     1      -2.818   3.473  -4.851  0.00  0.00    +0.005 C 
ATOM     18  H   UNL     1      -4.852   2.043  -4.830  0.00  0.00    -0.081 HD
ENDBRANCH   7  10
ENDBRANCH   6   7
ENDBRANCH   4   6
ENDBRANCH   1   2
BRANCH   1  19
ATOM     19  C   UNL     1      -2.576  -0.502  -0.210  0.00  0.00    +0.051 C 
BRANCH  19  22
ATOM     20  C   UNL     1       0.040   0.705  -0.300  0.00  0.00    +0.066 C 
ATOM     21  C   UNL     1      -0.102  -0.795  -0.333  0.00  0.00    +0.049 A 
ATOM     22  C   UNL     1      -1.341  -1.363  -0.291  0.00  0.00    +0.038 A 
ATOM     23  C   UNL     1      -1.448  -2.767  -0.324  0.00  0.00    +0.255 A 
ATOM     24  O   UNL     1      -2.541  -3.309  -0.288  0.00  0.00    -0.268 OA
ATOM     25  N   UNL     1      -0.318  -3.502  -0.396  0.00  0.00    -0.307 N 
ATOM     26  H   UNL     1      -0.367  -4.470  -0.420  0.00  0.00    +0.170 HD
ATOM     27  C   UNL     1       0.893  -2.877  -0.435  0.00  0.00    +0.142 A 
ATOM     28  N   UNL     1       0.983  -1.563  -0.410  0.00  0.00    -0.234 NA
BRANCH  27  29
ATOM     29  C   UNL     1       2.126  -3.687  -0.514  0.00  0.00    +0.035 A 
ATOM     30  C   UNL     1       3.382  -3.070  -0.550  0.00  0.00    +0.014 A 
ATOM     31  C   UNL     1       4.506  -3.875  -0.625  0.00  0.00    +0.020 A 
ATOM     32  C   UNL     1       4.353  -5.249  -0.660  0.00  0.00    +0.111 A 
ATOM     33  N   UNL     1       3.156  -5.803  -0.625  0.00  0.00    -0.263 NA
ATOM     34  C   UNL     1       2.058  -5.081  -0.549  0.00  0.00    +0.122 A 
ENDBRANCH  27  29
ENDBRANCH  19  22
ENDBRANCH   1  19
TORSDOF 7
