REMARK  Name = ZINC39631443
REMARK  12 active torsions:
REMARK  status: ('A' for Active; 'I' for Inactive)
REMARK    1  A    between atoms: C_1  and  C_2
REMARK    2  A    between atoms: C_2  and  C_4
REMARK    3  A    between atoms: C_2  and  N_11
REMARK    4  A    between atoms: C_4  and  C_5
REMARK    5  A    between atoms: C_5  and  C_6
REMARK    6  A    between atoms: C_6  and  C_7
REMARK    7  A    between atoms: C_7  and  C_8
REMARK    8  A    between atoms: C_7  and  C_9
REMARK    9  A    between atoms: C_7  and  O_10
REMARK   10  A    between atoms: C_12  and  C_14
REMARK   11  A    between atoms: C_25  and  C_27
REMARK   12  A    between atoms: C_31  and  C_33
REMARK                            x       y       z     vdW  Elec       q    Type
REMARK                         _______ _______ _______ _____ _____    ______ ____
ROOT
ATOM      1  C   UNL     1      10.270   9.969  -3.119  0.00  0.00    +0.100 C 
ATOM      2  C   UNL     1      11.493  10.578  -3.841  0.00  0.00    +0.121 C 
ATOM      3  N   UNL     1      11.259  12.041  -3.804  0.00  0.00    -0.296 N 
ATOM      4  C   UNL     1      10.689  12.289  -2.458  0.00  0.00    +0.115 C 
ATOM      5  C   UNL     1       9.748  11.094  -2.210  0.00  0.00    -0.004 C 
ATOM      6  C   UNL     1       8.318  11.462  -2.592  0.00  0.00    -0.010 C 
ATOM      7  C   UNL     1       7.801  12.542  -1.638  0.00  0.00    -0.082 C 
ATOM      8  N   UNL     1       7.846  12.041  -0.259  0.00  0.00    +0.379 N 
ATOM      9  C   UNL     1       9.236  11.777   0.133  0.00  0.00    -0.082 C 
ATOM     10  C   UNL     1       9.813  10.665  -0.747  0.00  0.00    -0.010 C 
ATOM     11  C   UNL     1      11.508  12.943  -4.774  0.00  0.00    +0.247 C 
ATOM     12  O   UNL     1      11.297  14.123  -4.576  0.00  0.00    -0.270 OA
ATOM     13  H   UNL     1       7.448  12.731   0.361  0.00  0.00    -0.086 HD
ATOM     14  H   UNL     1       7.312  11.188  -0.195  0.00  0.00    -0.086 HD
ENDROOT
BRANCH  11  15
ATOM     15  C   UNL     1      12.038  12.496  -6.079  0.00  0.00    +0.038 A 
ATOM     16  C   UNL     1      11.223  11.778  -6.958  0.00  0.00    +0.016 A 
ATOM     17  C   UNL     1      11.723  11.364  -8.174  0.00  0.00    +0.039 A 
ATOM     18  C   UNL     1      13.031  11.658  -8.525  0.00  0.00    +0.135 A 
ATOM     19  C   UNL     1      13.844  12.370  -7.657  0.00  0.00    +0.091 A 
ATOM     20  C   UNL     1      13.353  12.795  -6.441  0.00  0.00    +0.028 A 
ATOM     21  F   UNL     1      13.516  11.250  -9.718  0.00  0.00    -0.205 F 
BRANCH  19  22
ATOM     22  C   UNL     1      15.266  12.686  -8.046  0.00  0.00    +0.420 C 
ATOM     23  F   UNL     1      15.882  13.406  -7.016  0.00  0.00    -0.166 F 
ATOM     24  F   UNL     1      15.965  11.494  -8.264  0.00  0.00    -0.166 F 
ATOM     25  F   UNL     1      15.270  13.451  -9.217  0.00  0.00    -0.166 F 
ENDBRANCH  19  22
ENDBRANCH  11  15
BRANCH   1  27
ATOM     26  N   UNL     1       8.370   8.558  -3.839  0.00  0.00    -0.312 N 
ATOM     27  C   UNL     1       9.215   9.570  -4.119  0.00  0.00    +0.218 C 
ATOM     28  O   UNL     1       9.127  10.159  -5.175  0.00  0.00    -0.275 OA
ATOM     29  H   UNL     1       8.414   8.114  -2.978  0.00  0.00    +0.149 HD
BRANCH  26  31
ATOM     30  C   UNL     1       6.036   8.783  -4.534  0.00  0.00    +0.028 C 
ATOM     31  C   UNL     1       7.386   8.129  -4.835  0.00  0.00    +0.070 C 
BRANCH  31  32
ATOM     32  C   UNL     1       7.238   6.607  -4.783  0.00  0.00    +0.022 C 
BRANCH  32  33
ATOM     33  C   UNL     1       8.613   5.955  -4.936  0.00  0.00    +0.005 C 
BRANCH  33  34
ATOM     34  C   UNL     1       8.448   4.440  -5.070  0.00  0.00    +0.034 C 
BRANCH  34  35
ATOM     35  C   UNL     1       9.820   3.792  -5.259  0.00  0.00    +0.061 C 
ATOM     36  C   UNL     1      10.886   4.642  -4.566  0.00  0.00    +0.041 C 
ATOM     37  C   UNL     1       9.810   2.389  -4.649  0.00  0.00    +0.041 C 
BRANCH  35  38
ATOM     38  O   UNL     1      10.117   3.702  -6.654  0.00  0.00    -0.389 OA
ATOM     39  H   UNL     1      10.940   3.235  -6.853  0.00  0.00    +0.210 HD
ENDBRANCH  35  38
ENDBRANCH  34  35
ENDBRANCH  33  34
ENDBRANCH  32  33
ENDBRANCH  31  32
ENDBRANCH  26  31
ENDBRANCH   1  27
TORSDOF 9
