REMARK  Name = ZINC21345411
REMARK  11 active torsions:
REMARK  status: ('A' for Active; 'I' for Inactive)
REMARK    1  A    between atoms: C_1  and  C_2
REMARK    2  A    between atoms: C_2  and  C_3
REMARK    3  A    between atoms: C_2  and  C_4
REMARK    4  A    between atoms: C_4  and  C_6
REMARK    5  A    between atoms: C_4  and  N_23
REMARK    6  A    between atoms: N_8  and  N_9
REMARK    7  A    between atoms: N_9  and  C_10
REMARK    8  A    between atoms: C_10  and  N_12
REMARK    9  A    between atoms: N_12  and  C_13
REMARK   10  A    between atoms: C_18  and  C_19
REMARK   11  A    between atoms: C_24  and  C_26
REMARK                            x       y       z     vdW  Elec       q    Type
REMARK                         _______ _______ _______ _____ _____    ______ ____
ROOT
ATOM      1  C   UNL     1      -5.868   2.022  -0.212  0.00  0.00    +0.250 C 
ATOM      2  O   UNL     1      -6.770   1.429  -0.767  0.00  0.00    -0.272 OA
ATOM      3  N   UNL     1      -4.936   1.336   0.478  0.00  0.00    -0.234 N 
ATOM      4  H   UNL     1      -4.167   1.877   1.050  0.00  0.00    +0.173 HD
ENDROOT
BRANCH   3   5
ATOM      5  N   UNL     1      -4.944  -0.065   0.466  0.00  0.00    -0.246 N 
ATOM      6  H   UNL     1      -5.713  -0.605  -0.106  0.00  0.00    +0.172 HD
BRANCH   5   7
ATOM      7  C   UNL     1      -4.011  -0.750   1.156  0.00  0.00    +0.151 C 
ATOM      8  S   UNL     1      -4.022  -2.462   1.142  0.00  0.00    -0.017 S 
BRANCH   7   9
ATOM      9  N   UNL     1      -3.070  -0.088   1.857  0.00  0.00    -0.295 N 
ATOM     10  H   UNL     1      -3.091   1.010   1.905  0.00  0.00    +0.154 HD
BRANCH   9  11
ATOM     11  C   UNL     1      -2.067  -0.798   2.525  0.00  0.00    +0.044 A 
ATOM     12  C   UNL     1      -1.496  -1.918   1.934  0.00  0.00    +0.024 A 
ATOM     13  C   UNL     1      -0.505  -2.617   2.595  0.00  0.00    +0.002 A 
ATOM     14  C   UNL     1      -0.081  -2.202   3.845  0.00  0.00    +0.001 A 
ATOM     15  C   UNL     1      -0.643  -1.085   4.433  0.00  0.00    +0.014 A 
ATOM     16  C   UNL     1      -1.639  -0.385   3.780  0.00  0.00    +0.076 A 
BRANCH  16  17
ATOM     17  C   UNL     1      -2.255   0.829   4.425  0.00  0.00    +0.419 C 
ATOM     18  F   UNL     1      -1.664   1.044   5.674  0.00  0.00    -0.166 F 
ATOM     19  F   UNL     1      -2.044   1.948   3.611  0.00  0.00    -0.166 F 
ATOM     20  F   UNL     1      -3.629   0.624   4.588  0.00  0.00    -0.166 F 
ENDBRANCH  16  17
ENDBRANCH   9  11
ENDBRANCH   7   9
ENDBRANCH   5   7
ENDBRANCH   3   5
BRANCH   1  21
ATOM     21  C   UNL     1      -5.791   3.524  -0.295  0.00  0.00    +0.163 C 
BRANCH  21  22
ATOM     22  N   UNL     1      -7.139   4.074  -0.465  0.00  0.00    -0.297 N 
ATOM     23  C   UNL     1      -7.407   5.335  -0.071  0.00  0.00    +0.280 C 
ATOM     24  O   UNL     1      -6.529   6.017   0.425  0.00  0.00    -0.267 OA
ATOM     25  H   UNL     1      -7.932   3.457  -0.913  0.00  0.00    +0.150 HD
BRANCH  23  26
ATOM     26  C   UNL     1      -8.756   5.885  -0.240  0.00  0.00    +0.189 A 
ATOM     27  C   UNL     1      -9.161   7.140   0.113  0.00  0.00    +0.054 A 
ATOM     28  C   UNL     1     -10.519   7.237  -0.228  0.00  0.00    +0.042 A 
ATOM     29  C   UNL     1     -10.879   6.051  -0.768  0.00  0.00    +0.196 A 
ATOM     30  O   UNL     1      -9.812   5.241  -0.778  0.00  0.00    -0.458 OA
ENDBRANCH  23  26
ENDBRANCH  21  22
BRANCH  21  32
ATOM     31  C   UNL     1      -4.793   5.449  -1.536  0.00  0.00    +0.009 C 
ATOM     32  C   UNL     1      -4.923   3.925  -1.490  0.00  0.00    +0.012 C 
ATOM     33  C   UNL     1      -3.535   3.299  -1.344  0.00  0.00    +0.009 C 
ENDBRANCH  21  32
ENDBRANCH   1  21
TORSDOF 9
