REMARK  Name = ZINC52756657
REMARK  4 active torsions:
REMARK  status: ('A' for Active; 'I' for Inactive)
REMARK    1  A    between atoms: C_1  and  C_2
REMARK    2  A    between atoms: C_6  and  S_8
REMARK    3  A    between atoms: S_8  and  C_9
REMARK    4  A    between atoms: C_9  and  C_10
REMARK                            x       y       z     vdW  Elec       q    Type
REMARK                         _______ _______ _______ _____ _____    ______ ____
ROOT
ATOM      1  C   UNL     1       0.077  -4.615   2.202  0.00  0.00    +0.112 C 
ENDROOT
BRANCH   1   2
ATOM      2  C   UNL     1       0.095  -5.472   3.441  0.00  0.00    -0.032 A 
ATOM      3  C   UNL     1       1.297  -5.854   4.023  0.00  0.00    +0.024 A 
ATOM      4  C   UNL     1       1.279  -6.639   5.158  0.00  0.00    +0.113 A 
ATOM      5  N   UNL     1       0.138  -7.029   5.694  0.00  0.00    -0.241 NA
ATOM      6  C   UNL     1      -1.029  -6.685   5.169  0.00  0.00    +0.116 A 
ATOM      7  C   UNL     1      -1.085  -5.891   4.028  0.00  0.00    +0.047 A 
ATOM      8  N   UNL     1      -2.207  -7.117   5.767  0.00  0.00    -0.343 N 
ATOM      9  H   UNL     1      -2.172  -7.668   6.564  0.00  0.00    +0.144 HD
ATOM     10  H   UNL     1      -3.063  -6.868   5.386  0.00  0.00    +0.144 HD
ENDBRANCH   1   2
BRANCH   1  11
ATOM     11  S   UNL     1       0.055  -2.865   2.677  0.00  0.00    -0.081 S 
BRANCH  11  17
ATOM     12  C   UNL     1      -0.018   1.503   0.010  0.00  0.00    +0.066 C 
ATOM     13  C   UNL     1       0.002  -0.004   0.002  0.00  0.00    +0.043 A 
ATOM     14  C   UNL     1       0.006  -0.699  -1.198  0.00  0.00    +0.043 A 
ATOM     15  C   UNL     1       0.025  -2.084  -1.161  0.00  0.00    +0.115 A 
ATOM     16  N   UNL     1       0.040  -2.699   0.010  0.00  0.00    -0.230 NA
ATOM     17  C   UNL     1       0.035  -2.005   1.139  0.00  0.00    +0.189 A 
ATOM     18  N   UNL     1       0.022  -0.679   1.139  0.00  0.00    -0.227 NA
ENDBRANCH  11  17
ENDBRANCH   1  11
TORSDOF 3
