REMARK  Name = ZINC40844712
REMARK  7 active torsions:
REMARK  status: ('A' for Active; 'I' for Inactive)
REMARK    1  A    between atoms: C_1  and  O_2
REMARK    2  A    between atoms: O_2  and  C_3
REMARK    3  A    between atoms: C_3  and  C_5
REMARK    4  A    between atoms: C_9  and  N_10
REMARK    5  A    between atoms: N_13  and  N_14
REMARK    6  A    between atoms: C_15  and  C_16
REMARK    7  A    between atoms: C_19  and  O_22
REMARK                            x       y       z     vdW  Elec       q    Type
REMARK                         _______ _______ _______ _____ _____    ______ ____
ROOT
ATOM      1  N   UNL     1      -1.184  -2.421  -2.521  0.00  0.00    -0.262 N 
ATOM      2  C   UNL     1      -0.683  -3.142  -3.544  0.00  0.00    +0.324 C 
ATOM      3  O   UNL     1      -0.276  -4.271  -3.350  0.00  0.00    -0.251 OA
ATOM      4  N   UNL     1      -0.633  -2.611  -4.782  0.00  0.00    -0.191 N 
ATOM      5  H   UNL     1      -1.508  -1.520  -2.676  0.00  0.00    +0.157 HD
ATOM      6  H   UNL     1      -0.273  -3.129  -5.518  0.00  0.00    +0.179 HD
ENDROOT
BRANCH   1  11
ATOM      7  C   UNL     1      -1.712  -2.378  -0.086  0.00  0.00    +0.091 A 
ATOM      8  C   UNL     1      -1.659  -3.173   1.129  0.00  0.00    -0.021 A 
ATOM      9  C   UNL     1      -1.134  -4.405   0.962  0.00  0.00    -0.004 A 
ATOM     10  S   UNL     1      -0.730  -4.492  -0.758  0.00  0.00    -0.077 S 
ATOM     11  C   UNL     1      -1.234  -2.967  -1.249  0.00  0.00    +0.088 A 
ATOM     12  C   UNL     1      -0.944  -5.453   2.015  0.00  0.00    +0.043 C 
ATOM     13  C   UNL     1      -1.086  -4.785   3.390  0.00  0.00    +0.005 C 
ATOM     14  C   UNL     1      -2.348  -3.917   3.392  0.00  0.00    +0.005 C 
ATOM     15  C   UNL     1      -2.142  -2.697   2.492  0.00  0.00    +0.037 C 
BRANCH   7  16
ATOM     16  C   UNL     1      -2.251  -1.018  -0.086  0.00  0.00    +0.342 C 
ATOM     17  O   UNL     1      -3.437  -0.833  -0.288  0.00  0.00    -0.245 OA
BRANCH  16  19
ATOM     18  C   UNL     1      -2.029   1.331   0.124  0.00  0.00    +0.280 C 
ATOM     19  O   UNL     1      -1.434   0.032   0.139  0.00  0.00    -0.464 OA
ENDBRANCH  16  19
ENDBRANCH   7  16
ENDBRANCH   1  11
BRANCH   4  20
ATOM     20  N   UNL     1      -1.103  -1.310  -5.005  0.00  0.00    -0.186 NA
ATOM     21  C   UNL     1      -1.165  -0.841  -6.214  0.00  0.00    +0.138 C 
BRANCH  21  22
ATOM     22  C   UNL     1      -1.213  -1.765  -7.361  0.00  0.00    -0.005 A 
ATOM     23  C   UNL     1      -0.992  -1.288  -8.655  0.00  0.00    +0.013 A 
ATOM     24  C   UNL     1      -1.037  -2.155  -9.725  0.00  0.00    +0.046 A 
ATOM     25  C   UNL     1      -1.302  -3.503  -9.518  0.00  0.00    +0.117 A 
ATOM     26  C   UNL     1      -1.522  -3.982  -8.233  0.00  0.00    +0.046 A 
ATOM     27  C   UNL     1      -1.473  -3.123  -7.157  0.00  0.00    +0.013 A 
BRANCH  25  28
ATOM     28  O   UNL     1      -1.347  -4.354 -10.576  0.00  0.00    -0.507 OA
ATOM     29  H   UNL     1      -0.495  -4.758 -10.792  0.00  0.00    +0.292 HD
ENDBRANCH  25  28
ENDBRANCH  21  22
ENDBRANCH   4  20
TORSDOF 6
