REMARK  Name = ZINC27562701
REMARK  8 active torsions:
REMARK  status: ('A' for Active; 'I' for Inactive)
REMARK    1  A    between atoms: C_1  and  C_2
REMARK    2  A    between atoms: C_5  and  C_8
REMARK    3  A    between atoms: C_10  and  C_30
REMARK    4  A    between atoms: C_11  and  N_13
REMARK    5  A    between atoms: N_13  and  C_14
REMARK    6  A    between atoms: C_14  and  C_15
REMARK    7  A    between atoms: C_15  and  C_17
REMARK    8  A    between atoms: C_15  and  N_24
REMARK                            x       y       z     vdW  Elec       q    Type
REMARK                         _______ _______ _______ _____ _____    ______ ____
ROOT
ATOM      1  N   UNL     1       3.789   2.887   1.127  0.00  0.00    -0.314 N 
ATOM      2  H   UNL     1       4.535   3.043   1.921  0.00  0.00    +0.149 HD
ENDROOT
BRANCH   1   6
ATOM      3  C   UNL     1       0.389   3.784   0.963  0.00  0.00    +0.231 A 
ATOM      4  N   UNL     1       0.681   4.253   2.148  0.00  0.00    -0.196 NA
ATOM      5  C   UNL     1       1.990   3.997   2.406  0.00  0.00    +0.201 A 
ATOM      6  C   UNL     1       2.498   3.335   1.298  0.00  0.00    +0.225 A 
ATOM      7  O   UNL     1       1.484   3.217   0.421  0.00  0.00    -0.421 OA
BRANCH   3  12
ATOM      8  C   UNL     1      -4.783   4.075  -1.541  0.00  0.00    +0.044 C 
ATOM      9  C   UNL     1      -3.429   3.998  -0.885  0.00  0.00    -0.050 A 
ATOM     10  C   UNL     1      -3.244   4.534   0.377  0.00  0.00    +0.004 A 
ATOM     11  C   UNL     1      -2.006   4.467   0.984  0.00  0.00    +0.013 A 
ATOM     12  C   UNL     1      -0.940   3.858   0.320  0.00  0.00    +0.037 A 
ATOM     13  C   UNL     1      -1.132   3.325  -0.956  0.00  0.00    +0.013 A 
ATOM     14  C   UNL     1      -2.376   3.394  -1.548  0.00  0.00    +0.004 A 
ENDBRANCH   3  12
BRANCH   5  15
ATOM     15  C   UNL     1       2.709   4.345   3.595  0.00  0.00    +0.124 C 
ATOM     16  N   UNL     1       3.280   4.620   4.538  0.00  0.00    -0.189 NA
ENDBRANCH   5  15
ENDBRANCH   1   6
BRANCH   1  17
ATOM     17  C   UNL     1       4.169   2.201  -0.110  0.00  0.00    +0.094 C 
BRANCH  17  18
ATOM     18  C   UNL     1       5.676   1.937  -0.105  0.00  0.00    -0.020 C 
BRANCH  18  19
ATOM     19  C   UNL     1       6.416   3.249  -0.085  0.00  0.00    -0.059 A 
ATOM     20  C   UNL     1       6.585   3.965  -1.255  0.00  0.00    +0.003 A 
ATOM     21  C   UNL     1       7.259   5.171  -1.236  0.00  0.00    +0.020 A 
ATOM     22  C   UNL     1       7.774   5.658  -0.048  0.00  0.00    +0.041 A 
ATOM     23  C   UNL     1       7.608   4.939   1.123  0.00  0.00    +0.020 A 
ATOM     24  C   UNL     1       6.930   3.735   1.103  0.00  0.00    +0.003 A 
ATOM     25 CL   UNL     1       8.627   7.170  -0.025  0.00  0.00    -0.084 Cl
ENDBRANCH  18  19
BRANCH  18  26
ATOM     26  N   UNL     1       6.045   1.185  -1.311  0.00  0.00    +0.385 N 
ATOM     27  C   UNL     1       5.296  -0.075  -1.396  0.00  0.00    -0.078 C 
ATOM     28  C   UNL     1       5.597  -0.760  -2.731  0.00  0.00    -0.019 C 
ATOM     29  C   UNL     1       7.100  -1.031  -2.833  0.00  0.00    -0.004 C 
ATOM     30  C   UNL     1       7.860   0.291  -2.694  0.00  0.00    -0.019 C 
ATOM     31  C   UNL     1       7.494   0.946  -1.360  0.00  0.00    -0.078 C 
ATOM     32  H   UNL     1       5.777   1.794  -2.187  0.00  0.00    -0.081 HD
ENDBRANCH  18  26
ENDBRANCH  17  18
ENDBRANCH   1  17
TORSDOF 7
