REMARK  Name = ZINC43415043
REMARK  5 active torsions:
REMARK  status: ('A' for Active; 'I' for Inactive)
REMARK    1  A    between atoms: C_1  and  C_2
REMARK    2  A    between atoms: C_4  and  C_9
REMARK    3  A    between atoms: C_9  and  N_10
REMARK    4  A    between atoms: C_18  and  C_25
REMARK    5  A    between atoms: C_20  and  O_21
REMARK                            x       y       z     vdW  Elec       q    Type
REMARK                         _______ _______ _______ _____ _____    ______ ____
ROOT
ATOM      1  N   UNL     1       1.490  -2.519  -3.283  0.00  0.00    -0.295 N 
ATOM      2  C   UNL     1       1.705  -3.373  -4.304  0.00  0.00    +0.304 C 
ATOM      3  O   UNL     1       0.790  -3.669  -5.055  0.00  0.00    -0.252 OA
ATOM      4  N   UNL     1       2.913  -3.893  -4.492  0.00  0.00    -0.269 N 
ATOM      5  C   UNL     1       3.167  -4.638  -5.599  0.00  0.00    +0.038 A 
ATOM      6  C   UNL     1       4.306  -5.462  -5.642  0.00  0.00    +0.024 A 
ATOM      7  C   UNL     1       4.571  -6.211  -6.744  0.00  0.00    +0.013 A 
ATOM      8  C   UNL     1       3.704  -6.164  -7.850  0.00  0.00    +0.021 A 
ATOM      9  C   UNL     1       3.961  -6.934  -9.002  0.00  0.00    -0.033 A 
ATOM     10  C   UNL     1       3.078  -6.853 -10.061  0.00  0.00    +0.091 A 
ATOM     11  C   UNL     1       1.968  -6.026  -9.974  0.00  0.00    +0.285 A 
ATOM     12  O   UNL     1       1.726  -5.297  -8.879  0.00  0.00    -0.425 OA
ATOM     13  C   UNL     1       2.557  -5.339  -7.816  0.00  0.00    +0.141 A 
ATOM     14  C   UNL     1       2.293  -4.585  -6.688  0.00  0.00    +0.070 A 
ATOM     15  C   UNL     1       5.173  -7.826  -9.078  0.00  0.00    +0.045 C 
ATOM     16  H   UNL     1       2.218  -2.285  -2.686  0.00  0.00    +0.151 HD
ATOM     17  H   UNL     1       3.613  -3.741  -3.838  0.00  0.00    +0.156 HD
ENDROOT
BRANCH  11  18
ATOM     18  O   UNL     1       1.114  -5.956 -11.014  0.00  0.00    -0.480 OA
ATOM     19  H   UNL     1       0.368  -5.358 -10.871  0.00  0.00    +0.295 HD
ENDBRANCH  11  18
BRANCH   1  20
ATOM     20  C   UNL     1       0.158  -1.946  -3.076  0.00  0.00    +0.141 C 
BRANCH  20  24
ATOM     21  C   UNL     1       0.835   2.610  -1.120  0.00  0.00    +0.047 C 
ATOM     22  C   UNL     1       0.510   1.149  -0.943  0.00  0.00    -0.015 A 
ATOM     23  C   UNL     1       0.484   0.309  -2.040  0.00  0.00    +0.011 A 
ATOM     24  C   UNL     1       0.186  -1.031  -1.879  0.00  0.00    -0.030 A 
ATOM     25  C   UNL     1      -0.088  -1.533  -0.620  0.00  0.00    +0.008 A 
ATOM     26  C   UNL     1      -0.063  -0.695   0.479  0.00  0.00    +0.039 A 
ATOM     27  C   UNL     1       0.241   0.647   0.319  0.00  0.00    +0.126 A 
ATOM     28  F   UNL     1       0.271   1.466   1.393  0.00  0.00    -0.205 F 
ENDBRANCH  20  24
ENDBRANCH   1  20
TORSDOF 3
