REMARK  Name = ZINC33743431
REMARK  12 active torsions:
REMARK  status: ('A' for Active; 'I' for Inactive)
REMARK    1  A    between atoms: C_1  and  C_2
REMARK    2  A    between atoms: C_2  and  C_3
REMARK    3  A    between atoms: C_2  and  C_4
REMARK    4  A    between atoms: C_2  and  N_5
REMARK    5  A    between atoms: C_10  and  C_31
REMARK    6  A    between atoms: C_13  and  C_18
REMARK    7  A    between atoms: C_13  and  C_28
REMARK    8  A    between atoms: C_18  and  C_19
REMARK    9  A    between atoms: C_22  and  N_25
REMARK   10  A    between atoms: C_34  and  O_39
REMARK   11  A    between atoms: C_35  and  O_37
REMARK   12  A    between atoms: O_37  and  C_38
REMARK                            x       y       z     vdW  Elec       q    Type
REMARK                         _______ _______ _______ _____ _____    ______ ____
ROOT
ATOM      1  N   UNL     1       3.345   7.718   1.366  0.00  0.00    -0.236 N 
ATOM      2  C   UNL     1       2.899   6.481   0.972  0.00  0.00    +0.225 C 
ATOM      3  O   UNL     1       3.396   5.402   1.213  0.00  0.00    -0.275 OA
ATOM      4  C   UNL     1       1.705   6.754   0.203  0.00  0.00    +0.077 C 
ATOM      5  C   UNL     1       0.501   6.054  -0.273  0.00  0.00    -0.027 C 
ATOM      6  N   UNL     1      -0.477   7.154  -0.563  0.00  0.00    +0.396 N 
ATOM      7  C   UNL     1       0.150   8.442  -0.118  0.00  0.00    +0.052 C 
ATOM      8  C   UNL     1       1.103   7.985   0.993  0.00  0.00    +0.086 C 
ATOM      9  C   UNL     1       2.413   8.700   1.181  0.00  0.00    +0.225 C 
ATOM     10  O   UNL     1       2.603   9.897   1.169  0.00  0.00    -0.275 OA
ATOM     11  H   UNL     1      -0.688   7.182  -1.642  0.00  0.00    -0.083 HD
ATOM     12  H   UNL     1      -1.410   6.971  -0.011  0.00  0.00    -0.083 HD
ENDROOT
BRANCH   5  13
ATOM     13  C   UNL     1      -0.036   5.141   0.798  0.00  0.00    -0.057 A 
ATOM     14  C   UNL     1      -0.801   5.659   1.827  0.00  0.00    +0.006 A 
ATOM     15  C   UNL     1      -1.297   4.825   2.812  0.00  0.00    +0.049 A 
ATOM     16  C   UNL     1      -1.032   3.466   2.767  0.00  0.00    +0.158 A 
ATOM     17  C   UNL     1      -0.257   2.945   1.735  0.00  0.00    +0.161 A 
ATOM     18  C   UNL     1       0.237   3.786   0.751  0.00  0.00    +0.051 A 
BRANCH  17  19
ATOM     19  O   UNL     1       0.011   1.612   1.690  0.00  0.00    -0.491 OA
ATOM     20  C   UNL     1       0.808   1.148   0.599  0.00  0.00    +0.277 C 
ENDBRANCH  17  19
BRANCH  16  21
ATOM     21  O   UNL     1      -1.523   2.643   3.732  0.00  0.00    -0.503 OA
ATOM     22  H   UNL     1      -1.311   1.564   3.695  0.00  0.00    +0.292 HD
ENDBRANCH  16  21
ENDBRANCH   5  13
BRANCH   1  24
ATOM     23  C   UNL     1       4.541   8.539   3.336  0.00  0.00    +0.031 C 
ATOM     24  C   UNL     1       4.677   7.960   1.927  0.00  0.00    +0.036 C 
ATOM     25  C   UNL     1       5.451   6.641   1.990  0.00  0.00    +0.031 C 
ATOM     26  C   UNL     1       5.432   8.951   1.039  0.00  0.00    +0.031 C 
ENDBRANCH   1  24
BRANCH   7  27
ATOM     27  C   UNL     1      -0.890   9.388   0.425  0.00  0.00    +0.347 C 
ATOM     28  O   UNL     1      -0.659  10.034   1.420  0.00  0.00    -0.248 OA
ATOM     29  O   UNL     1      -2.073   9.514  -0.197  0.00  0.00    -0.248 OA
ENDBRANCH   7  27
BRANCH   7  30
ATOM     30  C   UNL     1       0.926   9.093  -1.265  0.00  0.00    +0.035 C 
BRANCH  30  31
ATOM     31  C   UNL     1      -0.043   9.614  -2.295  0.00  0.00    -0.048 A 
ATOM     32  C   UNL     1      -0.443   8.803  -3.341  0.00  0.00    +0.006 A 
ATOM     33  C   UNL     1      -1.335   9.280  -4.283  0.00  0.00    +0.033 A 
ATOM     34  C   UNL     1      -1.819  10.571  -4.185  0.00  0.00    +0.126 A 
ATOM     35  C   UNL     1      -1.415  11.384  -3.142  0.00  0.00    +0.033 A 
ATOM     36  C   UNL     1      -0.526  10.905  -2.198  0.00  0.00    +0.006 A 
BRANCH  34  37
ATOM     37  N   UNL     1      -2.770  11.084  -5.197  0.00  0.00    +0.056 N 
ATOM     38  O   UNL     1      -3.197  12.221  -5.111  0.00  0.00    -0.126 OA
ATOM     39  O   UNL     1      -3.127  10.368  -6.115  0.00  0.00    -0.126 OA
ENDBRANCH  34  37
ENDBRANCH  30  31
ENDBRANCH   7  30
TORSDOF 8
