REMARK  Name = ZINC13321597
REMARK  8 active torsions:
REMARK  status: ('A' for Active; 'I' for Inactive)
REMARK    1  A    between atoms: C_6  and  C_7
REMARK    2  A    between atoms: C_7  and  O_8
REMARK    3  A    between atoms: O_8  and  C_9
REMARK    4  A    between atoms: C_14  and  C_15
REMARK    5  A    between atoms: N_16  and  N_17
REMARK    6  A    between atoms: C_18  and  C_20
REMARK    7  A    between atoms: C_22  and  O_27
REMARK    8  A    between atoms: C_24  and  O_26
REMARK                            x       y       z     vdW  Elec       q    Type
REMARK                         _______ _______ _______ _____ _____    ______ ____
ROOT
ATOM      1  C   UNL     1       4.791  -0.239  -0.039  0.00  0.00    +0.130 A 
ATOM      2  C   UNL     1       6.005  -0.906  -0.060  0.00  0.00    +0.048 A 
ATOM      3  C   UNL     1       7.188  -0.192  -0.067  0.00  0.00    +0.023 A 
ATOM      4  C   UNL     1       7.171   1.194  -0.059  0.00  0.00    +0.042 A 
ATOM      5  C   UNL     1       5.970   1.874  -0.045  0.00  0.00    +0.033 A 
ATOM      6  C   UNL     1       4.768   1.163  -0.037  0.00  0.00    +0.038 A 
ATOM      7 CL   UNL     1       8.665   2.078  -0.069  0.00  0.00    -0.084 Cl
ENDROOT
BRANCH   6   8
ATOM      8  C   UNL     1       3.482   1.882  -0.021  0.00  0.00    +0.142 C 
ATOM      9  N   UNL     1       2.366   1.218  -0.014  0.00  0.00    -0.187 NA
BRANCH   9  10
ATOM     10  N   UNL     1       1.143   1.901   0.001  0.00  0.00    -0.203 N 
ATOM     11  C   UNL     1      -0.014   1.212   0.009  0.00  0.00    +0.263 C 
ATOM     12  O   UNL     1       0.002  -0.004   0.002  0.00  0.00    -0.268 OA
ATOM     13  H   UNL     1       1.130   2.871   0.007  0.00  0.00    +0.178 HD
BRANCH  11  14
ATOM     14  C   UNL     1      -1.304   1.933   0.019  0.00  0.00    +0.045 A 
ATOM     15  C   UNL     1      -1.326   3.329   0.032  0.00  0.00    +0.058 A 
ATOM     16  C   UNL     1      -2.537   4.001   0.036  0.00  0.00    +0.121 A 
ATOM     17  C   UNL     1      -3.727   3.289   0.037  0.00  0.00    +0.090 A 
ATOM     18  C   UNL     1      -3.711   1.901   0.030  0.00  0.00    +0.121 A 
ATOM     19  C   UNL     1      -2.505   1.221   0.021  0.00  0.00    +0.058 A 
BRANCH  18  20
ATOM     20  O   UNL     1      -4.880   1.209   0.031  0.00  0.00    -0.507 OA
ATOM     21  H   UNL     1      -5.215   1.004   0.915  0.00  0.00    +0.292 HD
ENDBRANCH  18  20
BRANCH  16  22
ATOM     22  O   UNL     1      -2.558   5.359   0.044  0.00  0.00    -0.507 OA
ATOM     23  H   UNL     1      -2.561   5.748   0.929  0.00  0.00    +0.292 HD
ENDBRANCH  16  22
ENDBRANCH  11  14
ENDBRANCH   9  10
ENDBRANCH   6   8
BRANCH   1  24
ATOM     24  O   UNL     1       3.628  -0.940  -0.027  0.00  0.00    -0.487 OA
BRANCH  24  25
ATOM     25  C   UNL     1       3.730  -2.365  -0.029  0.00  0.00    +0.264 C 
BRANCH  25  31
ATOM     26  C   UNL     1       1.731  -3.251   1.190  0.00  0.00    +0.010 A 
ATOM     27  C   UNL     1       0.463  -3.799   1.205  0.00  0.00    +0.039 A 
ATOM     28  C   UNL     1      -0.186  -4.074   0.014  0.00  0.00    +0.123 A 
ATOM     29  C   UNL     1       0.435  -3.795  -1.192  0.00  0.00    +0.039 A 
ATOM     30  C   UNL     1       1.702  -3.243  -1.205  0.00  0.00    +0.010 A 
ATOM     31  C   UNL     1       2.349  -2.968  -0.014  0.00  0.00    -0.010 A 
ATOM     32  F   UNL     1      -1.424  -4.614   0.027  0.00  0.00    -0.205 F 
ENDBRANCH  25  31
ENDBRANCH  24  25
ENDBRANCH   1  24
TORSDOF 8
