REMARK  Name = ZINC01606478
REMARK  7 active torsions:
REMARK  status: ('A' for Active; 'I' for Inactive)
REMARK    1  A    between atoms: CD1_1  and  CG1_2
REMARK    2  A    between atoms: CG1_2  and  CB_3
REMARK    3  A    between atoms: CB_3  and  CG2_5
REMARK    4  A    between atoms: CB_3  and  CA_6
REMARK    5  A    between atoms: CA_6  and  C_8
REMARK    6  A    between atoms: CA_6  and  N_10
REMARK    7  A    between atoms: C_13  and  C_18
REMARK                            x       y       z     vdW  Elec       q    Type
REMARK                         _______ _______ _______ _____ _____    ______ ____
ROOT
ATOM      1  N   ILE A   1      -1.822   5.042   2.834  0.00  0.00    -0.316 N 
ATOM      2  C   UNK A   0      -2.957   5.192   3.614  0.00  0.00    +0.125 A 
ATOM      3  C   UNK A   0      -3.591   4.076   4.165  0.00  0.00    +0.066 A 
ATOM      4  C   UNK A   0      -4.719   4.274   4.937  0.00  0.00    +0.045 A 
ATOM      5  N   UNK A   0      -5.164   5.507   5.131  0.00  0.00    -0.220 NA
ATOM      6  C   UNK A   0      -4.542   6.547   4.597  0.00  0.00    +0.214 A 
ATOM      7  N   UNK A   0      -3.455   6.401   3.855  0.00  0.00    -0.200 NA
ATOM      8  N   UNK A   0      -5.038   7.819   4.823  0.00  0.00    -0.327 N 
ATOM      9  C   UNK A   0      -5.437   3.100   5.551  0.00  0.00    +0.066 C 
ATOM     10  H   ILE A   1      -1.387   5.822   2.455  0.00  0.00    +0.148 HD
ATOM     11  H   UNK A   0      -5.832   7.941   5.368  0.00  0.00    +0.145 HD
ATOM     12  H   UNK A   0      -4.592   8.590   4.438  0.00  0.00    +0.145 HD
ENDROOT
BRANCH   1  13
ATOM     13  CA  ILE A   1      -1.279   3.705   2.581  0.00  0.00    +0.188 C 
BRANCH  13  14
ATOM     14  C   ILE A   1      -0.374   3.307   3.718  0.00  0.00    +0.376 C 
ATOM     15  O   ILE A   1       0.113   4.155   4.428  0.00  0.00    -0.244 OA
ATOM     16  OXT ILE A   1      -0.109   2.010   3.943  0.00  0.00    -0.244 OA
ENDBRANCH  13  14
BRANCH  13  17
ATOM     17  CB  ILE A   1      -0.482   3.717   1.275  0.00  0.00    +0.017 C 
ATOM     18  CG2 ILE A   1       0.611   4.784   1.355  0.00  0.00    +0.010 C 
BRANCH  17  20
ATOM     19  CD1 ILE A   1      -0.654   3.905  -1.210  0.00  0.00    +0.004 C 
ATOM     20  CG1 ILE A   1      -1.420   4.033   0.108  0.00  0.00    +0.002 C 
ENDBRANCH  17  20
ENDBRANCH  13  17
ENDBRANCH   1  13
TORSDOF 4
