REMARK  Name = ZINC20916154
REMARK  9 active torsions:
REMARK  status: ('A' for Active; 'I' for Inactive)
REMARK    1  A    between atoms: C_9  and  O_35
REMARK    2  A    between atoms: C_10  and  C_11
REMARK    3  A    between atoms: N_12  and  N_13
REMARK    4  A    between atoms: C_17  and  S_20
REMARK    5  A    between atoms: N_18  and  N_19
REMARK    6  A    between atoms: S_20  and  C_21
REMARK    7  A    between atoms: C_21  and  C_22
REMARK    8  A    between atoms: N_24  and  C_25
REMARK    9  A    between atoms: C_26  and  C_33
REMARK                            x       y       z     vdW  Elec       q    Type
REMARK                         _______ _______ _______ _____ _____    ______ ____
ROOT
ATOM      1  N   UNL     1      -2.573   8.058   0.069  0.00  0.00    -0.204 N 
ATOM      2  C   UNL     1      -2.564   9.445   0.076  0.00  0.00    +0.254 A 
ATOM      3  N   UNL     1      -1.498  10.209   0.076  0.00  0.00    -0.109 NA
ATOM      4  N   UNL     1      -1.923  11.544   0.081  0.00  0.00    -0.119 NA
ATOM      5  C   UNL     1      -3.234  11.552   0.093  0.00  0.00    +0.210 A 
ATOM      6  N   UNL     1      -3.665  10.256   0.091  0.00  0.00    -0.211 N 
ATOM      7  H   UNL     1      -3.529   7.514   0.075  0.00  0.00    +0.177 HD
ENDROOT
BRANCH   6   8
ATOM      8  N   UNL     1      -4.967   9.842   0.100  0.00  0.00    -0.294 N 
ATOM      9  H   UNL     1      -5.779  10.584   0.112  0.00  0.00    +0.163 HD
ATOM     10  H   UNL     1      -5.202   8.768   0.096  0.00  0.00    +0.163 HD
ENDBRANCH   6   8
BRANCH   1  12
ATOM     11  C   UNL     1      -1.373   6.050   0.047  0.00  0.00    +0.142 C 
ATOM     12  N   UNL     1      -1.364   7.350   0.054  0.00  0.00    -0.187 NA
BRANCH  11  22
ATOM     13  C   UNL     1      -0.013   1.076   0.008  0.00  0.00    +0.001 A 
ATOM     14  C   UNL     1      -1.234   1.745   0.017  0.00  0.00    +0.001 A 
ATOM     15  C   UNL     1      -1.286   3.107   0.031  0.00  0.00    +0.009 A 
ATOM     16  C   UNL     1      -0.096   3.845   0.024  0.00  0.00    -0.006 A 
ATOM     17  C   UNL     1       1.148   3.168   0.008  0.00  0.00    -0.017 A 
ATOM     18  C   UNL     1       1.163   1.762   0.000  0.00  0.00    +0.008 A 
ATOM     19  C   UNL     1       2.341   3.910   0.000  0.00  0.00    +0.012 A 
ATOM     20  C   UNL     1       2.314   5.270   0.009  0.00  0.00    +0.046 A 
ATOM     21  C   UNL     1       1.116   5.981   0.023  0.00  0.00    +0.126 A 
ATOM     22  C   UNL     1      -0.105   5.306   0.032  0.00  0.00    +0.044 A 
BRANCH  21  23
ATOM     23  O   UNL     1       1.137   7.339   0.030  0.00  0.00    -0.506 OA
ATOM     24  H   UNL     1       0.193   7.903   0.042  0.00  0.00    +0.292 HD
ENDBRANCH  21  23
ENDBRANCH  11  22
ENDBRANCH   1  12
BRANCH   5  25
ATOM     25  S   UNL     1      -4.261  12.985   0.110  0.00  0.00    -0.075 S 
BRANCH  25  26
ATOM     26  C   UNL     1      -3.086  14.367   0.107  0.00  0.00    +0.173 C 
BRANCH  26  27
ATOM     27  C   UNL     1      -3.843  15.669   0.120  0.00  0.00    +0.228 C 
ATOM     28  O   UNL     1      -5.056  15.666   0.131  0.00  0.00    -0.275 OA
ATOM     29  N   UNL     1      -3.172  16.839   0.120  0.00  0.00    -0.278 N 
ATOM     30  H   UNL     1      -2.072  16.842   0.111  0.00  0.00    +0.155 HD
BRANCH  29  31
ATOM     31  C   UNL     1      -3.869  18.039   0.133  0.00  0.00    +0.090 A 
ATOM     32  C   UNL     1      -3.364  19.326   0.141  0.00  0.00    +0.084 A 
ATOM     33  C   UNL     1      -4.322  20.431   0.150  0.00  0.00    -0.018 A 
ATOM     34  C   UNL     1      -5.617  20.063   0.159  0.00  0.00    -0.004 A 
ATOM     35  S   UNL     1      -5.582  18.287   0.150  0.00  0.00    -0.077 S 
ATOM     36  C   UNL     1      -6.540  21.251   0.170  0.00  0.00    +0.043 C 
ATOM     37  C   UNL     1      -5.654  22.437  -0.270  0.00  0.00    +0.010 C 
ATOM     38  C   UNL     1      -4.253  21.958   0.159  0.00  0.00    +0.037 C 
BRANCH  32  39
ATOM     39  C   UNL     1      -1.953  19.569   0.136  0.00  0.00    +0.102 C 
ATOM     40  N   UNL     1      -0.833  19.762   0.132  0.00  0.00    -0.191 NA
ENDBRANCH  32  39
ENDBRANCH  29  31
ENDBRANCH  26  27
ENDBRANCH  25  26
ENDBRANCH   5  25
TORSDOF 9
