REMARK  Name = ZINC08602675
REMARK  14 active torsions:
REMARK  status: ('A' for Active; 'I' for Inactive)
REMARK    1  A    between atoms: C_3  and  O_36
REMARK    2  A    between atoms: C_6  and  C_7
REMARK    3  A    between atoms: C_7  and  C_8
REMARK    4  A    between atoms: C_8  and  C_9
REMARK    5  A    between atoms: C_9  and  C_11
REMARK    6  A    between atoms: C_12  and  O_35
REMARK    7  A    between atoms: C_14  and  O_34
REMARK    8  A    between atoms: C_16  and  O_17
REMARK    9  A    between atoms: O_17  and  C_18
REMARK   10  A    between atoms: C_20  and  O_33
REMARK   11  A    between atoms: C_22  and  O_32
REMARK   12  A    between atoms: C_24  and  O_31
REMARK   13  A    between atoms: C_26  and  C_29
REMARK   14  A    between atoms: C_29  and  O_30
REMARK                            x       y       z     vdW  Elec       q    Type
REMARK                         _______ _______ _______ _____ _____    ______ ____
ROOT
ATOM      1  C   UNL     1      -1.982   0.742   3.806  0.00  0.00    +0.101 A 
ATOM      2  C   UNL     1      -2.732   1.013   4.966  0.00  0.00    +0.134 A 
ATOM      3  C   UNL     1      -2.199   1.816   5.956  0.00  0.00    +0.091 A 
ATOM      4  C   UNL     1      -0.925   2.352   5.812  0.00  0.00    +0.124 A 
ATOM      5  C   UNL     1      -0.175   2.086   4.674  0.00  0.00    +0.092 A 
ATOM      6  C   UNL     1      -0.690   1.284   3.672  0.00  0.00    +0.141 A 
ENDROOT
BRANCH   1   7
ATOM      7  C   UNL     1      -2.538  -0.101   2.750  0.00  0.00    +0.170 C 
ATOM      8  O   UNL     1      -1.886  -0.336   1.754  0.00  0.00    -0.292 OA
BRANCH   7   9
ATOM      9  C   UNL     1      -3.922  -0.679   2.899  0.00  0.00    +0.084 C 
BRANCH   9  10
ATOM     10  C   UNL     1      -4.260  -1.517   1.663  0.00  0.00    +0.043 C 
BRANCH  10  16
ATOM     11  C   UNL     1      -5.815  -3.332   2.405  0.00  0.00    +0.007 A 
ATOM     12  C   UNL     1      -7.083  -3.861   2.548  0.00  0.00    +0.045 A 
ATOM     13  C   UNL     1      -8.184  -3.156   2.083  0.00  0.00    +0.117 A 
ATOM     14  C   UNL     1      -8.009  -1.918   1.483  0.00  0.00    +0.045 A 
ATOM     15  C   UNL     1      -6.739  -1.390   1.349  0.00  0.00    +0.007 A 
ATOM     16  C   UNL     1      -5.644  -2.095   1.812  0.00  0.00    -0.047 A 
BRANCH  13  17
ATOM     17  O   UNL     1      -9.432  -3.678   2.216  0.00  0.00    -0.507 OA
ATOM     18  H   UNL     1      -9.713  -4.222   1.468  0.00  0.00    +0.292 HD
ENDBRANCH  13  17
ENDBRANCH  10  16
ENDBRANCH   9  10
ENDBRANCH   7   9
ENDBRANCH   1   7
BRANCH   4  19
ATOM     19  O   UNL     1      -0.411   3.140   6.789  0.00  0.00    -0.507 OA
ATOM     20  H   UNL     1      -0.606   4.080   6.680  0.00  0.00    +0.292 HD
ENDBRANCH   4  19
BRANCH   2  21
ATOM     21  O   UNL     1      -3.976   0.491   5.109  0.00  0.00    -0.506 OA
ATOM     22  H   UNL     1      -4.680   1.052   4.758  0.00  0.00    +0.292 HD
ENDBRANCH   2  21
BRANCH   6  23
ATOM     23  O   UNL     1       0.045   1.026   2.562  0.00  0.00    -0.460 OA
BRANCH  23  24
ATOM     24  C   UNL     1       1.345   1.615   2.493  0.00  0.00    +0.339 C 
ATOM     25  C   UNL     1       2.066   1.115   1.238  0.00  0.00    +0.214 C 
ATOM     26  C   UNL     1       1.286   1.562  -0.002  0.00  0.00    +0.180 C 
ATOM     27  C   UNL     1       1.147   3.087   0.019  0.00  0.00    +0.177 C 
ATOM     28  C   UNL     1       0.461   3.511   1.320  0.00  0.00    +0.179 C 
ATOM     29  O   UNL     1       1.221   3.037   2.434  0.00  0.00    -0.331 OA
BRANCH  27  30
ATOM     30  O   UNL     1       0.359   3.510  -1.096  0.00  0.00    -0.386 OA
ATOM     31  H   UNL     1       0.732   3.269  -1.955  0.00  0.00    +0.210 HD
ENDBRANCH  27  30
BRANCH  26  32
ATOM     32  O   UNL     1      -0.011   0.963   0.007  0.00  0.00    -0.386 OA
ATOM     33  H   UNL     1       0.002  -0.004   0.002  0.00  0.00    +0.210 HD
ENDBRANCH  26  32
BRANCH  25  34
ATOM     34  O   UNL     1       2.140  -0.312   1.267  0.00  0.00    -0.383 OA
ATOM     35  H   UNL     1       2.621  -0.666   2.028  0.00  0.00    +0.210 HD
ENDBRANCH  25  34
BRANCH  28  36
ATOM     36  C   UNL     1       0.372   5.038   1.376  0.00  0.00    +0.190 C 
BRANCH  36  37
ATOM     37  O   UNL     1      -0.369   5.430   2.533  0.00  0.00    -0.392 OA
ATOM     38  H   UNL     1      -0.466   6.387   2.633  0.00  0.00    +0.210 HD
ENDBRANCH  36  37
ENDBRANCH  28  36
ENDBRANCH  23  24
ENDBRANCH   6  23
TORSDOF 14
