REMARK  Name = ZINC58949486
REMARK  8 active torsions:
REMARK  status: ('A' for Active; 'I' for Inactive)
REMARK    1  A    between atoms: C_1  and  C_2
REMARK    2  A    between atoms: C_2  and  O_3
REMARK    3  A    between atoms: O_3  and  C_4
REMARK    4  A    between atoms: C_4  and  C_6
REMARK    5  A    between atoms: C_7  and  N_26
REMARK    6  A    between atoms: C_9  and  C_25
REMARK    7  A    between atoms: C_10  and  C_22
REMARK    8  A    between atoms: C_11  and  C_13
REMARK                            x       y       z     vdW  Elec       q    Type
REMARK                         _______ _______ _______ _____ _____    ______ ____
ROOT
ATOM      1  C   UNL     1       1.446  -2.321  -2.454  0.00  0.00    +0.105 C 
ATOM      2  C   UNL     1       1.608  -3.664  -2.575  0.00  0.00    +0.195 C 
ATOM      3  O   UNL     1       2.196  -4.205  -3.657  0.00  0.00    -0.446 OA
ATOM      4  C   UNL     1       2.300  -3.490  -4.790  0.00  0.00    +0.113 C 
ATOM      5  C   UNL     1       2.181  -2.158  -4.800  0.00  0.00    +0.064 C 
ATOM      6  C   UNL     1       1.917  -1.389  -3.537  0.00  0.00    +0.099 C 
ATOM      7  C   UNL     1       2.559  -4.212  -6.087  0.00  0.00    +0.087 C 
ENDROOT
BRANCH   6   8
ATOM      8  C   UNL     1       3.189  -0.711  -3.095  0.00  0.00    -0.031 A 
ATOM      9  C   UNL     1       4.307  -1.469  -2.799  0.00  0.00    +0.008 A 
ATOM     10  C   UNL     1       5.476  -0.852  -2.394  0.00  0.00    +0.050 A 
ATOM     11  C   UNL     1       5.529   0.528  -2.283  0.00  0.00    +0.166 A 
ATOM     12  C   UNL     1       4.403   1.291  -2.580  0.00  0.00    +0.167 A 
ATOM     13  C   UNL     1       3.237   0.666  -2.991  0.00  0.00    +0.054 A 
ATOM     14  O   UNL     1       4.707   2.609  -2.395  0.00  0.00    -0.453 OA
ATOM     15  C   UNL     1       5.901   2.618  -1.590  0.00  0.00    +0.466 C 
ATOM     16  O   UNL     1       6.539   1.368  -1.911  0.00  0.00    -0.453 OA
ENDBRANCH   6   8
BRANCH   5  17
ATOM     17  C   UNL     1       2.304  -1.437  -6.066  0.00  0.00    +0.242 C 
ATOM     18  O   UNL     1       2.513  -2.049  -7.097  0.00  0.00    -0.271 OA
ATOM     19  N   UNL     1       2.187  -0.095  -6.091  0.00  0.00    -0.325 N 
ATOM     20  H   UNL     1       2.020   0.393  -5.269  0.00  0.00    +0.145 HD
ATOM     21  H   UNL     1       2.269   0.384  -6.931  0.00  0.00    +0.145 HD
ENDBRANCH   5  17
BRANCH   2  22
ATOM     22  N   UNL     1       1.163  -4.486  -1.574  0.00  0.00    -0.329 N 
ATOM     23  H   UNL     1       0.656  -4.117  -0.834  0.00  0.00    +0.145 HD
ATOM     24  H   UNL     1       1.354  -5.436  -1.606  0.00  0.00    +0.145 HD
ENDBRANCH   2  22
BRANCH   1  25
ATOM     25  C   UNL     1       0.826  -1.797  -1.310  0.00  0.00    +0.341 C 
ATOM     26  O   UNL     1      -0.338  -1.442  -1.356  0.00  0.00    -0.245 OA
BRANCH  25  27
ATOM     27  O   UNL     1       1.520  -1.688  -0.156  0.00  0.00    -0.462 OA
BRANCH  27  29
ATOM     28  C   UNL     1       1.768  -1.100   2.175  0.00  0.00    +0.048 C 
ATOM     29  C   UNL     1       0.826  -1.146   0.970  0.00  0.00    +0.229 C 
ENDBRANCH  27  29
ENDBRANCH  25  27
ENDBRANCH   1  25
TORSDOF 6
