REMARK  Name = ZINC44264192
REMARK  5 active torsions:
REMARK  status: ('A' for Active; 'I' for Inactive)
REMARK    1  A    between atoms: C_1  and  C_2
REMARK    2  A    between atoms: C_9  and  C_16
REMARK    3  A    between atoms: C_10  and  C_11
REMARK    4  A    between atoms: C_12  and  C_13
REMARK    5  A    between atoms: C_20  and  N_22
REMARK                            x       y       z     vdW  Elec       q    Type
REMARK                         _______ _______ _______ _____ _____    ______ ____
ROOT
ATOM      1  C   UNL     1      -0.357   1.410  -0.136  0.00  0.00    +0.047 C 
ATOM      2  C   UNL     1      -0.394  -0.096  -0.093  0.00  0.00    -0.008 A 
ATOM      3  C   UNL     1      -0.626  -0.810  -1.230  0.00  0.00    +0.008 A 
ATOM      4  C   UNL     1      -0.658  -2.211  -1.175  0.00  0.00    +0.018 A 
ATOM      5  C   UNL     1      -0.459  -2.849   0.001  0.00  0.00    +0.093 A 
ATOM      6  N   UNL     1      -0.226  -2.144   1.142  0.00  0.00    -0.299 N 
ATOM      7  C   UNL     1      -0.183  -0.777   1.121  0.00  0.00    +0.142 A 
ATOM      8  N   UNL     1       0.064  -0.334   2.350  0.00  0.00    -0.227 NA
ATOM      9  C   UNL     1       0.192  -1.363   3.185  0.00  0.00    +0.097 A 
ATOM     10  C   UNL     1       0.003  -2.539   2.447  0.00  0.00    +0.074 A 
ENDROOT
BRANCH   9  11
ATOM     11  C   UNL     1       0.471  -1.280   4.637  0.00  0.00    +0.005 A 
ATOM     12  C   UNL     1      -0.090  -2.210   5.512  0.00  0.00    +0.010 A 
ATOM     13  C   UNL     1       0.174  -2.127   6.864  0.00  0.00    +0.003 A 
ATOM     14  C   UNL     1       0.992  -1.124   7.352  0.00  0.00    +0.033 A 
ATOM     15  C   UNL     1       1.551  -0.198   6.489  0.00  0.00    +0.127 A 
ATOM     16  C   UNL     1       1.300  -0.274   5.134  0.00  0.00    +0.042 A 
BRANCH  15  17
ATOM     17  N   UNL     1       2.425   0.872   7.019  0.00  0.00    +0.056 N 
ATOM     18  O   UNL     1       2.650   0.937   8.205  0.00  0.00    -0.126 OA
ATOM     19  O   UNL     1       2.915   1.681   6.266  0.00  0.00    -0.126 OA
ENDBRANCH  15  17
ENDBRANCH   9  11
BRANCH  10  20
ATOM     20  C   UNL     1       0.052  -3.858   2.934  0.00  0.00    +0.033 C 
ATOM     21  C   UNL     1       0.978  -4.730   2.445  0.00  0.00    +0.069 C 
BRANCH  21  22
ATOM     22  C   UNL     1       1.970  -4.278   1.552  0.00  0.00    +0.234 C 
ATOM     23  O   UNL     1       2.069  -3.089   1.302  0.00  0.00    -0.271 OA
ATOM     24  N   UNL     1       2.810  -5.160   0.974  0.00  0.00    -0.326 N 
ATOM     25  H   UNL     1       2.732  -6.106   1.173  0.00  0.00    +0.145 HD
ATOM     26  H   UNL     1       3.493  -4.848   0.360  0.00  0.00    +0.145 HD
ENDBRANCH  21  22
ENDBRANCH  10  20
TORSDOF 4
