REMARK  Name = ZINC63333056
REMARK  8 active torsions:
REMARK  status: ('A' for Active; 'I' for Inactive)
REMARK    1  A    between atoms: C_3  and  N_26
REMARK    2  A    between atoms: C_6  and  N_7
REMARK    3  A    between atoms: N_7  and  C_8
REMARK    4  A    between atoms: C_8  and  C_9
REMARK    5  A    between atoms: C_9  and  N_10
REMARK    6  A    between atoms: N_13  and  C_14
REMARK    7  A    between atoms: N_17  and  C_20
REMARK    8  A    between atoms: C_20  and  C_21
REMARK                            x       y       z     vdW  Elec       q    Type
REMARK                         _______ _______ _______ _____ _____    ______ ____
ROOT
ATOM      1  N   UNL     1      -2.990  -3.843   0.147  0.00  0.00    -0.298 N 
ATOM      2  C   UNL     1      -4.102  -4.604   0.151  0.00  0.00    +0.300 C 
ATOM      3  O   UNL     1      -5.198  -4.081   0.213  0.00  0.00    -0.253 OA
ATOM      4  N   UNL     1      -3.999  -5.947   0.086  0.00  0.00    -0.297 N 
ATOM      5  H   UNL     1      -2.116  -4.260   0.097  0.00  0.00    +0.150 HD
ATOM      6  H   UNL     1      -3.125  -6.364   0.037  0.00  0.00    +0.151 HD
ENDROOT
BRANCH   4   7
ATOM      7  C   UNL     1      -5.208  -6.775   0.091  0.00  0.00    +0.071 C 
ATOM      8  C   UNL     1      -5.645  -7.034   1.535  0.00  0.00    +0.004 C 
ATOM      9  C   UNL     1      -6.860  -7.965   1.535  0.00  0.00    -0.077 C 
ATOM     10  N   UNL     1      -6.507  -9.236   0.893  0.00  0.00    +0.380 N 
ATOM     11  C   UNL     1      -6.156  -9.004  -0.513  0.00  0.00    -0.077 C 
ATOM     12  C   UNL     1      -4.913  -8.114  -0.592  0.00  0.00    +0.004 C 
ATOM     13  H   UNL     1      -5.720  -9.647   1.372  0.00  0.00    -0.082 HD
BRANCH  10  14
ATOM     14  C   UNL     1      -7.652 -10.154   0.965  0.00  0.00    -0.075 C 
BRANCH  14  15
ATOM     15  C   UNL     1      -7.918 -10.526   2.425  0.00  0.00    -0.028 C 
ATOM     16  C   UNL     1      -6.746 -11.364   2.978  0.00  0.00    +0.002 C 
ATOM     17  C   UNL     1      -7.426 -12.401   3.905  0.00  0.00    +0.000 C 
ATOM     18  C   UNL     1      -8.723 -12.751   3.134  0.00  0.00    +0.000 C 
ATOM     19  C   UNL     1      -9.174 -11.408   2.524  0.00  0.00    +0.002 C 
ENDBRANCH  14  15
ENDBRANCH  10  14
ENDBRANCH   4   7
BRANCH   1  20
ATOM     20  C   UNL     1      -3.102  -2.384   0.217  0.00  0.00    +0.124 C 
BRANCH  20  21
ATOM     21  C   UNL     1      -1.703  -1.763   0.197  0.00  0.00    +0.120 C 
BRANCH  21  22
ATOM     22  N   UNL     1      -1.815  -0.304   0.267  0.00  0.00    -0.342 N 
ATOM     23  H   UNL     1      -2.689   0.113   0.317  0.00  0.00    +0.146 HD
BRANCH  22  29
ATOM     24  C   UNL     1      -0.767   1.869   0.330  0.00  0.00    +0.025 A 
ATOM     25  C   UNL     1       0.374   2.647   0.326  0.00  0.00    +0.034 A 
ATOM     26  C   UNL     1       1.620   2.049   0.255  0.00  0.00    +0.126 A 
ATOM     27  C   UNL     1       1.727   0.672   0.188  0.00  0.00    +0.034 A 
ATOM     28  C   UNL     1       0.590  -0.111   0.192  0.00  0.00    +0.025 A 
ATOM     29  C   UNL     1      -0.663   0.485   0.263  0.00  0.00    +0.027 A 
BRANCH  26  30
ATOM     30  N   UNL     1       2.841   2.886   0.250  0.00  0.00    +0.056 N 
ATOM     31  O   UNL     1       2.748   4.090   0.308  0.00  0.00    -0.126 OA
ATOM     32  O   UNL     1       3.930   2.365   0.189  0.00  0.00    -0.126 OA
ENDBRANCH  26  30
ENDBRANCH  22  29
ENDBRANCH  21  22
ENDBRANCH  20  21
ENDBRANCH   1  20
TORSDOF 8
