REMARK  Name = ZINC64621385
REMARK  7 active torsions:
REMARK  status: ('A' for Active; 'I' for Inactive)
REMARK    1  A    between atoms: C_1  and  C_2
REMARK    2  A    between atoms: C_3  and  C_9
REMARK    3  A    between atoms: C_4  and  C_8
REMARK    4  A    between atoms: N_5  and  C_7
REMARK    5  A    between atoms: C_10  and  C_11
REMARK    6  A    between atoms: N_13  and  C_14
REMARK    7  A    between atoms: C_17  and  C_20
REMARK                            x       y       z     vdW  Elec       q    Type
REMARK                         _______ _______ _______ _____ _____    ______ ____
ROOT
ATOM      1  C   UNL     1      -0.926   0.971  -4.301  0.00  0.00    +0.241 C 
ATOM      2  O   UNL     1      -0.111   0.530  -5.091  0.00  0.00    -0.270 OA
ATOM      3  N   UNL     1      -1.836   1.878  -4.708  0.00  0.00    -0.282 N 
ATOM      4  H   UNL     1      -2.527   2.179  -4.098  0.00  0.00    +0.155 HD
ENDROOT
BRANCH   3   5
ATOM      5  C   UNL     1      -1.783   2.385  -6.010  0.00  0.00    +0.034 A 
ATOM      6  C   UNL     1      -1.387   1.564  -7.059  0.00  0.00    +0.024 A 
ATOM      7  C   UNL     1      -1.334   2.063  -8.343  0.00  0.00    +0.012 A 
ATOM      8  C   UNL     1      -1.679   3.390  -8.589  0.00  0.00    +0.002 A 
ATOM      9  C   UNL     1      -2.077   4.212  -7.536  0.00  0.00    +0.012 A 
ATOM     10  C   UNL     1      -2.133   3.708  -6.254  0.00  0.00    +0.024 A 
BRANCH   8  11
ATOM     11  C   UNL     1      -1.623   3.929  -9.971  0.00  0.00    +0.092 A 
ATOM     12  C   UNL     1      -1.937   5.246 -10.361  0.00  0.00    +0.049 A 
ATOM     13  C   UNL     1      -1.761   5.335 -11.697  0.00  0.00    +0.105 A 
ATOM     14  N   UNL     1      -1.351   4.129 -12.145  0.00  0.00    -0.284 N 
ATOM     15  H   UNL     1      -1.148   3.903 -13.066  0.00  0.00    +0.188 HD
ATOM     16  N   UNL     1      -1.266   3.262 -11.048  0.00  0.00    -0.174 NA
ENDBRANCH   8  11
ENDBRANCH   3   5
BRANCH   1  18
ATOM     17  C   UNL     1      -0.008  -0.380  -2.546  0.00  0.00    +0.016 C 
ATOM     18  C   UNL     1      -0.919   0.529  -2.954  0.00  0.00    +0.068 C 
BRANCH  17  21
ATOM     19  C   UNL     1      -0.042   1.488   0.018  0.00  0.00    +0.068 C 
ATOM     20  C   UNL     1      -0.015  -0.018   0.003  0.00  0.00    +0.067 A 
ATOM     21  C   UNL     1      -0.000  -0.838  -1.150  0.00  0.00    +0.018 A 
ATOM     22  C   UNL     1       0.022  -2.151  -0.716  0.00  0.00    +0.043 A 
ATOM     23  N   UNL     1       0.021  -2.129   0.628  0.00  0.00    -0.271 N 
ATOM     24  N   UNL     1       0.003  -0.795   1.051  0.00  0.00    -0.176 NA
ATOM     25  C   UNL     1       0.040  -3.304   1.503  0.00  0.00    +0.172 C 
ATOM     26  C   UNL     1       0.043  -3.379  -1.588  0.00  0.00    +0.066 C 
ENDBRANCH  17  21
ENDBRANCH   1  18
TORSDOF 4
