REMARK  Name = ZINC12735711
REMARK  5 active torsions:
REMARK  status: ('A' for Active; 'I' for Inactive)
REMARK    1  A    between atoms: C_4  and  C_7
REMARK    2  A    between atoms: C_8  and  C_9
REMARK    3  A    between atoms: C_9  and  N_10
REMARK    4  A    between atoms: C_12  and  N_20
REMARK    5  A    between atoms: C_14  and  C_17
REMARK                            x       y       z     vdW  Elec       q    Type
REMARK                         _______ _______ _______ _____ _____    ______ ____
ROOT
ATOM      1  N   UNL     1       2.127   1.419   1.118  0.00  0.00    -0.309 N 
ATOM      2  C   UNL     1       2.011   2.039   2.316  0.00  0.00    +0.122 A 
ATOM      3  C   UNL     1       2.753   1.649   3.385  0.00  0.00    +0.143 A 
ATOM      4  C   UNL     1       3.664   0.601   3.260  0.00  0.00    +0.052 A 
ATOM      5  C   UNL     1       3.793  -0.038   2.028  0.00  0.00    +0.103 A 
ATOM      6  C   UNL     1       2.991   0.401   0.943  0.00  0.00    +0.264 A 
ATOM      7  O   UNL     1       3.085  -0.141  -0.145  0.00  0.00    -0.267 OA
ENDROOT
BRANCH   5   8
ATOM      8  C   UNL     1       4.742  -1.148   1.856  0.00  0.00    +0.247 C 
ATOM      9  O   UNL     1       5.500  -1.446   2.760  0.00  0.00    -0.270 OA
ATOM     10  N   UNL     1       4.774  -1.834   0.697  0.00  0.00    -0.325 N 
ATOM     11  H   UNL     1       4.223  -1.551  -0.050  0.00  0.00    +0.145 HD
ATOM     12  H   UNL     1       5.347  -2.612   0.609  0.00  0.00    +0.145 HD
ENDBRANCH   5   8
BRANCH   3  13
ATOM     13  N   UNL     1       2.599   2.343   4.683  0.00  0.00    +0.058 N 
ATOM     14  O   UNL     1       1.804   3.259   4.793  0.00  0.00    -0.126 OA
ATOM     15  O   UNL     1       3.267   1.998   5.641  0.00  0.00    -0.126 OA
ENDBRANCH   3  13
BRANCH   1  16
ATOM     16  C   UNL     1       1.304   1.867  -0.008  0.00  0.00    +0.152 C 
BRANCH  16  18
ATOM     17  C   UNL     1      -1.148   1.745  -0.018  0.00  0.00    +0.005 C 
ATOM     18  C   UNL     1       0.009   1.097  -0.021  0.00  0.00    -0.005 C 
BRANCH  17  22
ATOM     19  C   UNL     1      -4.798  -0.426  -0.073  0.00  0.00    +0.000 A 
ATOM     20  C   UNL     1      -4.819   0.958  -0.052  0.00  0.00    +0.001 A 
ATOM     21  C   UNL     1      -3.637   1.669  -0.034  0.00  0.00    +0.008 A 
ATOM     22  C   UNL     1      -2.418   0.990  -0.037  0.00  0.00    -0.025 A 
ATOM     23  C   UNL     1      -2.403  -0.405  -0.064  0.00  0.00    +0.008 A 
ATOM     24  C   UNL     1      -3.593  -1.105  -0.076  0.00  0.00    +0.001 A 
ENDBRANCH  17  22
ENDBRANCH  16  18
ENDBRANCH   1  16
TORSDOF 5
