REMARK  Name = ZINC41549181
REMARK  7 active torsions:
REMARK  status: ('A' for Active; 'I' for Inactive)
REMARK    1  A    between atoms: C_1  and  C_2
REMARK    2  A    between atoms: C_5  and  C_9
REMARK    3  A    between atoms: C_6  and  C_8
REMARK    4  A    between atoms: C_9  and  C_11
REMARK    5  A    between atoms: C_9  and  N_12
REMARK    6  A    between atoms: C_13  and  C_15
REMARK    7  A    between atoms: C_15  and  C_27
REMARK                            x       y       z     vdW  Elec       q    Type
REMARK                         _______ _______ _______ _____ _____    ______ ____
ROOT
ATOM      1  N   UNL     1      -0.525  -4.764  -1.273  0.00  0.00    -0.305 N 
ATOM      2  C   UNL     1      -1.165  -5.950  -1.299  0.00  0.00    +0.266 C 
ATOM      3  O   UNL     1      -1.257  -6.612  -0.288  0.00  0.00    -0.271 OA
ATOM      4  H   UNL     1      -0.451  -4.235  -2.082  0.00  0.00    +0.149 HD
ENDROOT
BRANCH   2   5
ATOM      5  C   UNL     1      -1.766  -6.453  -2.587  0.00  0.00    +0.257 C 
ATOM      6  C   UNL     1      -2.889  -7.410  -2.276  0.00  0.00    +0.270 C 
ATOM      7  O   UNL     1      -2.673  -8.601  -2.206  0.00  0.00    -0.271 OA
ATOM      8  N   UNL     1      -4.136  -6.934  -2.075  0.00  0.00    -0.279 N 
ATOM      9  C   UNL     1      -4.391  -5.572  -2.283  0.00  0.00    +0.077 A 
ATOM     10  C   UNL     1      -5.588  -5.008  -1.872  0.00  0.00    +0.047 A 
ATOM     11  C   UNL     1      -5.819  -3.659  -2.074  0.00  0.00    +0.043 A 
ATOM     12  C   UNL     1      -4.857  -2.872  -2.683  0.00  0.00    +0.024 A 
ATOM     13  C   UNL     1      -3.663  -3.431  -3.099  0.00  0.00    +0.049 A 
ATOM     14  C   UNL     1      -3.428  -4.782  -2.906  0.00  0.00    +0.144 A 
ATOM     15  O   UNL     1      -2.269  -5.348  -3.340  0.00  0.00    -0.466 OA
ATOM     16 CL   UNL     1      -7.319  -2.951  -1.561  0.00  0.00    -0.083 Cl
ATOM     17  C   UNL     1      -0.692  -7.178  -3.401  0.00  0.00    +0.076 C 
ATOM     18  H   UNL     1      -4.848  -7.529  -1.790  0.00  0.00    +0.155 HD
ENDBRANCH   2   5
BRANCH   1  19
ATOM     19  C   UNL     1       0.059  -4.275  -0.021  0.00  0.00    +0.100 C 
ATOM     20  C   UNL     1       1.498  -4.782   0.102  0.00  0.00    +0.033 C 
BRANCH  19  25
ATOM     21  C   UNL     1       0.042   1.503  -0.018  0.00  0.00    +0.044 C 
ATOM     22  C   UNL     1       0.047  -0.004  -0.019  0.00  0.00    -0.050 A 
ATOM     23  C   UNL     1       0.085  -0.694  -1.216  0.00  0.00    +0.004 A 
ATOM     24  C   UNL     1       0.089  -2.076  -1.217  0.00  0.00    +0.006 A 
ATOM     25  C   UNL     1       0.056  -2.768  -0.021  0.00  0.00    -0.025 A 
ATOM     26  C   UNL     1       0.018  -2.078   1.176  0.00  0.00    -0.045 A 
ATOM     27  C   UNL     1       0.018  -0.696   1.177  0.00  0.00    +0.007 A 
ATOM     28  C   UNL     1      -0.019  -2.832   2.480  0.00  0.00    +0.044 C 
ENDBRANCH  19  25
ENDBRANCH   1  19
TORSDOF 3
