REMARK  Name = ZINC34785694
REMARK  7 active torsions:
REMARK  status: ('A' for Active; 'I' for Inactive)
REMARK    1  A    between atoms: C_1  and  C_2
REMARK    2  A    between atoms: C_2  and  O_3
REMARK    3  A    between atoms: O_3  and  C_4
REMARK    4  A    between atoms: C_4  and  C_6
REMARK    5  A    between atoms: C_10  and  N_11
REMARK    6  A    between atoms: N_17  and  C_20
REMARK    7  A    between atoms: C_20  and  C_21
REMARK                            x       y       z     vdW  Elec       q    Type
REMARK                         _______ _______ _______ _____ _____    ______ ____
ROOT
ATOM      1  N   UNL     1      -5.030  -3.389   3.334  0.00  0.00    -0.263 N 
ATOM      2  C   UNL     1      -3.806  -2.865   3.544  0.00  0.00    +0.307 C 
ATOM      3  O   UNL     1      -3.071  -2.639   2.601  0.00  0.00    -0.252 OA
ATOM      4  N   UNL     1      -3.397  -2.590   4.798  0.00  0.00    -0.283 N 
ATOM      5  C   UNL     1      -2.114  -1.912   5.042  0.00  0.00    +0.124 C 
ATOM      6  C   UNL     1      -2.363  -0.719   5.970  0.00  0.00    +0.104 C 
ATOM      7  N   UNL     1      -3.062  -1.179   7.178  0.00  0.00    -0.291 NA
ATOM      8  C   UNL     1      -4.386  -1.725   6.851  0.00  0.00    +0.104 C 
ATOM      9  C   UNL     1      -4.223  -2.954   5.959  0.00  0.00    +0.124 C 
ATOM     10  H   UNL     1      -5.586  -3.638   4.088  0.00  0.00    +0.157 HD
ENDROOT
BRANCH   1  15
ATOM     11  C   UNL     1      -6.710  -4.092   1.638  0.00  0.00    +0.091 A 
ATOM     12  C   UNL     1      -6.959  -4.175   0.199  0.00  0.00    -0.021 A 
ATOM     13  C   UNL     1      -5.943  -3.731  -0.560  0.00  0.00    -0.004 A 
ATOM     14  S   UNL     1      -4.704  -3.219   0.603  0.00  0.00    -0.077 S 
ATOM     15  C   UNL     1      -5.492  -3.572   2.040  0.00  0.00    +0.087 A 
ATOM     16  C   UNL     1      -6.249  -3.843  -2.030  0.00  0.00    +0.043 C 
ATOM     17  C   UNL     1      -7.441  -4.823  -2.106  0.00  0.00    +0.010 C 
ATOM     18  C   UNL     1      -8.089  -4.639  -0.719  0.00  0.00    +0.037 C 
BRANCH  11  19
ATOM     19  C   UNL     1      -7.710  -4.534   2.612  0.00  0.00    +0.342 C 
ATOM     20  O   UNL     1      -8.541  -3.749   3.028  0.00  0.00    -0.245 OA
BRANCH  19  21
ATOM     21  O   UNL     1      -7.709  -5.810   3.047  0.00  0.00    -0.461 OA
BRANCH  21  23
ATOM     22  C   UNL     1      -8.554  -7.647   4.371  0.00  0.00    +0.048 C 
ATOM     23  C   UNL     1      -8.713  -6.172   3.998  0.00  0.00    +0.229 C 
ENDBRANCH  21  23
ENDBRANCH  19  21
ENDBRANCH  11  19
ENDBRANCH   1  15
BRANCH   7  24
ATOM     24  C   UNL     1      -3.168  -0.100   8.169  0.00  0.00    +0.180 C 
BRANCH  24  25
ATOM     25  C   UNL     1      -3.663  -0.664   9.475  0.00  0.00    +0.230 C 
ATOM     26  O   UNL     1      -3.905  -1.849   9.571  0.00  0.00    -0.274 OA
ATOM     27  N   UNL     1      -3.838   0.148  10.537  0.00  0.00    -0.300 N 
ATOM     28  C   UNL     1      -3.555   1.586  10.434  0.00  0.00    +0.108 C 
ATOM     29  C   UNL     1      -4.791   2.365  10.894  0.00  0.00    +0.019 C 
ATOM     30  C   UNL     1      -5.189   1.902  12.297  0.00  0.00    +0.003 C 
ATOM     31  C   UNL     1      -5.542   0.413  12.263  0.00  0.00    +0.019 C 
ATOM     32  C   UNL     1      -4.320  -0.388  11.817  0.00  0.00    +0.108 C 
ENDBRANCH  24  25
ENDBRANCH   7  24
TORSDOF 6
