REMARK  Name = ZINC62824758
REMARK  2 active torsions:
REMARK  status: ('A' for Active; 'I' for Inactive)
REMARK    1  A    between atoms: C_3  and  N_11
REMARK    2  A    between atoms: C_4  and  C_8
REMARK                            x       y       z     vdW  Elec       q    Type
REMARK                         _______ _______ _______ _____ _____    ______ ____
ROOT
ATOM      1  N   UNL     1       3.435   2.137  -0.056  0.00  0.00    -0.269 N 
ATOM      2  C   UNL     1       3.342   3.475  -0.191  0.00  0.00    +0.306 C 
ATOM      3  O   UNL     1       2.250   4.011  -0.195  0.00  0.00    -0.252 OA
ATOM      4  N   UNL     1       4.458   4.219  -0.321  0.00  0.00    -0.287 N 
ATOM      5  C   UNL     1       5.773   3.555  -0.211  0.00  0.00    +0.107 C 
ATOM      6  C   UNL     1       6.753   4.090  -1.270  0.00  0.00    -0.000 C 
ATOM      7  C   UNL     1       6.021   4.294  -2.577  0.00  0.00    -0.081 C 
ATOM      8  N   UNL     1       5.554   5.676  -2.659  0.00  0.00    +0.380 N 
ATOM      9  C   UNL     1       4.284   5.910  -2.086  0.00  0.00    -0.063 C 
ATOM     10  C   UNL     1       4.325   5.640  -0.570  0.00  0.00    +0.090 C 
ATOM     11  H   UNL     1       4.306   1.718   0.032  0.00  0.00    +0.156 HD
ATOM     12  H   UNL     1       6.226   6.267  -2.194  0.00  0.00    -0.086 HD
ATOM     13  H   UNL     1       5.519   5.943  -3.631  0.00  0.00    -0.086 HD
ENDROOT
BRANCH   1  16
ATOM     14  C   UNL     1      -0.015   1.033  -0.650  0.00  0.00    +0.016 A 
ATOM     15  C   UNL     1       1.127   1.809  -0.664  0.00  0.00    +0.025 A 
ATOM     16  C   UNL     1       2.283   1.357  -0.043  0.00  0.00    +0.049 A 
ATOM     17  C   UNL     1       2.284   0.107   0.600  0.00  0.00    +0.085 A 
ATOM     18  C   UNL     1       1.120  -0.667   0.605  0.00  0.00    +0.031 A 
ATOM     19  C   UNL     1      -0.018  -0.201  -0.018  0.00  0.00    +0.014 A 
ATOM     20  I   UNL     1      -1.762  -1.362  -0.009  0.00  0.00    -0.044 I 
BRANCH  17  21
ATOM     21  C   UNL     1       3.503  -0.384   1.262  0.00  0.00    +0.388 C 
ATOM     22  O   UNL     1       3.529  -1.512   1.735  0.00  0.00    -0.241 OA
ATOM     23  O   UNL     1       4.489   0.336   1.339  0.00  0.00    -0.241 OA
ENDBRANCH  17  21
ENDBRANCH   1  16
TORSDOF 2
