REMARK  Name = ZINC03203688
REMARK  3 active torsions:
REMARK  status: ('A' for Active; 'I' for Inactive)
REMARK    1  A    between atoms: C_4  and  N_7
REMARK    2  A    between atoms: C_10  and  C_15
REMARK    3  A    between atoms: C_19  and  N_21
REMARK                            x       y       z     vdW  Elec       q    Type
REMARK                         _______ _______ _______ _____ _____    ______ ____
ROOT
ATOM      1  N   UNL     1      -0.017   1.397   0.010  0.00  0.00    -0.228 N 
ATOM      2  C   UNL     1       1.086   2.080   0.455  0.00  0.00    +0.029 C 
ATOM      3  C   UNL     1       1.099   3.428   0.478  0.00  0.00    +0.037 C 
ATOM      4  C   UNL     1      -0.089   4.228   0.010  0.00  0.00    +0.140 C 
ATOM      5  N   UNL     1      -1.181   3.377  -0.433  0.00  0.00    -0.288 N 
ATOM      6  C   UNL     1      -1.110   2.040  -0.423  0.00  0.00    +0.311 C 
ATOM      7  O   UNL     1      -2.063   1.393  -0.812  0.00  0.00    -0.252 OA
ATOM      8  C   UNL     1       2.225   4.133   0.943  0.00  0.00    +0.163 C 
ATOM      9  O   UNL     1       2.211   5.348   0.937  0.00  0.00    -0.292 OA
ATOM     10  C   UNL     1       3.445   3.413   1.446  0.00  0.00    +0.080 C 
ATOM     11  C   UNL     1       3.023   2.052   2.009  0.00  0.00    +0.014 C 
ATOM     12  C   UNL     1       2.283   1.283   0.913  0.00  0.00    +0.052 C 
ATOM     13  H   UNL     1      -1.995   3.795  -0.754  0.00  0.00    +0.151 HD
ENDROOT
BRANCH   1  17
ATOM     14  C   UNL     1       0.039  -2.771  -0.013  0.00  0.00    +0.000 A 
ATOM     15  C   UNL     1      -0.466  -2.093   1.081  0.00  0.00    +0.002 A 
ATOM     16  C   UNL     1      -0.486  -0.713   1.092  0.00  0.00    +0.024 A 
ATOM     17  C   UNL     1       0.002  -0.004   0.002  0.00  0.00    +0.042 A 
ATOM     18  C   UNL     1       0.504  -0.687  -1.098  0.00  0.00    +0.024 A 
ATOM     19  C   UNL     1       0.526  -2.068  -1.101  0.00  0.00    +0.002 A 
ENDBRANCH   1  17
BRANCH   4  20
ATOM     20  C   UNL     1      -0.574   5.094   1.144  0.00  0.00    -0.020 A 
ATOM     21  C   UNL     1      -1.371   4.553   2.136  0.00  0.00    +0.006 A 
ATOM     22  C   UNL     1      -1.812   5.347   3.178  0.00  0.00    +0.003 A 
ATOM     23  C   UNL     1      -1.463   6.684   3.224  0.00  0.00    +0.033 A 
ATOM     24  C   UNL     1      -0.670   7.226   2.230  0.00  0.00    +0.127 A 
ATOM     25  C   UNL     1      -0.226   6.431   1.190  0.00  0.00    +0.038 A 
BRANCH  24  26
ATOM     26  N   UNL     1      -0.297   8.657   2.279  0.00  0.00    +0.056 N 
ATOM     27  O   UNL     1       0.402   9.135   1.403  0.00  0.00    -0.126 OA
ATOM     28  O   UNL     1      -0.689   9.358   3.195  0.00  0.00    -0.126 OA
ENDBRANCH  24  26
ENDBRANCH   4  20
TORSDOF 3
