REMARK  Name = ZINC35883732
REMARK  8 active torsions:
REMARK  status: ('A' for Active; 'I' for Inactive)
REMARK    1  A    between atoms: C_1  and  C_2
REMARK    2  A    between atoms: C_13  and  C_23
REMARK    3  A    between atoms: C_16  and  C_19
REMARK    4  A    between atoms: C_19  and  C_21
REMARK    5  A    between atoms: C_19  and  O_22
REMARK    6  A    between atoms: N_25  and  C_26
REMARK    7  A    between atoms: C_31  and  O_32
REMARK    8  A    between atoms: O_32  and  C_33
REMARK                            x       y       z     vdW  Elec       q    Type
REMARK                         _______ _______ _______ _____ _____    ______ ____
ROOT
ATOM      1  C   UNL     1      -0.111   1.569  -0.050  0.00  0.00    +0.044 C 
ATOM      2  C   UNL     1      -0.072   0.062  -0.037  0.00  0.00    -0.049 A 
ATOM      3  C   UNL     1      -0.049  -0.642  -1.228  0.00  0.00    +0.008 A 
ATOM      4  C   UNL     1      -0.014  -2.018  -1.215  0.00  0.00    -0.026 A 
ATOM      5  C   UNL     1      -0.001  -2.716  -0.011  0.00  0.00    +0.054 A 
ATOM      6  C   UNL     1      -0.022  -2.000   1.184  0.00  0.00    +0.063 A 
ATOM      7  C   UNL     1      -0.053  -0.620   1.166  0.00  0.00    +0.025 A 
ATOM      8 CL   UNL     1      -0.006  -2.846   2.700  0.00  0.00    -0.082 Cl
ATOM      9  N   UNL     1       0.034  -4.092  -0.252  0.00  0.00    -0.285 N 
ATOM     10  C   UNL     1       0.047  -4.377  -1.567  0.00  0.00    +0.211 C 
ATOM     11  O   UNL     1       0.075  -5.482  -2.067  0.00  0.00    -0.277 OA
ATOM     12  C   UNL     1       0.018  -3.061  -2.299  0.00  0.00    +0.049 C 
ATOM     13  C   UNL     1      -1.221  -2.960  -3.197  0.00  0.00    +0.076 C 
ATOM     14  C   UNL     1      -0.662  -2.711  -4.619  0.00  0.00    -0.001 C 
ATOM     15  C   UNL     1       0.750  -2.134  -4.340  0.00  0.00    -0.040 C 
ATOM     16  N   UNL     1       1.207  -2.904  -3.152  0.00  0.00    +0.395 N 
ATOM     17  H   UNL     1       0.048  -4.763   0.448  0.00  0.00    +0.155 HD
ATOM     18  H   UNL     1       1.924  -2.392  -2.660  0.00  0.00    -0.083 HD
ATOM     19  H   UNL     1       1.554  -3.808  -3.436  0.00  0.00    -0.083 HD
ENDROOT
BRANCH  13  20
ATOM     20  C   UNL     1      -2.004  -4.247  -3.157  0.00  0.00    +0.220 C 
ATOM     21  O   UNL     1      -1.823  -5.093  -4.007  0.00  0.00    -0.275 OA
ATOM     22  N   UNL     1      -2.905  -4.458  -2.177  0.00  0.00    -0.282 N 
ATOM     23  H   UNL     1      -3.092  -3.758  -1.532  0.00  0.00    +0.155 HD
BRANCH  22  24
ATOM     24  C   UNL     1      -3.571  -5.688  -2.090  0.00  0.00    +0.077 A 
ATOM     25  C   UNL     1      -3.736  -6.470  -3.224  0.00  0.00    +0.047 A 
ATOM     26  C   UNL     1      -4.394  -7.684  -3.135  0.00  0.00    +0.043 A 
ATOM     27  C   UNL     1      -4.887  -8.119  -1.918  0.00  0.00    +0.024 A 
ATOM     28  C   UNL     1      -4.726  -7.344  -0.785  0.00  0.00    +0.049 A 
ATOM     29  C   UNL     1      -4.063  -6.130  -0.865  0.00  0.00    +0.141 A 
ATOM     30 CL   UNL     1      -4.600  -8.662  -4.554  0.00  0.00    -0.083 Cl
BRANCH  29  31
ATOM     31  O   UNL     1      -3.898  -5.369   0.251  0.00  0.00    -0.493 OA
ATOM     32  C   UNL     1      -4.429  -5.886   1.473  0.00  0.00    +0.277 C 
ENDBRANCH  29  31
ENDBRANCH  22  24
ENDBRANCH  13  20
BRANCH  15  33
ATOM     33  C   UNL     1       1.676  -2.376  -5.533  0.00  0.00    +0.098 C 
ATOM     34  C   UNL     1       3.098  -1.943  -5.170  0.00  0.00    +0.036 C 
BRANCH  33  35
ATOM     35  O   UNL     1       1.672  -3.765  -5.866  0.00  0.00    -0.394 OA
ATOM     36  H   UNL     1       1.972  -4.342  -5.151  0.00  0.00    +0.210 HD
ENDBRANCH  33  35
ENDBRANCH  15  33
TORSDOF 5
