REMARK  Name = ZINC67392845
REMARK  9 active torsions:
REMARK  status: ('A' for Active; 'I' for Inactive)
REMARK    1  A    between atoms: C_1  and  C_2
REMARK    2  A    between atoms: N_7  and  C_9
REMARK    3  A    between atoms: C_9  and  C_10
REMARK    4  A    between atoms: C_9  and  C_11
REMARK    5  A    between atoms: C_9  and  C_12
REMARK    6  A    between atoms: C_12  and  N_13
REMARK    7  A    between atoms: C_14  and  C_16
REMARK    8  A    between atoms: N_18  and  C_19
REMARK    9  A    between atoms: C_23  and  C_25
REMARK                            x       y       z     vdW  Elec       q    Type
REMARK                         _______ _______ _______ _____ _____    ______ ____
ROOT
ATOM      1  N   UNL     1      -0.068  -4.401   2.317  0.00  0.00    -0.309 N 
ATOM      2  C   UNL     1      -0.408  -5.703   2.397  0.00  0.00    +0.299 C 
ATOM      3  O   UNL     1       0.434  -6.534   2.666  0.00  0.00    -0.265 OA
ATOM      4  H   UNL     1      -0.741  -3.736   2.102  0.00  0.00    +0.149 HD
ENDROOT
BRANCH   2   5
ATOM      5  C   UNL     1      -1.821  -6.122   2.156  0.00  0.00    +0.303 C 
ATOM      6  O   UNL     1      -2.664  -5.290   1.887  0.00  0.00    -0.265 OA
ATOM      7  N   UNL     1      -2.162  -7.423   2.237  0.00  0.00    -0.278 N 
ATOM      8  H   UNL     1      -1.477  -8.095   2.384  0.00  0.00    +0.155 HD
BRANCH   7   9
ATOM      9  C   UNL     1      -3.501  -7.805   2.109  0.00  0.00    +0.035 A 
ATOM     10  C   UNL     1      -4.333  -7.133   1.220  0.00  0.00    +0.026 A 
ATOM     11  C   UNL     1      -5.657  -7.505   1.089  0.00  0.00    +0.041 A 
ATOM     12  C   UNL     1      -6.164  -8.549   1.842  0.00  0.00    +0.136 A 
ATOM     13  C   UNL     1      -5.334  -9.231   2.737  0.00  0.00    +0.073 A 
ATOM     14  C   UNL     1      -3.995  -8.857   2.863  0.00  0.00    +0.039 A 
ATOM     15  F   UNL     1      -7.459  -8.910   1.712  0.00  0.00    -0.205 F 
BRANCH  13  16
ATOM     16  C   UNL     1      -5.871 -10.347   3.542  0.00  0.00    +0.244 C 
ATOM     17  O   UNL     1      -7.036 -10.674   3.427  0.00  0.00    -0.270 OA
ATOM     18  N   UNL     1      -5.069 -11.003   4.405  0.00  0.00    -0.325 N 
ATOM     19  H   UNL     1      -4.139 -10.742   4.497  0.00  0.00    +0.145 HD
ATOM     20  H   UNL     1      -5.421 -11.736   4.934  0.00  0.00    +0.145 HD
ENDBRANCH  13  16
ENDBRANCH   7   9
ENDBRANCH   2   5
BRANCH   1  21
ATOM     21  C   UNL     1       1.318  -3.990   2.553  0.00  0.00    +0.092 C 
BRANCH  21  22
ATOM     22  C   UNL     1       1.412  -2.464   2.506  0.00  0.00    -0.055 C 
ATOM     23  C   UNL     1       2.872  -2.038   2.676  0.00  0.00    -0.008 C 
ATOM     24  C   UNL     1       0.571  -1.865   3.635  0.00  0.00    -0.008 C 
BRANCH  22  30
ATOM     25  C   UNL     1       0.544   1.519  -0.206  0.00  0.00    +0.005 C 
ATOM     26  C   UNL     1       0.424  -0.005  -0.152  0.00  0.00    -0.031 C 
ATOM     27  C   UNL     1       1.186  -0.620  -1.329  0.00  0.00    -0.001 C 
ATOM     28  C   UNL     1       1.125  -2.147  -1.223  0.00  0.00    -0.018 C 
ATOM     29  C   UNL     1       1.696  -2.581   0.129  0.00  0.00    -0.078 C 
ATOM     30  N   UNL     1       0.909  -1.982   1.213  0.00  0.00    +0.384 N 
ATOM     31  C   UNL     1       1.020  -0.519   1.160  0.00  0.00    -0.075 C 
ATOM     32  H   UNL     1      -0.059  -2.248   1.111  0.00  0.00    -0.081 HD
ENDBRANCH  22  30
ENDBRANCH  21  22
ENDBRANCH   1  21
TORSDOF 6
