REMARK  Name = ZINC35476243
REMARK  3 active torsions:
REMARK  status: ('A' for Active; 'I' for Inactive)
REMARK    1  A    between atoms: C_1  and  C_2
REMARK    2  A    between atoms: C_5  and  C_8
REMARK    3  A    between atoms: C_16  and  C_28
REMARK                            x       y       z     vdW  Elec       q    Type
REMARK                         _______ _______ _______ _____ _____    ______ ____
ROOT
ATOM      1  C   UNL     1       0.059  -4.275  -0.021  0.00  0.00    +0.063 C 
ATOM      2  C   UNL     1      -1.172  -4.812   0.716  0.00  0.00    +0.109 C 
ATOM      3  C   UNL     1      -1.017  -4.675   2.204  0.00  0.00    +0.219 C 
ATOM      4  O   UNL     1      -1.983  -4.364   2.869  0.00  0.00    -0.275 OA
ATOM      5  N   UNL     1       0.163  -4.886   2.824  0.00  0.00    -0.270 N 
ATOM      6  C   UNL     1       1.300  -5.046   2.034  0.00  0.00    +0.134 A 
ATOM      7  C   UNL     1       1.292  -4.772   0.691  0.00  0.00    +0.023 A 
ATOM      8  C   UNL     1       2.560  -5.032   0.191  0.00  0.00    +0.066 A 
ATOM      9  N   UNL     1       3.319  -5.436   1.183  0.00  0.00    -0.168 NA
ATOM     10  N   UNL     1       2.548  -5.442   2.360  0.00  0.00    -0.198 N 
ATOM     11  C   UNL     1       2.995  -5.795   3.637  0.00  0.00    +0.176 A 
ATOM     12  C   UNL     1       4.335  -6.184   3.821  0.00  0.00    +0.054 A 
ATOM     13  C   UNL     1       4.781  -6.530   5.059  0.00  0.00    +0.054 A 
ATOM     14  C   UNL     1       3.886  -6.492   6.144  0.00  0.00    +0.178 A 
ATOM     15  N   UNL     1       4.000  -6.760   7.435  0.00  0.00    -0.128 NA
ATOM     16  N   UNL     1       2.865  -6.564   8.011  0.00  0.00    -0.136 NA
ATOM     17  C   UNL     1       1.976  -6.167   7.135  0.00  0.00    +0.249 A 
ATOM     18  N   UNL     1       2.585  -6.107   5.931  0.00  0.00    -0.198 N 
ATOM     19  N   UNL     1       2.161  -5.754   4.649  0.00  0.00    -0.144 NA
ATOM     20  C   UNL     1       2.991  -4.880  -1.245  0.00  0.00    +0.068 C 
ATOM     21  H   UNL     1       0.219  -4.926   3.792  0.00  0.00    +0.156 HD
ENDROOT
BRANCH   1  26
ATOM     22  C   UNL     1      -0.018   1.503   0.010  0.00  0.00    +0.044 C 
ATOM     23  C   UNL     1       0.002  -0.004   0.002  0.00  0.00    -0.050 A 
ATOM     24  C   UNL     1       0.006  -0.689  -1.199  0.00  0.00    +0.003 A 
ATOM     25  C   UNL     1       0.025  -2.071  -1.206  0.00  0.00    +0.004 A 
ATOM     26  C   UNL     1       0.040  -2.768  -0.013  0.00  0.00    -0.039 A 
ATOM     27  C   UNL     1       0.037  -2.084   1.188  0.00  0.00    +0.004 A 
ATOM     28  C   UNL     1       0.023  -0.702   1.195  0.00  0.00    +0.003 A 
ENDBRANCH   1  26
TORSDOF 1
