REMARK  Name = ZINC37683198
REMARK  9 active torsions:
REMARK  status: ('A' for Active; 'I' for Inactive)
REMARK    1  A    between atoms: C_1  and  C_2
REMARK    2  A    between atoms: C_2  and  C_3
REMARK    3  A    between atoms: C_3  and  C_5
REMARK    4  A    between atoms: C_3  and  N_23
REMARK    5  A    between atoms: C_9  and  S_11
REMARK    6  A    between atoms: S_11  and  N_14
REMARK    7  A    between atoms: N_14  and  C_15
REMARK    8  A    between atoms: C_15  and  C_17
REMARK    9  A    between atoms: C_15  and  C_18
REMARK                            x       y       z     vdW  Elec       q    Type
REMARK                         _______ _______ _______ _____ _____    ______ ____
ROOT
ATOM      1  C   UNL     1       0.632  -2.000  -1.327  0.00  0.00    -0.060 A 
ATOM      2  C   UNL     1       1.488  -2.779  -0.571  0.00  0.00    +0.002 A 
ATOM      3  C   UNL     1       1.409  -4.157  -0.636  0.00  0.00    +0.002 A 
ATOM      4  C   UNL     1       0.472  -4.757  -1.457  0.00  0.00    +0.028 A 
ATOM      5  C   UNL     1      -0.384  -3.979  -2.213  0.00  0.00    +0.105 A 
ATOM      6  C   UNL     1      -0.308  -2.601  -2.145  0.00  0.00    +0.030 A 
ENDROOT
BRANCH   5   7
ATOM      7  S   UNL     1      -1.577  -4.745  -3.260  0.00  0.00    +0.059 S 
ATOM      8  O   UNL     1      -1.892  -3.801  -4.274  0.00  0.00    -0.153 OA
ATOM      9  O   UNL     1      -1.083  -6.044  -3.556  0.00  0.00    -0.153 OA
BRANCH   7  10
ATOM     10  N   UNL     1      -2.953  -4.954  -2.363  0.00  0.00    -0.180 NA
ATOM     11  H   UNL     1      -3.269  -5.849  -2.161  0.00  0.00    +0.149 HD
BRANCH  10  12
ATOM     12  C   UNL     1      -3.693  -3.789  -1.875  0.00  0.00    +0.139 C 
ATOM     13  C   UNL     1      -4.820  -3.453  -2.854  0.00  0.00    +0.034 C 
BRANCH  12  14
ATOM     14  C   UNL     1      -4.280  -4.097  -0.521  0.00  0.00    +0.123 A 
ATOM     15  C   UNL     1      -4.341  -3.249   0.521  0.00  0.00    +0.046 A 
ATOM     16  C   UNL     1      -4.964  -3.947   1.581  0.00  0.00    +0.041 A 
ATOM     17  C   UNL     1      -5.246  -5.180   1.123  0.00  0.00    +0.195 A 
ATOM     18  O   UNL     1      -4.834  -5.263  -0.152  0.00  0.00    -0.466 OA
ENDBRANCH  12  14
ENDBRANCH  10  12
ENDBRANCH   7  10
ENDBRANCH   5   7
BRANCH   1  19
ATOM     19  C   UNL     1       0.718  -0.497  -1.257  0.00  0.00    -0.044 C 
BRANCH  19  20
ATOM     20  N   UNL     1       2.129  -0.090  -1.209  0.00  0.00    +0.383 N 
ATOM     21  H   UNL     1       2.601  -0.415  -2.039  0.00  0.00    -0.089 HD
ATOM     22  H   UNL     1       2.187   0.916  -1.162  0.00  0.00    -0.089 HD
ATOM     23  H   UNL     1       2.567  -0.491  -0.394  0.00  0.00    -0.089 HD
ENDBRANCH  19  20
BRANCH  19  25
ATOM     24  C   UNL     1      -0.019   1.526   0.010  0.00  0.00    +0.002 C 
ATOM     25  C   UNL     1       0.002  -0.004   0.002  0.00  0.00    -0.015 C 
ENDBRANCH  19  25
ENDBRANCH   1  19
TORSDOF 7
