REMARK  Name = ZINC15968020
REMARK  4 active torsions:
REMARK  status: ('A' for Active; 'I' for Inactive)
REMARK    1  A    between atoms: C_16  and  C_19
REMARK    2  A    between atoms: C_19  and  C_20
REMARK    3  A    between atoms: N_25  and  C_28
REMARK    4  A    between atoms: C_28  and  C_29
REMARK                            x       y       z     vdW  Elec       q    Type
REMARK                         _______ _______ _______ _____ _____    ______ ____
ROOT
ATOM      1  C   UNL     1      -0.017   1.378   0.010  0.00  0.00    +0.002 A 
ATOM      2  C   UNL     1       1.174   2.083   0.002  0.00  0.00    +0.008 A 
ATOM      3  C   UNL     1       2.374   1.409  -0.014  0.00  0.00    +0.005 A 
ATOM      4  C   UNL     1       2.407   0.018  -0.021  0.00  0.00    +0.057 A 
ATOM      5  C   UNL     1       1.203  -0.685  -0.013  0.00  0.00    +0.062 A 
ATOM      6  C   UNL     1       0.002  -0.004   0.002  0.00  0.00    +0.022 A 
ATOM      7 CL   UNL     1       1.214  -2.421  -0.022  0.00  0.00    -0.082 Cl
ATOM      8  N   UNL     1       3.728  -0.435  -0.036  0.00  0.00    -0.282 N 
ATOM      9  C   UNL     1       4.613   0.581  -0.040  0.00  0.00    +0.243 C 
ATOM     10  O   UNL     1       5.822   0.489  -0.053  0.00  0.00    -0.273 OA
ATOM     11  C   UNL     1       3.810   1.853  -0.027  0.00  0.00    +0.136 C 
ATOM     12  C   UNL     1       4.143   2.716   1.196  0.00  0.00    +0.122 C 
ATOM     13  C   UNL     1       4.044   4.178   0.680  0.00  0.00    +0.107 C 
ATOM     14  C   UNL     1       3.635   4.050  -0.802  0.00  0.00    +0.076 C 
ATOM     15  N   UNL     1       4.105   2.690  -1.205  0.00  0.00    -0.295 NA
ATOM     16  C   UNL     1       5.466   4.681   0.780  0.00  0.00    +0.227 C 
ATOM     17  O   UNL     1       5.840   5.791   0.466  0.00  0.00    -0.275 OA
ATOM     18  N   UNL     1       6.247   3.711   1.268  0.00  0.00    -0.237 N 
ATOM     19  C   UNL     1       5.605   2.554   1.549  0.00  0.00    +0.229 C 
ATOM     20  O   UNL     1       6.108   1.550   2.004  0.00  0.00    -0.275 OA
ATOM     21  H   UNL     1       3.980  -1.372  -0.043  0.00  0.00    +0.155 HD
ATOM     22  H   UNL     1       5.092   2.685  -1.414  0.00  0.00    +0.124 HD
ENDROOT
BRANCH  14  23
ATOM     23  C   UNL     1       4.343   5.113  -1.644  0.00  0.00    +0.115 C 
BRANCH  23  24
ATOM     24  C   UNL     1       3.839   5.049  -3.063  0.00  0.00    +0.212 C 
ATOM     25  O   UNL     1       2.996   4.233  -3.370  0.00  0.00    -0.276 OA
ATOM     26  N   UNL     1       4.324   5.899  -3.989  0.00  0.00    -0.329 N 
ATOM     27  H   UNL     1       4.998   6.551  -3.743  0.00  0.00    +0.145 HD
ATOM     28  H   UNL     1       4.000   5.857  -4.902  0.00  0.00    +0.145 HD
ENDBRANCH  23  24
ENDBRANCH  14  23
BRANCH  18  29
ATOM     29  C   UNL     1       7.685   3.887   1.488  0.00  0.00    +0.151 C 
BRANCH  29  30
ATOM     30  C   UNL     1       7.920   4.403   2.884  0.00  0.00    -0.026 A 
ATOM     31  C   UNL     1       7.945   5.765   3.121  0.00  0.00    +0.009 A 
ATOM     32  C   UNL     1       8.160   6.244   4.400  0.00  0.00    +0.050 A 
ATOM     33  C   UNL     1       8.350   5.358   5.449  0.00  0.00    +0.166 A 
ATOM     34  C   UNL     1       8.325   3.986   5.210  0.00  0.00    +0.167 A 
ATOM     35  C   UNL     1       8.103   3.514   3.926  0.00  0.00    +0.054 A 
ATOM     36  O   UNL     1       8.535   3.334   6.391  0.00  0.00    -0.453 OA
ATOM     37  C   UNL     1       9.096   4.319   7.279  0.00  0.00    +0.466 C 
ATOM     38  O   UNL     1       8.577   5.566   6.778  0.00  0.00    -0.453 OA
ENDBRANCH  29  30
ENDBRANCH  18  29
TORSDOF 4
