REMARK  Name = ZINC56917054
REMARK  10 active torsions:
REMARK  status: ('A' for Active; 'I' for Inactive)
REMARK    1  A    between atoms: C_1  and  C_2
REMARK    2  A    between atoms: C_2  and  C_3
REMARK    3  A    between atoms: C_3  and  C_5
REMARK    4  A    between atoms: C_3  and  N_6
REMARK    5  A    between atoms: C_7  and  C_9
REMARK    6  A    between atoms: C_9  and  C_10
REMARK    7  A    between atoms: C_10  and  N_11
REMARK    8  A    between atoms: N_14  and  N_15
REMARK    9  A    between atoms: C_16  and  C_18
REMARK   10  A    between atoms: C_25  and  C_28
REMARK                            x       y       z     vdW  Elec       q    Type
REMARK                         _______ _______ _______ _____ _____    ______ ____
ROOT
ATOM      1  N   UNL     1       6.232   0.963  -3.680  0.00  0.00    -0.298 N 
ATOM      2  C   UNL     1       6.931   1.105  -4.823  0.00  0.00    +0.316 C 
ATOM      3  O   UNL     1       6.394   0.897  -5.894  0.00  0.00    -0.251 OA
ATOM      4  N   UNL     1       8.225   1.479  -4.780  0.00  0.00    -0.218 N 
ATOM      5  H   UNL     1       6.660   1.129  -2.826  0.00  0.00    +0.150 HD
ATOM      6  H   UNL     1       8.728   1.582  -5.603  0.00  0.00    +0.174 HD
ENDROOT
BRANCH   4   7
ATOM      7  N   UNL     1       8.844   1.720  -3.546  0.00  0.00    -0.229 N 
ATOM      8  C   UNL     1      10.138   2.094  -3.502  0.00  0.00    +0.267 C 
ATOM      9  O   UNL     1      10.769   2.222  -4.535  0.00  0.00    -0.268 OA
ATOM     10  H   UNL     1       8.340   1.617  -2.723  0.00  0.00    +0.173 HD
BRANCH   8  11
ATOM     11  C   UNL     1      10.785   2.345  -2.211  0.00  0.00    +0.076 A 
ATOM     12  C   UNL     1      12.085   2.738  -1.949  0.00  0.00    +0.024 A 
ATOM     13  C   UNL     1      12.432   2.903  -0.617  0.00  0.00    -0.036 A 
ATOM     14  C   UNL     1      11.456   2.662   0.305  0.00  0.00    -0.006 A 
ATOM     15  S   UNL     1      10.100   2.232  -0.569  0.00  0.00    -0.088 S 
ATOM     16  C   UNL     1      11.584   2.769   1.796  0.00  0.00    +0.043 C 
ATOM     17  C   UNL     1      13.075   2.826   2.153  0.00  0.00    +0.009 C 
ATOM     18  C   UNL     1      13.758   3.860   1.254  0.00  0.00    -0.009 C 
ATOM     19  C   UNL     1      13.830   3.334  -0.180  0.00  0.00    +0.039 C 
ATOM     20  C   UNL     1      15.175   4.124   1.768  0.00  0.00    +0.008 C 
ENDBRANCH   8  11
ENDBRANCH   4   7
BRANCH   1  21
ATOM     21  C   UNL     1       4.825   0.556  -3.728  0.00  0.00    +0.115 C 
BRANCH  21  22
ATOM     22  C   UNL     1       4.271   0.470  -2.304  0.00  0.00    +0.114 C 
BRANCH  22  24
ATOM     23  N   UNL     1       2.125  -0.091  -1.209  0.00  0.00    -0.313 N 
ATOM     24  C   UNL     1       2.824   0.051  -2.353  0.00  0.00    +0.215 C 
ATOM     25  O   UNL     1       2.289  -0.157  -3.421  0.00  0.00    -0.276 OA
ATOM     26  H   UNL     1       2.553   0.075  -0.355  0.00  0.00    +0.149 HD
BRANCH  23  27
ATOM     27  C   UNL     1       0.718  -0.497  -1.257  0.00  0.00    +0.070 C 
ATOM     28  C   UNL     1       0.630  -2.023  -1.329  0.00  0.00    +0.028 C 
BRANCH  27  30
ATOM     29  C   UNL     1      -0.019   1.526   0.010  0.00  0.00    +0.005 C 
ATOM     30  C   UNL     1       0.002  -0.004   0.002  0.00  0.00    +0.018 C 
ENDBRANCH  27  30
ENDBRANCH  23  27
ENDBRANCH  22  24
ENDBRANCH  21  22
ENDBRANCH   1  21
TORSDOF 7
