REMARK  Name = ZINC35183061
REMARK  3 active torsions:
REMARK  status: ('A' for Active; 'I' for Inactive)
REMARK    1  A    between atoms: C_5  and  C_7
REMARK    2  A    between atoms: N_8  and  N_9
REMARK    3  A    between atoms: C_10  and  C_12
REMARK                            x       y       z     vdW  Elec       q    Type
REMARK                         _______ _______ _______ _____ _____    ______ ____
ROOT
ATOM      1  N   UNL     1       2.362  -4.203  -0.081  0.00  0.00    -0.220 N 
ATOM      2  C   UNL     1       3.578  -4.853  -0.064  0.00  0.00    +0.160 C 
ATOM      3  N   UNL     1       4.684  -4.164  -0.036  0.00  0.00    -0.283 NA
ATOM      4  H   UNL     1       1.539  -4.715  -0.102  0.00  0.00    +0.176 HD
ATOM      5  H   UNL     1       5.536  -4.619   0.053  0.00  0.00    +0.188 HD
ENDROOT
BRANCH   2   6
ATOM      6  C   UNL     1       3.627  -6.332  -0.076  0.00  0.00    +0.146 A 
ATOM      7  C   UNL     1       3.759  -7.020  -1.303  0.00  0.00    +0.167 A 
ATOM      8  N   UNL     1       3.804  -8.339  -1.327  0.00  0.00    -0.115 N 
ATOM      9  O   UNL     1       3.937  -9.023  -2.560  0.00  0.00    -0.162 OA
ATOM     10  C   UNL     1       3.723  -9.028  -0.181  0.00  0.00    +0.112 A 
ATOM     11  C   UNL     1       3.769 -10.433  -0.180  0.00  0.00    +0.031 A 
ATOM     12  C   UNL     1       3.686 -11.110   0.998  0.00  0.00    +0.002 A 
ATOM     13  C   UNL     1       3.555 -10.431   2.208  0.00  0.00    +0.002 A 
ATOM     14  C   UNL     1       3.507  -9.072   2.247  0.00  0.00    +0.030 A 
ATOM     15  C   UNL     1       3.591  -8.337   1.050  0.00  0.00    +0.092 A 
ATOM     16  N   UNL     1       3.552  -7.002   1.061  0.00  0.00    -0.239 NA
ATOM     17  N   UNL     1       3.841  -6.305  -2.489  0.00  0.00    -0.340 N 
ATOM     18  H   UNL     1       3.896  -5.337  -2.469  0.00  0.00    +0.144 HD
ATOM     19  H   UNL     1       3.845  -6.773  -3.338  0.00  0.00    +0.144 HD
ENDBRANCH   2   6
BRANCH   1  21
ATOM     20  C   UNL     1       1.171  -2.191  -0.086  0.00  0.00    +0.139 C 
ATOM     21  N   UNL     1       2.316  -2.803  -0.069  0.00  0.00    -0.189 NA
BRANCH  20  26
ATOM     22  C   UNL     1      -0.146   1.323  -0.080  0.00  0.00    +0.001 A 
ATOM     23  C   UNL     1       1.030   2.051  -0.051  0.00  0.00    +0.001 A 
ATOM     24  C   UNL     1       2.253   1.404  -0.033  0.00  0.00    +0.020 A 
ATOM     25  C   UNL     1       2.307   0.024  -0.044  0.00  0.00    +0.050 A 
ATOM     26  C   UNL     1       1.122  -0.718  -0.073  0.00  0.00    +0.013 A 
ATOM     27  C   UNL     1      -0.108  -0.056  -0.091  0.00  0.00    +0.011 A 
ATOM     28 CL   UNL     1       3.841  -0.787  -0.022  0.00  0.00    -0.083 Cl
ENDBRANCH  20  26
ENDBRANCH   1  21
TORSDOF 3
