REMARK  Name = ZINC45632053
REMARK  13 active torsions:
REMARK  status: ('A' for Active; 'I' for Inactive)
REMARK    1  A    between atoms: C_1  and  C_2
REMARK    2  A    between atoms: C_2  and  C_3
REMARK    3  A    between atoms: C_3  and  C_4
REMARK    4  A    between atoms: C_4  and  N_5
REMARK    5  A    between atoms: C_6  and  N_35
REMARK    6  A    between atoms: C_7  and  N_14
REMARK    7  A    between atoms: N_14  and  C_15
REMARK    8  A    between atoms: C_15  and  C_16
REMARK    9  A    between atoms: C_16  and  C_17
REMARK   10  A    between atoms: C_17  and  C_18
REMARK   11  A    between atoms: C_17  and  C_19
REMARK   12  A    between atoms: C_20  and  C_22
REMARK   13  A    between atoms: C_24  and  C_34
REMARK                            x       y       z     vdW  Elec       q    Type
REMARK                         _______ _______ _______ _____ _____    ______ ____
ROOT
ATOM      1  N   UNL     1      -5.344  -3.526   2.453  0.00  0.00    -0.261 N 
ATOM      2  C   UNL     1      -4.778  -2.971   3.546  0.00  0.00    +0.264 C 
ATOM      3  O   UNL     1      -3.684  -2.453   3.465  0.00  0.00    -0.271 OA
ENDROOT
BRANCH   2   4
ATOM      4  C   UNL     1      -5.504  -2.997   4.866  0.00  0.00    +0.299 C 
ATOM      5  C   UNL     1      -6.375  -1.740   5.002  0.00  0.00    +0.220 C 
ATOM      6  O   UNL     1      -7.038  -1.790   6.269  0.00  0.00    -0.481 OA
ATOM      7  C   UNL     1      -6.274  -2.118   7.347  0.00  0.00    +0.163 A 
ATOM      8  C   UNL     1      -6.741  -1.838   8.623  0.00  0.00    +0.049 A 
ATOM      9  C   UNL     1      -5.978  -2.168   9.727  0.00  0.00    +0.004 A 
ATOM     10  C   UNL     1      -4.748  -2.778   9.563  0.00  0.00    +0.004 A 
ATOM     11  C   UNL     1      -4.277  -3.058   8.294  0.00  0.00    +0.049 A 
ATOM     12  C   UNL     1      -5.037  -2.728   7.182  0.00  0.00    +0.163 A 
ATOM     13  O   UNL     1      -4.556  -3.004   5.939  0.00  0.00    -0.472 OA
ATOM     14  C   UNL     1      -7.412  -1.707   3.877  0.00  0.00    +0.056 C 
ENDBRANCH   2   4
BRANCH   1  17
ATOM     15  N   UNL     1      -2.940  -3.917  -0.298  0.00  0.00    -0.280 N 
ATOM     16  C   UNL     1      -3.527  -4.055   0.938  0.00  0.00    +0.127 A 
ATOM     17  C   UNL     1      -4.717  -3.404   1.195  0.00  0.00    +0.140 A 
ATOM     18  C   UNL     1      -5.294  -2.617   0.181  0.00  0.00    +0.277 A 
ATOM     19  O   UNL     1      -6.344  -2.031   0.381  0.00  0.00    -0.266 OA
ATOM     20  N   UNL     1      -4.678  -2.516  -1.013  0.00  0.00    -0.273 N 
ATOM     21  H   UNL     1      -5.074  -1.974  -1.713  0.00  0.00    +0.173 HD
ATOM     22  C   UNL     1      -3.516  -3.153  -1.244  0.00  0.00    +0.331 A 
ATOM     23  O   UNL     1      -2.978  -3.040  -2.329  0.00  0.00    -0.246 OA
BRANCH  16  24
ATOM     24  N   UNL     1      -2.937  -4.831   1.906  0.00  0.00    -0.343 N 
ATOM     25  H   UNL     1      -2.131  -5.331   1.702  0.00  0.00    +0.144 HD
ATOM     26  H   UNL     1      -3.326  -4.880   2.793  0.00  0.00    +0.144 HD
ENDBRANCH  16  24
BRANCH  15  27
ATOM     27  C   UNL     1      -1.678  -4.603  -0.585  0.00  0.00    +0.128 C 
BRANCH  27  28
ATOM     28  C   UNL     1      -0.507  -3.695  -0.203  0.00  0.00    +0.021 C 
BRANCH  28  30
ATOM     29  C   UNL     1       1.983  -3.503  -0.121  0.00  0.00    +0.004 C 
ATOM     30  C   UNL     1       0.812  -4.410  -0.502  0.00  0.00    -0.002 C 
ENDBRANCH  28  30
ENDBRANCH  27  28
ENDBRANCH  15  27
ENDBRANCH   1  17
BRANCH   1  31
ATOM     31  C   UNL     1      -6.610  -4.253   2.574  0.00  0.00    +0.114 C 
BRANCH  31  32
ATOM     32  C   UNL     1      -6.324  -5.729   2.857  0.00  0.00    +0.022 C 
BRANCH  32  33
ATOM     33  C   UNL     1      -7.646  -6.489   2.983  0.00  0.00    -0.016 C 
ATOM     34  C   UNL     1      -8.376  -6.469   1.638  0.00  0.00    +0.007 C 
ATOM     35  C   UNL     1      -7.366  -7.937   3.389  0.00  0.00    +0.007 C 
ENDBRANCH  32  33
ENDBRANCH  31  32
ENDBRANCH   1  31
TORSDOF 9
