REMARK  Name = ZINC44149045
REMARK  12 active torsions:
REMARK  status: ('A' for Active; 'I' for Inactive)
REMARK    1  A    between atoms: C_1  and  C_2
REMARK    2  A    between atoms: C_2  and  C_3
REMARK    3  A    between atoms: C_2  and  N_4
REMARK    4  A    between atoms: C_5  and  C_7
REMARK    5  A    between atoms: C_7  and  C_8
REMARK    6  A    between atoms: C_11  and  N_14
REMARK    7  A    between atoms: N_17  and  C_18
REMARK    8  A    between atoms: C_18  and  C_19
REMARK    9  A    between atoms: C_19  and  C_21
REMARK   10  A    between atoms: C_19  and  N_26
REMARK   11  A    between atoms: N_26  and  C_27
REMARK   12  A    between atoms: N_26  and  C_28
REMARK                            x       y       z     vdW  Elec       q    Type
REMARK                         _______ _______ _______ _____ _____    ______ ____
ROOT
ATOM      1  N   UNL     1      -6.068  -1.229  -6.556  0.00  0.00    -0.269 N 
ATOM      2  C   UNL     1      -5.682  -2.301  -7.276  0.00  0.00    +0.304 C 
ATOM      3  O   UNL     1      -5.102  -3.222  -6.733  0.00  0.00    -0.253 OA
ATOM      4  N   UNL     1      -5.940  -2.353  -8.598  0.00  0.00    -0.300 N 
ATOM      5  H   UNL     1      -6.594  -0.529  -6.973  0.00  0.00    +0.156 HD
ATOM      6  H   UNL     1      -6.402  -1.619  -9.031  0.00  0.00    +0.150 HD
ENDROOT
BRANCH   1  10
ATOM      7  C   UNL     1      -4.998  -0.922  -2.541  0.00  0.00    -0.039 A 
ATOM      8  C   UNL     1      -4.132  -1.512  -3.442  0.00  0.00    +0.006 A 
ATOM      9  C   UNL     1      -4.483  -1.615  -4.774  0.00  0.00    +0.023 A 
ATOM     10  C   UNL     1      -5.709  -1.126  -5.207  0.00  0.00    +0.035 A 
ATOM     11  C   UNL     1      -6.577  -0.534  -4.299  0.00  0.00    +0.023 A 
ATOM     12  C   UNL     1      -6.222  -0.439  -2.968  0.00  0.00    +0.006 A 
BRANCH   7  13
ATOM     13  C   UNL     1      -4.612  -0.811  -1.089  0.00  0.00    +0.130 C 
BRANCH  13  15
ATOM     14  N   UNL     1      -4.834  -2.163   0.971  0.00  0.00    -0.313 N 
ATOM     15  C   UNL     1      -5.072  -2.042  -0.350  0.00  0.00    +0.218 C 
ATOM     16  O   UNL     1      -5.657  -2.922  -0.945  0.00  0.00    -0.275 OA
ATOM     17  H   UNL     1      -4.366  -1.459   1.446  0.00  0.00    +0.149 HD
BRANCH  14  19
ATOM     18  C   UNL     1      -4.231  -4.463   1.546  0.00  0.00    +0.027 C 
ATOM     19  C   UNL     1      -5.282  -3.360   1.688  0.00  0.00    +0.067 C 
ATOM     20  C   UNL     1      -5.472  -3.025   3.169  0.00  0.00    +0.027 C 
ENDBRANCH  14  19
ENDBRANCH  13  15
ENDBRANCH   7  13
ENDBRANCH   1  10
BRANCH   4  21
ATOM     21  C   UNL     1      -5.521  -3.519  -9.380  0.00  0.00    +0.095 C 
BRANCH  21  22
ATOM     22  C   UNL     1      -5.813  -3.270 -10.862  0.00  0.00    -0.020 C 
BRANCH  22  23
ATOM     23  C   UNL     1      -4.988  -2.106 -11.348  0.00  0.00    -0.052 A 
ATOM     24  C   UNL     1      -5.550  -0.848 -11.463  0.00  0.00    +0.009 A 
ATOM     25  C   UNL     1      -4.780   0.177 -11.904  0.00  0.00    +0.045 A 
ATOM     26  S   UNL     1      -3.209  -0.628 -12.170  0.00  0.00    -0.105 S 
ATOM     27  C   UNL     1      -3.683  -2.275 -11.672  0.00  0.00    +0.047 A 
ENDBRANCH  22  23
BRANCH  22  28
ATOM     28  N   UNL     1      -5.470  -4.470 -11.636  0.00  0.00    +0.382 N 
ATOM     29  C   UNL     1      -6.320  -5.589 -11.208  0.00  0.00    -0.096 C 
ATOM     30  C   UNL     1      -5.688  -4.209 -13.066  0.00  0.00    -0.096 C 
ATOM     31  H   UNL     1      -4.501  -4.705 -11.481  0.00  0.00    -0.082 HD
ENDBRANCH  22  28
ENDBRANCH  21  22
ENDBRANCH   4  21
TORSDOF 8
