REMARK  Name = ZINC04133959
REMARK  7 active torsions:
REMARK  status: ('A' for Active; 'I' for Inactive)
REMARK    1  A    between atoms: C_1  and  C_2
REMARK    2  A    between atoms: C_4  and  C_26
REMARK    3  A    between atoms: C_5  and  N_9
REMARK    4  A    between atoms: C_6  and  C_8
REMARK    5  A    between atoms: C_10  and  C_12
REMARK    6  A    between atoms: C_12  and  S_13
REMARK    7  A    between atoms: S_13  and  C_14
REMARK                            x       y       z     vdW  Elec       q    Type
REMARK                         _______ _______ _______ _____ _____    ______ ____
ROOT
ATOM      1  S   UNL     1       3.394   2.160  -1.290  0.00  0.00    -0.078 S 
ENDROOT
BRANCH   1   2
ATOM      2  C   UNL     1       4.930   1.369  -0.942  0.00  0.00    +0.169 A 
ATOM      3  N   UNL     1       6.137   1.738  -1.459  0.00  0.00    -0.215 NA
ATOM      4  H   UNL     1      10.055  -0.363  -0.466  0.00  0.00    +0.172 HD
ATOM      5  C   UNL     1       7.083   0.867  -0.937  0.00  0.00    +0.173 A 
ATOM      6  C   UNL     1       6.382  -0.017  -0.099  0.00  0.00    +0.167 A 
ATOM      7  N   UNL     1       5.084   0.335  -0.147  0.00  0.00    -0.318 N 
ATOM      8  N   UNL     1       7.065  -0.971   0.543  0.00  0.00    -0.197 NA
ATOM      9  C   UNL     1       8.375  -1.072   0.394  0.00  0.00    +0.195 A 
ATOM     10  N   UNL     1       9.065  -0.249  -0.384  0.00  0.00    -0.293 N 
ATOM     11  C   UNL     1       8.461   0.726  -1.058  0.00  0.00    +0.280 A 
ATOM     12  O   UNL     1       9.174   1.562  -1.851  0.00  0.00    -0.265 OA
ATOM     13  N   UNL     1       9.050  -2.072   1.075  0.00  0.00    -0.329 N 
ATOM     14  H   UNL     1       4.347  -0.123   0.350  0.00  0.00    +0.169 HD
ATOM     15  H   UNL     1       8.917  -1.954   2.059  0.00  0.00    +0.145 HD
ATOM     16  H   UNL     1      10.011  -2.161   0.978  0.00  0.00    +0.145 HD
ENDBRANCH   1   2
BRANCH   1  17
ATOM     17  C   UNL     1       2.283   1.144  -0.286  0.00  0.00    +0.173 C 
BRANCH  17  19
ATOM     18  N   UNL     1      -0.134   1.043   0.231  0.00  0.00    -0.284 N 
ATOM     19  C   UNL     1       0.871   1.650  -0.431  0.00  0.00    +0.228 C 
ATOM     20  O   UNL     1       0.639   2.604  -1.142  0.00  0.00    -0.275 OA
ATOM     21  H   UNL     1       0.043   0.248   0.758  0.00  0.00    +0.155 HD
BRANCH  18  26
ATOM     22  C   UNL     1      -5.403   3.122  -0.085  0.00  0.00    +0.044 C 
ATOM     23  C   UNL     1      -4.004   2.570  -0.001  0.00  0.00    -0.050 A 
ATOM     24  C   UNL     1      -3.770   1.236  -0.281  0.00  0.00    +0.008 A 
ATOM     25  C   UNL     1      -2.489   0.726  -0.205  0.00  0.00    -0.029 A 
ATOM     26  C   UNL     1      -1.434   1.556   0.153  0.00  0.00    +0.039 A 
ATOM     27  C   UNL     1      -1.672   2.894   0.438  0.00  0.00    -0.029 A 
ATOM     28  C   UNL     1      -2.955   3.398   0.355  0.00  0.00    +0.008 A 
ATOM     29  C   UNL     1      -0.531   3.795   0.834  0.00  0.00    +0.045 C 
ATOM     30  C   UNL     1      -2.236  -0.728  -0.509  0.00  0.00    +0.045 C 
ENDBRANCH  18  26
ENDBRANCH  17  19
ENDBRANCH   1  17
TORSDOF 4
