REMARK  Name = ZINC49691050
REMARK  6 active torsions:
REMARK  status: ('A' for Active; 'I' for Inactive)
REMARK    1  A    between atoms: C_1  and  C_2
REMARK    2  A    between atoms: C_2  and  C_3
REMARK    3  A    between atoms: C_2  and  C_12
REMARK    4  A    between atoms: C_2  and  O_15
REMARK    5  A    between atoms: O_15  and  C_16
REMARK    6  A    between atoms: C_16  and  C_17
REMARK                            x       y       z     vdW  Elec       q    Type
REMARK                         _______ _______ _______ _____ _____    ______ ____
ROOT
ATOM      1  C   UNL     1       0.145   1.516  -0.102  0.00  0.00    +0.059 C 
ATOM      2  C   UNL     1       0.002  -0.004   0.002  0.00  0.00    +0.193 C 
ENDROOT
BRANCH   2   3
ATOM      3  C   UNL     1       0.784  -0.503   1.190  0.00  0.00    +0.016 A 
ATOM      4  C   UNL     1       1.408   0.398   2.033  0.00  0.00    +0.048 A 
ATOM      5  C   UNL     1       2.126  -0.060   3.124  0.00  0.00    +0.142 A 
ATOM      6  C   UNL     1       2.220  -1.420   3.370  0.00  0.00    +0.077 A 
ATOM      7  C   UNL     1       1.595  -2.320   2.526  0.00  0.00    +0.043 A 
ATOM      8  C   UNL     1       0.874  -1.860   1.438  0.00  0.00    +0.049 A 
ATOM      9 CL   UNL     1       0.085  -2.989   0.381  0.00  0.00    -0.083 Cl
ATOM     10 CL   UNL     1       3.121  -1.996   4.738  0.00  0.00    -0.081 Cl
ATOM     11  F   UNL     1       2.736   0.820   3.949  0.00  0.00    -0.204 F 
ENDBRANCH   2   3
BRANCH   2  12
ATOM     12  C   UNL     1      -1.452  -0.361   0.172  0.00  0.00    +0.391 C 
ATOM     13  O   UNL     1      -1.973  -1.169  -0.577  0.00  0.00    -0.243 OA
ATOM     14  O   UNL     1      -2.107   0.158   1.060  0.00  0.00    -0.243 OA
ENDBRANCH   2  12
BRANCH   2  15
ATOM     15  O   UNL     1       0.505  -0.612  -1.189  0.00  0.00    -0.357 OA
BRANCH  15  16
ATOM     16  C   UNL     1      -0.171  -0.205  -2.380  0.00  0.00    +0.167 C 
BRANCH  16  17
ATOM     17  C   UNL     1       0.448  -0.915  -3.586  0.00  0.00    +0.043 C 
ATOM     18  C   UNL     1      -0.216  -0.431  -4.899  0.00  0.00    +0.036 C 
ATOM     19  C   UNL     1      -0.343  -1.750  -5.703  0.00  0.00    +0.160 C 
ATOM     20  O   UNL     1      -0.664  -2.731  -4.693  0.00  0.00    -0.379 OA
ATOM     21  C   UNL     1       0.142  -2.424  -3.539  0.00  0.00    +0.165 C 
ENDBRANCH  16  17
ENDBRANCH  15  16
ENDBRANCH   2  15
TORSDOF 5
