REMARK  Name = ZINC40687132
REMARK  9 active torsions:
REMARK  status: ('A' for Active; 'I' for Inactive)
REMARK    1  A    between atoms: C_1  and  C_2
REMARK    2  A    between atoms: C_2  and  C_3
REMARK    3  A    between atoms: C_2  and  C_4
REMARK    4  A    between atoms: C_2  and  N_5
REMARK    5  A    between atoms: N_5  and  N_6
REMARK    6  A    between atoms: C_8  and  N_21
REMARK    7  A    between atoms: C_9  and  N_13
REMARK    8  A    between atoms: N_13  and  C_14
REMARK    9  A    between atoms: C_14  and  C_15
REMARK                            x       y       z     vdW  Elec       q    Type
REMARK                         _______ _______ _______ _____ _____    ______ ____
ROOT
ATOM      1  N   UNL     1       1.977  -0.022  -1.248  0.00  0.00    -0.263 N 
ATOM      2  C   UNL     1       2.800  -0.360  -2.316  0.00  0.00    +0.158 A 
ATOM      3  C   UNL     1       4.119   0.095  -2.366  0.00  0.00    +0.106 A 
ATOM      4  C   UNL     1       4.902  -0.275  -3.461  0.00  0.00    +0.145 A 
ATOM      5  N   UNL     1       4.366  -1.041  -4.408  0.00  0.00    -0.219 NA
ATOM      6  C   UNL     1       3.116  -1.449  -4.322  0.00  0.00    +0.225 A 
ATOM      7  N   UNL     1       2.344  -1.127  -3.303  0.00  0.00    -0.218 NA
ATOM      8  H   UNL     1       2.316   0.537  -0.532  0.00  0.00    +0.168 HD
ENDROOT
BRANCH   3   9
ATOM      9  N   UNL     1       4.643   0.903  -1.343  0.00  0.00    -0.353 N 
ATOM     10  H   UNL     1       4.086   1.152  -0.589  0.00  0.00    +0.143 HD
ATOM     11  H   UNL     1       5.561   1.211  -1.392  0.00  0.00    +0.143 HD
ENDBRANCH   3   9
BRANCH   1  12
ATOM     12  N   UNL     1       0.690  -0.478  -1.207  0.00  0.00    -0.236 NA
ATOM     13  H   UNL     1       0.184  -0.211  -2.038  0.00  0.00    +0.145 HD
BRANCH  12  15
ATOM     14  C   UNL     1      -0.019   1.526   0.010  0.00  0.00    +0.029 C 
ATOM     15  C   UNL     1       0.002  -0.004   0.002  0.00  0.00    +0.028 C 
ATOM     16  C   UNL     1       0.742  -0.511   1.242  0.00  0.00    +0.029 C 
ATOM     17  C   UNL     1      -1.433  -0.534   0.013  0.00  0.00    +0.029 C 
ENDBRANCH  12  15
ENDBRANCH   1  12
BRANCH   4  18
ATOM     18  N   UNL     1       6.221   0.152  -3.560  0.00  0.00    -0.325 N 
ATOM     19  H   UNL     1       6.604   0.710  -2.866  0.00  0.00    +0.148 HD
BRANCH  18  20
ATOM     20  C   UNL     1       7.033  -0.243  -4.714  0.00  0.00    +0.134 C 
BRANCH  20  21
ATOM     21  C   UNL     1       8.435   0.355  -4.579  0.00  0.00    +0.135 C 
ATOM     22  C   UNL     1       9.301  -0.022  -5.808  0.00  0.00    +0.035 C 
ATOM     23  C   UNL     1      10.338   1.135  -5.803  0.00  0.00    +0.031 C 
ATOM     24  C   UNL     1       9.498   2.325  -5.292  0.00  0.00    +0.160 C 
ATOM     25  O   UNL     1       8.369   1.790  -4.590  0.00  0.00    -0.375 OA
ENDBRANCH  20  21
ENDBRANCH  18  20
ENDBRANCH   4  18
TORSDOF 6
