REMARK  Name = ZINC50032312
REMARK  4 active torsions:
REMARK  status: ('A' for Active; 'I' for Inactive)
REMARK    1  A    between atoms: C_2  and  C_20
REMARK    2  A    between atoms: C_3  and  N_19
REMARK    3  A    between atoms: C_6  and  N_7
REMARK    4  A    between atoms: N_7  and  C_8
REMARK                            x       y       z     vdW  Elec       q    Type
REMARK                         _______ _______ _______ _____ _____    ______ ____
ROOT
ATOM      1  C   UNL     1      -0.073   1.265   0.013  0.00  0.00    +0.040 A 
ATOM      2  C   UNL     1       1.061   2.084  -0.018  0.00  0.00    +0.059 A 
ATOM      3  C   UNL     1       2.337   1.502  -0.036  0.00  0.00    +0.040 A 
ATOM      4  C   UNL     1       2.466   0.120  -0.024  0.00  0.00    +0.063 A 
ATOM      5  C   UNL     1       1.341  -0.681   0.006  0.00  0.00    +0.146 A 
ATOM      6  C   UNL     1       0.070  -0.109   0.024  0.00  0.00    +0.064 A 
ATOM      7  F   UNL     1       1.473  -2.026   0.017  0.00  0.00    -0.203 F 
ENDROOT
BRANCH   2   8
ATOM      8  C   UNL     1       0.915   3.550  -0.030  0.00  0.00    +0.243 C 
ATOM      9  O   UNL     1       1.899   4.259   0.052  0.00  0.00    -0.270 OA
ATOM     10  N   UNL     1      -0.309   4.104  -0.134  0.00  0.00    -0.325 N 
ATOM     11  H   UNL     1      -1.094   3.539  -0.200  0.00  0.00    +0.145 HD
ATOM     12  H   UNL     1      -0.405   5.070  -0.143  0.00  0.00    +0.145 HD
ENDBRANCH   2   8
BRANCH   3  13
ATOM     13  N   UNL     1       3.471   2.308  -0.066  0.00  0.00    -0.357 N 
ATOM     14  H   UNL     1       3.383   3.272   0.006  0.00  0.00    +0.142 HD
ATOM     15  H   UNL     1       4.349   1.907  -0.160  0.00  0.00    +0.142 HD
ENDBRANCH   3  13
BRANCH   6  16
ATOM     16  N   UNL     1      -1.066  -0.930   0.055  0.00  0.00    -0.340 N 
ATOM     17  H   UNL     1      -0.967  -1.895   0.063  0.00  0.00    +0.146 HD
BRANCH  16  18
ATOM     18  C   UNL     1      -2.402  -0.330   0.075  0.00  0.00    +0.055 C 
ATOM     19  C   UNL     1      -2.850  -0.055   1.525  0.00  0.00    +0.002 C 
ATOM     20  C   UNL     1      -4.367  -0.304   1.515  0.00  0.00    -0.077 C 
ATOM     21  N   UNL     1      -4.683  -1.101   0.324  0.00  0.00    +0.383 N 
ATOM     22  C   UNL     1      -3.448  -1.326  -0.461  0.00  0.00    -0.048 C 
ATOM     23  C   UNL     1      -2.992  -2.760  -0.093  0.00  0.00    -0.015 C 
ATOM     24  C   UNL     1      -4.346  -3.493   0.089  0.00  0.00    -0.020 C 
ATOM     25  C   UNL     1      -5.250  -2.403   0.712  0.00  0.00    -0.078 C 
ATOM     26  H   UNL     1      -5.345  -0.602  -0.251  0.00  0.00    -0.081 HD
ENDBRANCH  16  18
ENDBRANCH   6  16
TORSDOF 4
