REMARK  Name = ZINC43710785
REMARK  7 active torsions:
REMARK  status: ('A' for Active; 'I' for Inactive)
REMARK    1  A    between atoms: C_1  and  C_2
REMARK    2  A    between atoms: C_2  and  C_4
REMARK    3  A    between atoms: C_2  and  N_22
REMARK    4  A    between atoms: N_6  and  C_7
REMARK    5  A    between atoms: C_16  and  C_17
REMARK    6  A    between atoms: C_17  and  O_19
REMARK    7  A    between atoms: O_19  and  C_20
REMARK                            x       y       z     vdW  Elec       q    Type
REMARK                         _______ _______ _______ _____ _____    ______ ____
ROOT
ATOM      1  C   UNL     1       0.898  -0.678  -1.077  0.00  0.00    +0.203 C 
ATOM      2  O   UNL     1       0.533  -1.649  -1.705  0.00  0.00    -0.277 OA
ATOM      3  N   UNL     1       1.966   0.031  -1.493  0.00  0.00    -0.284 N 
ATOM      4  H   UNL     1       2.294   0.772  -0.960  0.00  0.00    +0.155 HD
ENDROOT
BRANCH   3   5
ATOM      5  C   UNL     1       2.598  -0.300  -2.688  0.00  0.00    +0.073 A 
ATOM      6  C   UNL     1       1.990  -0.962  -3.845  0.00  0.00    +0.023 A 
ATOM      7  C   UNL     1       0.704  -1.438  -4.115  0.00  0.00    +0.031 A 
ATOM      8  C   UNL     1       0.437  -2.025  -5.320  0.00  0.00    +0.042 A 
ATOM      9  C   UNL     1       1.435  -2.154  -6.279  0.00  0.00    +0.022 A 
ATOM     10  C   UNL     1       2.708  -1.692  -6.033  0.00  0.00    +0.028 A 
ATOM     11  C   UNL     1       3.004  -1.089  -4.813  0.00  0.00    +0.049 A 
ATOM     12  N   UNL     1       4.156  -0.545  -4.294  0.00  0.00    -0.348 N 
ATOM     13  H   UNL     1       5.009  -0.502  -4.755  0.00  0.00    +0.166 HD
ATOM     14  C   UNL     1       3.917  -0.063  -3.016  0.00  0.00    +0.147 A 
ATOM     15 CL   UNL     1      -1.161  -2.616  -5.655  0.00  0.00    -0.084 Cl
BRANCH  14  16
ATOM     16  C   UNL     1       4.873   0.569  -2.181  0.00  0.00    +0.357 C 
ATOM     17  O   UNL     1       4.580   0.867  -1.038  0.00  0.00    -0.243 OA
BRANCH  16  18
ATOM     18  O   UNL     1       6.108   0.839  -2.653  0.00  0.00    -0.463 OA
ATOM     19  C   UNL     1       7.021   1.477  -1.757  0.00  0.00    +0.280 C 
ENDBRANCH  16  18
ENDBRANCH  14  16
ENDBRANCH   3   5
BRANCH   1  21
ATOM     20  C   UNL     1      -0.921   0.757  -0.194  0.00  0.00    -0.004 C 
ATOM     21  C   UNL     1       0.159  -0.265   0.169  0.00  0.00    +0.016 C 
BRANCH  21  22
ATOM     22  N   UNL     1      -0.468  -1.444   0.781  0.00  0.00    +0.388 N 
ATOM     23  C   UNL     1      -1.265  -1.027   1.938  0.00  0.00    -0.073 C 
ATOM     24  C   UNL     1      -1.933  -2.221   2.605  0.00  0.00    -0.007 C 
ATOM     25  C   UNL     1      -0.890  -3.268   3.008  0.00  0.00    +0.011 C 
ATOM     26  C   UNL     1      -0.113  -3.652   1.744  0.00  0.00    +0.020 C 
ATOM     27  C   UNL     1       0.576  -2.386   1.208  0.00  0.00    -0.068 C 
ATOM     28  C   UNL     1      -1.087  -4.134   0.692  0.00  0.00    +0.023 A 
ATOM     29  C   UNL     1      -0.634  -5.039  -0.215  0.00  0.00    +0.022 A 
ATOM     30  C   UNL     1      -1.462  -5.479  -1.254  0.00  0.00    +0.007 A 
ATOM     31  C   UNL     1      -2.722  -4.965  -1.355  0.00  0.00    +0.070 A 
ATOM     32  C   UNL     1      -3.156  -4.030  -0.405  0.00  0.00    +0.251 A 
ATOM     33  O   UNL     1      -4.258  -3.517  -0.521  0.00  0.00    -0.268 OA
ATOM     34  N   UNL     1      -2.364  -3.690   0.642  0.00  0.00    -0.312 N 
ATOM     35  C   UNL     1      -2.960  -2.873   1.695  0.00  0.00    +0.126 C 
ATOM     36  H   UNL     1      -1.068  -1.893   0.105  0.00  0.00    -0.081 HD
ENDBRANCH  21  22
ENDBRANCH   1  21
TORSDOF 5
