REMARK  Name = ZINC12661203
REMARK  11 active torsions:
REMARK  status: ('A' for Active; 'I' for Inactive)
REMARK    1  A    between atoms: C_1  and  C_2
REMARK    2  A    between atoms: C_2  and  C_41
REMARK    3  A    between atoms: C_5  and  C_8
REMARK    4  A    between atoms: C_10  and  O_22
REMARK    5  A    between atoms: C_18  and  C_20
REMARK    6  A    between atoms: C_18  and  C_21
REMARK    7  A    between atoms: O_22  and  C_23
REMARK    8  A    between atoms: C_23  and  C_24
REMARK    9  A    between atoms: N_26  and  N_27
REMARK   10  A    between atoms: C_28  and  C_30
REMARK   11  A    between atoms: C_39  and  O_40
REMARK                            x       y       z     vdW  Elec       q    Type
REMARK                         _______ _______ _______ _____ _____    ______ ____
ROOT
ATOM      1  C   UNL     1       3.629   1.411  -0.606  0.00  0.00    +0.255 C 
ATOM      2  O   UNL     1       3.770   2.488  -0.065  0.00  0.00    -0.272 OA
ATOM      3  N   UNL     1       4.689   0.792  -1.163  0.00  0.00    -0.232 N 
ATOM      4  H   UNL     1       4.576  -0.069  -1.595  0.00  0.00    +0.173 HD
ENDROOT
BRANCH   3   5
ATOM      5  N   UNL     1       5.954   1.393  -1.117  0.00  0.00    -0.230 N 
ATOM      6  C   UNL     1       7.014   0.774  -1.674  0.00  0.00    +0.264 C 
ATOM      7  O   UNL     1       6.872  -0.305  -2.216  0.00  0.00    -0.269 OA
ATOM      8  H   UNL     1       6.067   2.254  -0.685  0.00  0.00    +0.173 HD
BRANCH   6   9
ATOM      9  C   UNL     1       8.347   1.407  -1.626  0.00  0.00    +0.080 A 
ATOM     10  C   UNL     1       8.502   2.639  -1.013  0.00  0.00    +0.025 A 
ATOM     11  C   UNL     1       9.771   3.233  -0.966  0.00  0.00    -0.017 A 
ATOM     12  C   UNL     1       9.966   4.481  -0.347  0.00  0.00    +0.008 A 
ATOM     13  C   UNL     1      11.209   5.035  -0.323  0.00  0.00    +0.001 A 
ATOM     14  C   UNL     1      12.296   4.383  -0.903  0.00  0.00    +0.001 A 
ATOM     15  C   UNL     1      12.146   3.174  -1.511  0.00  0.00    +0.008 A 
ATOM     16  C   UNL     1      10.878   2.570  -1.557  0.00  0.00    -0.014 A 
ATOM     17  C   UNL     1      10.693   1.323  -2.178  0.00  0.00    +0.054 A 
ATOM     18  C   UNL     1       9.453   0.755  -2.211  0.00  0.00    +0.130 A 
BRANCH  18  19
ATOM     19  O   UNL     1       9.282  -0.449  -2.812  0.00  0.00    -0.506 OA
ATOM     20  H   UNL     1       9.067  -0.392  -3.753  0.00  0.00    +0.292 HD
ENDBRANCH  18  19
ENDBRANCH   6   9
ENDBRANCH   3   5
BRANCH   1  21
ATOM     21  C   UNL     1       2.268   0.765  -0.654  0.00  0.00    +0.257 C 
BRANCH  21  22
ATOM     22  O   UNL     1       1.317   1.609  -0.002  0.00  0.00    -0.362 OA
BRANCH  22  24
ATOM     23  C   UNL     1      -0.800   1.615   1.224  0.00  0.00    +0.184 C 
ATOM     24  C   UNL     1      -0.013   1.086   0.008  0.00  0.00    +0.184 C 
ATOM     25  C   UNL     1      -0.826   1.630  -1.192  0.00  0.00    +0.209 C 
ATOM     26  C   UNL     1      -1.347   2.985  -0.617  0.00  0.00    +0.285 C 
ATOM     27  O   UNL     1      -1.563   2.746   0.781  0.00  0.00    -0.340 OA
ATOM     28  O   UNL     1      -2.630   3.131  -1.259  0.00  0.00    -0.318 OA
ATOM     29  C   UNL     1      -3.047   1.831  -1.695  0.00  0.00    +0.168 C 
ATOM     30  O   UNL     1      -2.034   0.855  -1.331  0.00  0.00    -0.338 OA
ATOM     31  C   UNL     1      -4.380   1.471  -1.036  0.00  0.00    +0.074 C 
ATOM     32  C   UNL     1      -3.207   1.826  -3.216  0.00  0.00    +0.074 C 
BRANCH  23  37
ATOM     33  C   UNL     1       2.655   1.816   4.226  0.00  0.00    +0.074 C 
ATOM     34  C   UNL     1       1.219   1.288   4.216  0.00  0.00    +0.165 C 
ATOM     35  O   UNL     1       0.323   2.320   4.649  0.00  0.00    -0.347 OA
ATOM     36  C   UNL     1      -0.591   2.576   3.564  0.00  0.00    +0.197 C 
ATOM     37  C   UNL     1       0.172   2.039   2.327  0.00  0.00    +0.179 C 
ATOM     38  O   UNL     1       0.859   0.892   2.882  0.00  0.00    -0.341 OA
ATOM     39  C   UNL     1       1.110   0.086   5.156  0.00  0.00    +0.074 C 
ENDBRANCH  23  37
ENDBRANCH  22  24
ENDBRANCH  21  22
ENDBRANCH   1  21
TORSDOF 7
