REMARK  Name = ZINC16273125
REMARK  3 active torsions:
REMARK  status: ('A' for Active; 'I' for Inactive)
REMARK    1  A    between atoms: N_11  and  C_12
REMARK    2  A    between atoms: C_12  and  N_14
REMARK    3  A    between atoms: N_14  and  C_15
REMARK                            x       y       z     vdW  Elec       q    Type
REMARK                         _______ _______ _______ _____ _____    ______ ____
ROOT
ATOM      1  C   UNL     1       0.063   1.490   0.327  0.00  0.00    +0.002 A 
ATOM      2  C   UNL     1       1.267   2.170   0.338  0.00  0.00    +0.002 A 
ATOM      3  C   UNL     1       2.459   1.475   0.238  0.00  0.00    +0.025 A 
ATOM      4  C   UNL     1       2.442   0.097   0.127  0.00  0.00    +0.057 A 
ATOM      5  C   UNL     1       1.228  -0.592   0.112  0.00  0.00    +0.055 A 
ATOM      6  C   UNL     1       0.039   0.113   0.214  0.00  0.00    +0.025 A 
ATOM      7  N   UNL     1       1.226  -1.985  -0.014  0.00  0.00    -0.283 N 
ATOM      8  C   UNL     1       2.357  -2.694   0.166  0.00  0.00    +0.235 C 
ATOM      9  O   UNL     1       2.342  -3.897   0.010  0.00  0.00    -0.274 OA
ATOM     10  C   UNL     1       3.642  -2.010   0.558  0.00  0.00    +0.208 C 
ATOM     11  N   UNL     1       3.635  -0.637   0.030  0.00  0.00    -0.272 N 
ATOM     12  H   UNL     1       0.401  -2.446  -0.232  0.00  0.00    +0.155 HD
ENDROOT
BRANCH  11  13
ATOM     13  C   UNL     1       4.738  -0.101  -0.528  0.00  0.00    +0.138 C 
ATOM     14  S   UNL     1       4.659   1.438  -1.274  0.00  0.00    -0.018 S 
BRANCH  13  15
ATOM     15  N   UNL     1       5.904  -0.777  -0.499  0.00  0.00    -0.323 N 
ATOM     16  H   UNL     1       5.935  -1.675  -0.135  0.00  0.00    +0.148 HD
BRANCH  15  17
ATOM     17  C   UNL     1       7.124  -0.154  -1.019  0.00  0.00    +0.075 C 
ATOM     18  C   UNL     1       8.374  -0.880  -0.472  0.00  0.00    +0.026 C 
ATOM     19  C   UNL     1       9.098  -1.430  -1.739  0.00  0.00    -0.009 C 
ATOM     20  C   UNL     1       8.181  -2.588  -2.239  0.00  0.00    +0.004 C 
ATOM     21  C   UNL     1       6.920  -1.881  -2.785  0.00  0.00    +0.005 C 
ATOM     22  C   UNL     1       7.208  -0.332  -2.566  0.00  0.00    +0.010 C 
ATOM     23  C   UNL     1       8.764  -0.300  -2.776  0.00  0.00    +0.009 C 
ENDBRANCH  15  17
ENDBRANCH  13  15
ENDBRANCH  11  13
TORSDOF 3
