REMARK  Name = ZINC56017061
REMARK  8 active torsions:
REMARK  status: ('A' for Active; 'I' for Inactive)
REMARK    1  A    between atoms: C_1  and  C_2
REMARK    2  A    between atoms: C_2  and  C_3
REMARK    3  A    between atoms: C_2  and  C_4
REMARK    4  A    between atoms: C_2  and  N_21
REMARK    5  A    between atoms: N_6  and  C_7
REMARK    6  A    between atoms: C_10  and  C_13
REMARK    7  A    between atoms: C_13  and  N_14
REMARK    8  A    between atoms: N_24  and  C_25
REMARK                            x       y       z     vdW  Elec       q    Type
REMARK                         _______ _______ _______ _____ _____    ______ ____
ROOT
ATOM      1  C   UNL     1      -1.699   0.211  -2.099  0.00  0.00    +0.240 C 
ATOM      2  O   UNL     1      -2.487   0.577  -2.945  0.00  0.00    -0.273 OA
ATOM      3  N   UNL     1      -2.090  -0.657  -1.144  0.00  0.00    -0.284 N 
ATOM      4  H   UNL     1      -1.444  -1.002  -0.508  0.00  0.00    +0.155 HD
ENDROOT
BRANCH   3   5
ATOM      5  C   UNL     1      -3.428  -1.061  -1.071  0.00  0.00    +0.033 A 
ATOM      6  C   UNL     1      -4.018  -1.295   0.164  0.00  0.00    +0.023 A 
ATOM      7  C   UNL     1      -5.338  -1.693   0.233  0.00  0.00    +0.007 A 
ATOM      8  C   UNL     1      -6.074  -1.858  -0.927  0.00  0.00    -0.028 A 
ATOM      9  C   UNL     1      -5.489  -1.626  -2.158  0.00  0.00    +0.007 A 
ATOM     10  C   UNL     1      -4.171  -1.222  -2.234  0.00  0.00    +0.023 A 
BRANCH   8  11
ATOM     11  C   UNL     1      -7.514  -2.293  -0.848  0.00  0.00    +0.160 C 
BRANCH  11  12
ATOM     12  N   UNL     1      -8.377  -1.112  -0.760  0.00  0.00    -0.311 N 
ATOM     13  C   UNL     1      -8.693  -0.601   0.458  0.00  0.00    +0.089 A 
ATOM     14  C   UNL     1      -9.488   0.489   0.564  0.00  0.00    +0.018 A 
ATOM     15  C   UNL     1      -9.993   1.103  -0.591  0.00  0.00    +0.007 A 
ATOM     16  C   UNL     1      -9.674   0.589  -1.813  0.00  0.00    +0.070 A 
ATOM     17  C   UNL     1      -8.842  -0.542  -1.888  0.00  0.00    +0.252 A 
ATOM     18  O   UNL     1      -8.545  -1.010  -2.975  0.00  0.00    -0.268 OA
ENDBRANCH  11  12
ENDBRANCH   8  11
ENDBRANCH   3   5
BRANCH   1  20
ATOM     19  C   UNL     1       0.613  -0.267  -2.856  0.00  0.00    +0.041 C 
ATOM     20  C   UNL     1      -0.283   0.726  -2.114  0.00  0.00    +0.107 C 
ATOM     21  C   UNL     1      -0.241   2.080  -2.824  0.00  0.00    +0.041 C 
BRANCH  20  22
ATOM     22  N   UNL     1       0.195   0.881  -0.738  0.00  0.00    -0.286 N 
ATOM     23  C   UNL     1       1.443   1.332  -0.505  0.00  0.00    +0.300 C 
ATOM     24  O   UNL     1       2.173   1.611  -1.437  0.00  0.00    -0.253 OA
ATOM     25  N   UNL     1       1.883   1.475   0.761  0.00  0.00    -0.302 N 
ATOM     26  C   UNL     1       3.240   1.965   1.014  0.00  0.00    +0.129 C 
ATOM     27  H   UNL     1      -0.387   0.659   0.006  0.00  0.00    +0.151 HD
ATOM     28  H   UNL     1       1.301   1.253   1.505  0.00  0.00    +0.150 HD
ENDBRANCH  20  22
ENDBRANCH   1  20
TORSDOF 5
