REMARK  Name = ZINC41530601
REMARK  8 active torsions:
REMARK  status: ('A' for Active; 'I' for Inactive)
REMARK    1  A    between atoms: C_1  and  C_2
REMARK    2  A    between atoms: C_2  and  O_3
REMARK    3  A    between atoms: O_3  and  C_4
REMARK    4  A    between atoms: C_7  and  C_10
REMARK    5  A    between atoms: C_10  and  N_11
REMARK    6  A    between atoms: N_11  and  C_12
REMARK    7  A    between atoms: C_15  and  C_24
REMARK    8  A    between atoms: C_21  and  C_22
REMARK                            x       y       z     vdW  Elec       q    Type
REMARK                         _______ _______ _______ _____ _____    ______ ____
ROOT
ATOM      1  C   UNL     1      -2.313  -7.915   1.617  0.00  0.00    +0.075 A 
ATOM      2  C   UNL     1      -2.784  -8.352   2.878  0.00  0.00    +0.026 A 
ATOM      3  C   UNL     1      -3.010  -7.462   3.935  0.00  0.00    +0.015 A 
ATOM      4  C   UNL     1      -3.465  -7.938   5.129  0.00  0.00    -0.050 A 
ATOM      5  C   UNL     1      -3.707  -9.297   5.308  0.00  0.00    +0.005 A 
ATOM      6  C   UNL     1      -3.498 -10.189   4.300  0.00  0.00    +0.030 A 
ATOM      7  C   UNL     1      -3.030  -9.736   3.057  0.00  0.00    +0.095 A 
ATOM      8  N   UNL     1      -2.812 -10.580   2.039  0.00  0.00    -0.148 NA
ATOM      9  N   UNL     1      -2.385 -10.174   0.899  0.00  0.00    -0.136 NA
ATOM     10  C   UNL     1      -2.128  -8.893   0.628  0.00  0.00    +0.184 A 
ATOM     11  C   UNL     1      -3.708  -6.982   6.268  0.00  0.00    +0.044 C 
ENDROOT
BRANCH   1  12
ATOM     12  N   UNL     1      -2.051  -6.584   1.368  0.00  0.00    -0.337 N 
ATOM     13  H   UNL     1      -1.934  -5.966   2.107  0.00  0.00    +0.146 HD
BRANCH  12  14
ATOM     14  C   UNL     1      -1.952  -6.102  -0.012  0.00  0.00    +0.137 C 
BRANCH  14  18
ATOM     15  C   UNL     1      -1.641  -1.840  -0.014  0.00  0.00    +0.121 A 
ATOM     16  C   UNL     1      -0.495  -2.620   0.042  0.00  0.00    +0.046 A 
ATOM     17  C   UNL     1      -0.598  -3.997   0.043  0.00  0.00    +0.009 A 
ATOM     18  C   UNL     1      -1.842  -4.599  -0.012  0.00  0.00    -0.030 A 
ATOM     19  C   UNL     1      -2.986  -3.823  -0.069  0.00  0.00    +0.009 A 
ATOM     20  C   UNL     1      -2.888  -2.445  -0.064  0.00  0.00    +0.046 A 
BRANCH  15  21
ATOM     21  O   UNL     1      -1.542  -0.484  -0.015  0.00  0.00    -0.492 OA
BRANCH  21  23
ATOM     22  C   UNL     1      -0.316   1.598   0.030  0.00  0.00    +0.048 C 
ATOM     23  C   UNL     1      -0.226   0.070   0.039  0.00  0.00    +0.225 C 
ENDBRANCH  21  23
ENDBRANCH  15  21
ENDBRANCH  14  18
ENDBRANCH  12  14
ENDBRANCH   1  12
BRANCH  10  24
ATOM     24  C   UNL     1      -1.659  -8.516  -0.671  0.00  0.00    +0.123 C 
ATOM     25  N   UNL     1      -1.286  -8.218  -1.702  0.00  0.00    -0.189 NA
ENDBRANCH  10  24
TORSDOF 6
