REMARK  Name = ZINC06090661
REMARK  5 active torsions:
REMARK  status: ('A' for Active; 'I' for Inactive)
REMARK    1  A    between atoms: C_1  and  C_2
REMARK    2  A    between atoms: C_7  and  C_8
REMARK    3  A    between atoms: C_19  and  C_22
REMARK    4  A    between atoms: N_24  and  C_25
REMARK    5  A    between atoms: C_25  and  C_26
REMARK                            x       y       z     vdW  Elec       q    Type
REMARK                         _______ _______ _______ _____ _____    ______ ____
ROOT
ATOM      1  C   UNL     1       0.026   0.021   2.495  0.00  0.00    +0.071 A 
ATOM      2  C   UNL     1      -1.089   0.794   2.861  0.00  0.00    +0.072 A 
ATOM      3  N   UNL     1      -2.292   1.057   2.249  0.00  0.00    -0.353 N 
ATOM      4  C   UNL     1      -3.062   1.894   3.037  0.00  0.00    +0.048 A 
ATOM      5  C   UNL     1      -4.331   2.439   2.864  0.00  0.00    +0.026 A 
ATOM      6  C   UNL     1      -4.868   3.259   3.832  0.00  0.00    +0.002 A 
ATOM      7  C   UNL     1      -4.154   3.550   4.985  0.00  0.00    +0.001 A 
ATOM      8  C   UNL     1      -2.896   3.021   5.175  0.00  0.00    +0.010 A 
ATOM      9  C   UNL     1      -2.341   2.189   4.204  0.00  0.00    +0.008 A 
ATOM     10  C   UNL     1      -1.060   1.475   4.090  0.00  0.00    +0.012 A 
ATOM     11  C   UNL     1       0.070   1.359   4.898  0.00  0.00    +0.041 A 
ATOM     12  C   UNL     1       1.131   0.573   4.460  0.00  0.00    +0.103 A 
ATOM     13  N   UNL     1       1.074  -0.064   3.294  0.00  0.00    -0.349 N 
ATOM     14  H   UNL     1       1.829  -0.607   3.019  0.00  0.00    +0.166 HD
ATOM     15  H   UNL     1      -2.563   0.706   1.387  0.00  0.00    +0.166 HD
ENDROOT
BRANCH   1  22
ATOM     16  C   UNL     1      -0.018   1.503   0.010  0.00  0.00    +0.044 C 
ATOM     17  C   UNL     1       0.002  -0.004   0.002  0.00  0.00    -0.041 A 
ATOM     18  C   UNL     1       0.006  -0.689  -1.196  0.00  0.00    +0.004 A 
ATOM     19  C   UNL     1       0.024  -2.072  -1.205  0.00  0.00    +0.000 A 
ATOM     20  C   UNL     1       0.039  -2.777  -0.015  0.00  0.00    +0.001 A 
ATOM     21  C   UNL     1       0.035  -2.103   1.189  0.00  0.00    +0.010 A 
ATOM     22  C   UNL     1       0.023  -0.709   1.204  0.00  0.00    +0.003 A 
ENDBRANCH   1  22
BRANCH  12  23
ATOM     23  C   UNL     1       2.337   0.439   5.306  0.00  0.00    +0.260 C 
ATOM     24  O   UNL     1       2.397   1.014   6.375  0.00  0.00    -0.269 OA
ATOM     25  N   UNL     1       3.370  -0.321   4.891  0.00  0.00    -0.308 N 
ATOM     26  H   UNL     1       3.323  -0.780   4.038  0.00  0.00    +0.149 HD
BRANCH  25  27
ATOM     27  C   UNL     1       4.565  -0.453   5.728  0.00  0.00    +0.136 C 
BRANCH  27  28
ATOM     28  C   UNL     1       5.579  -1.362   5.031  0.00  0.00    +0.135 C 
ATOM     29  C   UNL     1       6.837  -1.544   5.917  0.00  0.00    +0.035 C 
ATOM     30  C   UNL     1       7.372  -2.904   5.393  0.00  0.00    +0.031 C 
ATOM     31  C   UNL     1       6.069  -3.660   5.053  0.00  0.00    +0.160 C 
ATOM     32  O   UNL     1       5.036  -2.683   4.871  0.00  0.00    -0.375 OA
ENDBRANCH  27  28
ENDBRANCH  25  27
ENDBRANCH  12  23
TORSDOF 4
