REMARK  Name = ZINC00846308
REMARK  3 active torsions:
REMARK  status: ('A' for Active; 'I' for Inactive)
REMARK    1  A    between atoms: C_4  and  C_7
REMARK    2  A    between atoms: C_14  and  N_29
REMARK    3  A    between atoms: C_15  and  C_27
REMARK                            x       y       z     vdW  Elec       q    Type
REMARK                         _______ _______ _______ _____ _____    ______ ____
ROOT
ATOM      1  C   UNL     1       3.699  -0.689  -0.037  0.00  0.00    +0.101 A 
ATOM      2  C   UNL     1       4.001  -1.853   0.676  0.00  0.00    +0.066 A 
ATOM      3  C   UNL     1       5.292  -2.200   0.390  0.00  0.00    +0.224 A 
ATOM      4  N   UNL     1       5.781  -1.285  -0.472  0.00  0.00    -0.246 N 
ATOM      5  H   UNL     1       6.675  -1.276  -0.849  0.00  0.00    +0.192 HD
ATOM      6  N   UNL     1       4.768  -0.349  -0.733  0.00  0.00    -0.171 NA
ATOM      7  O   UNL     1       5.890  -3.292   0.927  0.00  0.00    -0.423 OA
ATOM      8  C   UNL     1       5.111  -4.196   1.553  0.00  0.00    +0.201 C 
ATOM      9  C   UNL     1       3.822  -3.965   1.900  0.00  0.00    +0.110 C 
ATOM     10  C   UNL     1       3.142  -2.655   1.612  0.00  0.00    +0.145 C 
ATOM     11  C   UNL     1       2.860  -1.900   2.871  0.00  0.00    -0.000 A 
ATOM     12  C   UNL     1       3.696  -1.406   3.849  0.00  0.00    +0.027 A 
ATOM     13  C   UNL     1       3.098  -0.736   4.912  0.00  0.00    +0.041 A 
ATOM     14  C   UNL     1       1.728  -0.575   4.980  0.00  0.00    +0.022 A 
ATOM     15  C   UNL     1       0.881  -1.069   4.000  0.00  0.00    +0.025 A 
ATOM     16  C   UNL     1       1.469  -1.744   2.929  0.00  0.00    +0.038 A 
ATOM     17  N   UNL     1       0.873  -2.333   1.828  0.00  0.00    -0.284 N 
ATOM     18  C   UNL     1       1.780  -2.894   1.000  0.00  0.00    +0.238 C 
ATOM     19  O   UNL     1       1.547  -3.479  -0.036  0.00  0.00    -0.274 OA
ATOM     20 CL   UNL     1       4.094  -0.090   6.179  0.00  0.00    -0.084 Cl
ATOM     21  H   UNL     1      -0.084  -2.341   1.669  0.00  0.00    +0.155 HD
ENDROOT
BRANCH   1  25
ATOM     22  C   UNL     1      -0.016   1.380   0.011  0.00  0.00    +0.000 A 
ATOM     23  C   UNL     1       0.603   1.047   1.202  0.00  0.00    +0.001 A 
ATOM     24  C   UNL     1       1.808   0.375   1.192  0.00  0.00    +0.010 A 
ATOM     25  C   UNL     1       2.402   0.033  -0.021  0.00  0.00    +0.003 A 
ATOM     26  C   UNL     1       1.774   0.370  -1.218  0.00  0.00    +0.010 A 
ATOM     27  C   UNL     1       0.569   1.042  -1.196  0.00  0.00    +0.001 A 
ENDBRANCH   1  25
BRANCH   8  28
ATOM     28  N   UNL     1       5.653  -5.420   1.856  0.00  0.00    -0.328 N 
ATOM     29  H   UNL     1       6.573  -5.615   1.619  0.00  0.00    +0.145 HD
ATOM     30  H   UNL     1       5.116  -6.091   2.306  0.00  0.00    +0.145 HD
ENDBRANCH   8  28
BRANCH   9  31
ATOM     31  C   UNL     1       3.085  -4.999   2.562  0.00  0.00    +0.102 C 
ATOM     32  N   UNL     1       2.500  -5.819   3.086  0.00  0.00    -0.191 NA
ENDBRANCH   9  31
TORSDOF 3
