REMARK  Name = ZINC12848573
REMARK  4 active torsions:
REMARK  status: ('A' for Active; 'I' for Inactive)
REMARK    1  A    between atoms: C_3  and  C_7
REMARK    2  A    between atoms: C_14  and  C_16
REMARK    3  A    between atoms: C_22  and  C_31
REMARK    4  A    between atoms: C_25  and  C_27
REMARK                            x       y       z     vdW  Elec       q    Type
REMARK                         _______ _______ _______ _____ _____    ______ ____
ROOT
ATOM      1  C   UNL     1       4.785  -0.607  -2.727  0.00  0.00    +0.091 C 
ATOM      2  C   UNL     1       4.272  -1.553  -3.575  0.00  0.00    +0.104 C 
ATOM      3  N   UNL     1       5.277  -2.086  -4.316  0.00  0.00    -0.269 N 
ATOM      4  N   UNL     1       6.487  -1.507  -3.955  0.00  0.00    -0.226 N 
ATOM      5  C   UNL     1       6.230  -0.554  -2.979  0.00  0.00    +0.126 C 
ATOM      6  N   UNL     1       7.150   0.192  -2.439  0.00  0.00    -0.361 N 
ATOM      7  C   UNL     1       8.535   0.066  -2.908  0.00  0.00    +0.149 C 
ATOM      8  C   UNL     1       8.823  -1.369  -3.349  0.00  0.00    +0.065 C 
ATOM      9  C   UNL     1       7.840  -1.786  -4.450  0.00  0.00    +0.202 C 
ATOM     10  H   UNL     1       5.166  -2.769  -4.997  0.00  0.00    +0.170 HD
ATOM     11  H   UNL     1       6.923   0.822  -1.738  0.00  0.00    +0.162 HD
ENDROOT
BRANCH   1  18
ATOM     12  C   UNL     1       2.806   0.419   0.346  0.00  0.00    +0.108 C 
ATOM     13  C   UNL     1       1.589  -0.438   0.707  0.00  0.00    +0.027 C 
ATOM     14  C   UNL     1       2.064  -1.789   1.248  0.00  0.00    +0.004 C 
ATOM     15  C   UNL     1       2.866  -2.519   0.168  0.00  0.00    +0.019 C 
ATOM     16  C   UNL     1       4.097  -1.685  -0.199  0.00  0.00    +0.109 C 
ATOM     17  N   UNL     1       3.661  -0.335  -0.581  0.00  0.00    -0.290 N 
ATOM     18  C   UNL     1       4.034   0.201  -1.760  0.00  0.00    +0.252 C 
ATOM     19  O   UNL     1       3.749   1.354  -2.022  0.00  0.00    -0.270 OA
BRANCH  12  22
ATOM     20  C   UNL     1       2.187   4.071  -0.377  0.00  0.00    +0.020 A 
ATOM     21  C   UNL     1       2.628   2.923   0.265  0.00  0.00    +0.008 A 
ATOM     22  C   UNL     1       2.348   1.695  -0.313  0.00  0.00    -0.009 A 
ATOM     23  C   UNL     1       1.643   1.654  -1.501  0.00  0.00    +0.116 A 
ATOM     24  N   UNL     1       1.240   2.766  -2.084  0.00  0.00    -0.263 NA
ATOM     25  C   UNL     1       1.488   3.952  -1.563  0.00  0.00    +0.111 A 
ENDBRANCH  12  22
ENDBRANCH   1  18
BRANCH   7  26
ATOM     26  C   UNL     1       9.474   0.440  -1.790  0.00  0.00    +0.127 A 
ATOM     27  C   UNL     1      10.604   1.159  -1.918  0.00  0.00    +0.047 A 
ATOM     28  C   UNL     1      11.168   1.270  -0.627  0.00  0.00    +0.041 A 
ATOM     29  C   UNL     1      10.349   0.612   0.214  0.00  0.00    +0.195 A 
ATOM     30  O   UNL     1       9.322   0.116  -0.495  0.00  0.00    -0.466 OA
ENDBRANCH   7  26
BRANCH   9  31
ATOM     31  C   UNL     1       7.985  -3.278  -4.757  0.00  0.00    +0.410 C 
ATOM     32  F   UNL     1       7.052  -3.646  -5.732  0.00  0.00    -0.169 F 
ATOM     33  F   UNL     1       9.277  -3.534  -5.227  0.00  0.00    -0.169 F 
ATOM     34  F   UNL     1       7.758  -4.018  -3.591  0.00  0.00    -0.169 F 
ENDBRANCH   9  31
TORSDOF 4
