REMARK  Name = ZINC39272226
REMARK  7 active torsions:
REMARK  status: ('A' for Active; 'I' for Inactive)
REMARK    1  A    between atoms: C_1  and  C_2
REMARK    2  A    between atoms: N_6  and  C_7
REMARK    3  A    between atoms: C_7  and  C_9
REMARK    4  A    between atoms: C_9  and  C_11
REMARK    5  A    between atoms: C_9  and  N_14
REMARK    6  A    between atoms: C_11  and  C_12
REMARK    7  A    between atoms: C_11  and  C_13
REMARK                            x       y       z     vdW  Elec       q    Type
REMARK                         _______ _______ _______ _____ _____    ______ ____
ROOT
ATOM      1  C   UNL     1       0.074  -3.522   4.486  0.00  0.00    +0.186 C 
ENDROOT
BRANCH   1   2
ATOM      2  N   UNL     1       0.070  -2.804   5.763  0.00  0.00    -0.205 N 
ATOM      3  C   UNL     1       1.103  -2.978   6.620  0.00  0.00    +0.264 C 
ATOM      4  O   UNL     1       2.075  -3.641   6.309  0.00  0.00    -0.269 OA
ATOM      5  C   UNL     1       1.009  -2.334   7.944  0.00  0.00    +0.060 A 
ATOM      6  C   UNL     1       2.087  -2.230   8.813  0.00  0.00    +0.015 A 
ATOM      7  C   UNL     1       1.911  -1.614  10.037  0.00  0.00    +0.001 A 
ATOM      8  C   UNL     1       0.673  -1.105  10.397  0.00  0.00    +0.002 A 
ATOM      9  C   UNL     1      -0.407  -1.202   9.540  0.00  0.00    +0.025 A 
ATOM     10  C   UNL     1      -0.248  -1.814   8.311  0.00  0.00    +0.055 A 
ATOM     11  N   UNL     1      -1.280  -1.944   7.390  0.00  0.00    -0.264 N 
ATOM     12  N   UNL     1      -0.969  -1.977   6.056  0.00  0.00    -0.157 NA
ATOM     13  H   UNL     1      -2.201  -2.009   7.686  0.00  0.00    +0.168 HD
ATOM     14  H   UNL     1      -0.804  -1.048   5.697  0.00  0.00    +0.168 HD
ENDBRANCH   1   2
BRANCH   1  15
ATOM     15  C   UNL     1      -1.163  -4.418   4.401  0.00  0.00    +0.014 C 
ATOM     16  C   UNL     1      -1.159  -5.167   3.066  0.00  0.00    +0.009 C 
ATOM     17  C   UNL     1      -1.143  -5.426   5.551  0.00  0.00    +0.009 C 
ENDBRANCH   1  15
BRANCH   1  18
ATOM     18  C   UNL     1       0.054  -2.529   3.353  0.00  0.00    +0.261 C 
ATOM     19  O   UNL     1       0.038  -1.335   3.589  0.00  0.00    -0.272 OA
BRANCH  18  25
ATOM     20  C   UNL     1      -0.018   1.503   0.010  0.00  0.00    +0.064 C 
ATOM     21  C   UNL     1       0.002  -0.004   0.002  0.00  0.00    +0.021 A 
ATOM     22  C   UNL     1       0.006  -0.694  -1.144  0.00  0.00    +0.069 A 
ATOM     23  S   UNL     1       0.033  -2.379  -0.561  0.00  0.00    -0.060 S 
ATOM     24  C   UNL     1       0.036  -2.076   1.093  0.00  0.00    +0.163 A 
ATOM     25  N   UNL     1       0.054  -2.955   2.096  0.00  0.00    -0.155 NA
ATOM     26  N   UNL     1       0.023  -0.718   1.159  0.00  0.00    -0.340 N 
ATOM     27  H   UNL     1       0.025  -0.266   2.018  0.00  0.00    +0.167 HD
ENDBRANCH  18  25
ENDBRANCH   1  18
TORSDOF 4
