REMARK  Name = ZINC58014079
REMARK  5 active torsions:
REMARK  status: ('A' for Active; 'I' for Inactive)
REMARK    1  A    between atoms: C_1  and  C_2
REMARK    2  A    between atoms: C_2  and  C_3
REMARK    3  A    between atoms: N_8  and  C_10
REMARK    4  A    between atoms: C_13  and  N_19
REMARK    5  A    between atoms: C_14  and  C_16
REMARK                            x       y       z     vdW  Elec       q    Type
REMARK                         _______ _______ _______ _____ _____    ______ ____
ROOT
ATOM      1  C   UNL     1       1.187  -3.912   2.725  0.00  0.00    +0.014 A 
ATOM      2  C   UNL     1       1.696  -4.587   1.626  0.00  0.00    +0.023 A 
ATOM      3  C   UNL     1       1.605  -5.961   1.546  0.00  0.00    +0.025 A 
ATOM      4  C   UNL     1       1.000  -6.680   2.570  0.00  0.00    +0.039 A 
ATOM      5  C   UNL     1       0.484  -5.999   3.685  0.00  0.00    +0.085 A 
ATOM      6  C   UNL     1       0.589  -4.605   3.753  0.00  0.00    +0.038 A 
ENDROOT
BRANCH   1  11
ATOM      7  C   UNL     1       0.607  -0.398   1.770  0.00  0.00    +0.005 C 
ATOM      8  C   UNL     1       2.064   0.074   1.760  0.00  0.00    +0.006 C 
ATOM      9  C   UNL     1       2.819  -0.610   2.903  0.00  0.00    +0.018 C 
ATOM     10  C   UNL     1       2.700  -2.128   2.748  0.00  0.00    +0.085 C 
ATOM     11  N   UNL     1       1.286  -2.519   2.792  0.00  0.00    -0.393 NA
ATOM     12  C   UNL     1       0.569  -1.923   1.658  0.00  0.00    +0.088 C 
ATOM     13  H   UNL     1       0.875  -2.195   3.655  0.00  0.00    +0.126 HD
BRANCH   7  15
ATOM     14  C   UNL     1      -0.206   1.738   0.760  0.00  0.00    +0.004 C 
ATOM     15  C   UNL     1      -0.138   0.220   0.585  0.00  0.00    +0.001 C 
ENDBRANCH   7  15
ENDBRANCH   1  11
BRANCH   5  16
ATOM     16  C   UNL     1      -0.159  -6.746   4.777  0.00  0.00    +0.388 C 
ATOM     17  O   UNL     1      -0.704  -6.144   5.692  0.00  0.00    -0.241 OA
ATOM     18  O   UNL     1      -0.148  -7.970   4.770  0.00  0.00    -0.241 OA
ENDBRANCH   5  16
BRANCH   4  19
ATOM     19  N   UNL     1       0.907  -8.062   2.492  0.00  0.00    -0.357 N 
ATOM     20  H   UNL     1       1.187  -8.522   1.685  0.00  0.00    +0.142 HD
ATOM     21  H   UNL     1       0.563  -8.568   3.244  0.00  0.00    +0.142 HD
ENDBRANCH   4  19
TORSDOF 4
