REMARK  Name = ZINC56100421
REMARK  4 active torsions:
REMARK  status: ('A' for Active; 'I' for Inactive)
REMARK    1  A    between atoms: C_1  and  C_2
REMARK    2  A    between atoms: C_6  and  C_25
REMARK    3  A    between atoms: N_9  and  S_10
REMARK    4  A    between atoms: S_10  and  C_13
REMARK                            x       y       z     vdW  Elec       q    Type
REMARK                         _______ _______ _______ _____ _____    ______ ____
ROOT
ATOM      1  S   UNL     1       1.660   0.565   2.077  0.00  0.00    +0.064 S 
ATOM      2  O   UNL     1       1.007   1.825   2.162  0.00  0.00    -0.153 OA
ATOM      3  O   UNL     1       1.936  -0.229   3.223  0.00  0.00    -0.153 OA
ENDROOT
BRANCH   1   4
ATOM      4  C   UNL     1       3.205   0.852   1.279  0.00  0.00    +0.141 A 
ATOM      5  C   UNL     1       3.557   2.133   0.897  0.00  0.00    +0.037 A 
ATOM      6  C   UNL     1       4.767   2.361   0.272  0.00  0.00    -0.024 A 
ATOM      7  C   UNL     1       5.631   1.302   0.026  0.00  0.00    +0.039 A 
ATOM      8  C   UNL     1       5.277   0.016   0.408  0.00  0.00    +0.064 A 
ATOM      9  C   UNL     1       4.066  -0.206   1.040  0.00  0.00    +0.151 A 
ATOM     10  F   UNL     1       3.721  -1.456   1.418  0.00  0.00    -0.203 F 
ATOM     11  N   UNL     1       6.857   1.534  -0.607  0.00  0.00    -0.285 N 
ATOM     12  C   UNL     1       7.378   2.774  -0.648  0.00  0.00    +0.218 C 
ATOM     13  O   UNL     1       8.435   2.961  -1.213  0.00  0.00    -0.275 OA
ATOM     14  C   UNL     1       6.666   3.932  -0.002  0.00  0.00    +0.101 C 
ATOM     15  C   UNL     1       5.153   3.756  -0.144  0.00  0.00    +0.046 C 
ATOM     16  H   UNL     1       7.334   0.797  -1.018  0.00  0.00    +0.155 HD
ENDBRANCH   1   4
BRANCH   1  23
ATOM     17  C   UNL     1       0.189   1.749  -0.031  0.00  0.00    +0.026 C 
ATOM     18  C   UNL     1       0.053   0.226  -0.086  0.00  0.00    +0.077 C 
ATOM     19  C   UNL     1      -1.428  -0.160  -0.023  0.00  0.00    +0.021 C 
ATOM     20  C   UNL     1      -1.551  -1.683   0.062  0.00  0.00    +0.015 C 
ATOM     21  C   UNL     1      -0.867  -2.181   1.337  0.00  0.00    +0.090 C 
ATOM     22  C   UNL     1       0.620  -1.818   1.289  0.00  0.00    +0.122 C 
ATOM     23  N   UNL     1       0.750  -0.372   1.060  0.00  0.00    -0.173 NA
BRANCH  21  24
ATOM     24  C   UNL     1      -1.018  -3.678   1.437  0.00  0.00    +0.215 C 
ATOM     25  O   UNL     1      -0.033  -4.385   1.469  0.00  0.00    -0.276 OA
ATOM     26  N   UNL     1      -2.246  -4.229   1.490  0.00  0.00    -0.329 N 
ATOM     27  H   UNL     1      -3.034  -3.663   1.464  0.00  0.00    +0.145 HD
ATOM     28  H   UNL     1      -2.343  -5.192   1.554  0.00  0.00    +0.145 HD
ENDBRANCH  21  24
ENDBRANCH   1  23
TORSDOF 3
