REMARK  Name = ZINC06263755
REMARK  9 active torsions:
REMARK  status: ('A' for Active; 'I' for Inactive)
REMARK    1  A    between atoms: C_1  and  C_2
REMARK    2  A    between atoms: C_2  and  C_3
REMARK    3  A    between atoms: C_3  and  C_4
REMARK    4  A    between atoms: C_4  and  C_23
REMARK    5  A    between atoms: N_5  and  N_6
REMARK    6  A    between atoms: C_7  and  C_9
REMARK    7  A    between atoms: C_9  and  O_10
REMARK    8  A    between atoms: O_10  and  C_11
REMARK    9  A    between atoms: C_16  and  C_17
REMARK                            x       y       z     vdW  Elec       q    Type
REMARK                         _______ _______ _______ _____ _____    ______ ____
ROOT
ATOM      1  N   UNL     1      -0.242   1.246   2.466  0.00  0.00    -0.204 N 
ATOM      2  C   UNL     1      -0.718   1.572   1.248  0.00  0.00    +0.270 C 
ATOM      3  O   UNL     1      -1.715   2.256   1.150  0.00  0.00    -0.270 OA
ATOM      4  H   UNL     1       0.555   0.699   2.544  0.00  0.00    +0.177 HD
ENDROOT
BRANCH   1   6
ATOM      5  C   UNL     1      -0.439   1.384   4.791  0.00  0.00    +0.066 C 
ATOM      6  N   UNL     1      -0.897   1.698   3.618  0.00  0.00    -0.184 NA
BRANCH   5   7
ATOM      7  C   UNL     1      -1.129   1.860   6.004  0.00  0.00    -0.002 A 
ATOM      8  C   UNL     1      -0.641   1.519   7.268  0.00  0.00    +0.010 A 
ATOM      9  C   UNL     1      -1.290   1.971   8.399  0.00  0.00    +0.001 A 
ATOM     10  C   UNL     1      -2.426   2.752   8.283  0.00  0.00    +0.000 A 
ATOM     11  C   UNL     1      -2.918   3.089   7.034  0.00  0.00    +0.001 A 
ATOM     12  C   UNL     1      -2.277   2.648   5.895  0.00  0.00    +0.010 A 
ENDBRANCH   5   7
BRANCH   5  13
ATOM     13  C   UNL     1       0.800   0.534   4.913  0.00  0.00    +0.057 C 
BRANCH  13  15
ATOM     14  C   UNL     1       3.292   0.572   5.076  0.00  0.00    +0.004 C 
ATOM     15  C   UNL     1       2.035   1.435   4.953  0.00  0.00    +0.003 C 
ENDBRANCH  13  15
ENDBRANCH   5  13
ENDBRANCH   1   6
BRANCH   2  16
ATOM     16  C   UNL     1      -0.013   1.086   0.008  0.00  0.00    +0.326 C 
BRANCH  16  17
ATOM     17  O   UNL     1      -0.704   1.559  -1.150  0.00  0.00    -0.482 OA
BRANCH  17  18
ATOM     18  C   UNL     1      -0.194   1.208  -2.359  0.00  0.00    +0.129 A 
ATOM     19  C   UNL     1       0.946   0.424  -2.432  0.00  0.00    +0.046 A 
ATOM     20  C   UNL     1       1.464   0.067  -3.662  0.00  0.00    +0.004 A 
ATOM     21  C   UNL     1       0.848   0.489  -4.827  0.00  0.00    +0.001 A 
ATOM     22  C   UNL     1      -0.289   1.269  -4.770  0.00  0.00    +0.012 A 
ATOM     23  C   UNL     1      -0.822   1.630  -3.534  0.00  0.00    +0.024 A 
BRANCH  23  24
ATOM     24  C   UNL     1      -2.047   2.464  -3.466  0.00  0.00    -0.014 A 
ATOM     25  C   UNL     1      -3.115   2.073  -2.662  0.00  0.00    +0.008 A 
ATOM     26  C   UNL     1      -4.250   2.856  -2.599  0.00  0.00    +0.001 A 
ATOM     27  C   UNL     1      -4.333   4.020  -3.341  0.00  0.00    +0.000 A 
ATOM     28  C   UNL     1      -3.278   4.411  -4.145  0.00  0.00    +0.001 A 
ATOM     29  C   UNL     1      -2.135   3.639  -4.211  0.00  0.00    +0.008 A 
ENDBRANCH  23  24
ENDBRANCH  17  18
ENDBRANCH  16  17
ENDBRANCH   2  16
TORSDOF 8
