REMARK  Name = ZINC63529314
REMARK  8 active torsions:
REMARK  status: ('A' for Active; 'I' for Inactive)
REMARK    1  A    between atoms: C_1  and  O_2
REMARK    2  A    between atoms: O_2  and  C_3
REMARK    3  A    between atoms: C_8  and  S_13
REMARK    4  A    between atoms: S_13  and  C_14
REMARK    5  A    between atoms: C_14  and  C_15
REMARK    6  A    between atoms: N_17  and  C_18
REMARK    7  A    between atoms: C_21  and  C_24
REMARK    8  A    between atoms: C_24  and  C_25
REMARK                            x       y       z     vdW  Elec       q    Type
REMARK                         _______ _______ _______ _____ _____    ______ ____
ROOT
ATOM      1  C   UNL     1       4.688  -3.802   2.200  0.00  0.00    +0.169 C 
ENDROOT
BRANCH   1   2
ATOM      2  C   UNL     1       6.044  -4.386   1.896  0.00  0.00    +0.227 C 
ATOM      3  O   UNL     1       6.418  -5.383   2.475  0.00  0.00    -0.275 OA
ATOM      4  N   UNL     1       6.840  -3.800   0.980  0.00  0.00    -0.285 N 
ATOM      5  H   UNL     1       6.515  -3.042   0.468  0.00  0.00    +0.155 HD
BRANCH   4   6
ATOM      6  C   UNL     1       8.135  -4.284   0.766  0.00  0.00    +0.033 A 
ATOM      7  C   UNL     1       9.166  -3.404   0.465  0.00  0.00    +0.023 A 
ATOM      8  C   UNL     1      10.444  -3.885   0.255  0.00  0.00    +0.006 A 
ATOM      9  C   UNL     1      10.697  -5.241   0.345  0.00  0.00    -0.037 A 
ATOM     10  C   UNL     1       9.673  -6.120   0.644  0.00  0.00    +0.006 A 
ATOM     11  C   UNL     1       8.394  -5.645   0.862  0.00  0.00    +0.023 A 
BRANCH   9  12
ATOM     12  C   UNL     1      12.092  -5.762   0.115  0.00  0.00    +0.160 C 
BRANCH  12  13
ATOM     13  C   UNL     1      12.839  -5.792   1.423  0.00  0.00    +0.360 C 
ATOM     14  O   UNL     1      12.290  -5.423   2.447  0.00  0.00    -0.246 OA
ATOM     15  O   UNL     1      13.993  -6.184   1.458  0.00  0.00    -0.246 OA
ENDBRANCH  12  13
ENDBRANCH   9  12
ENDBRANCH   4   6
ENDBRANCH   1   2
BRANCH   1  16
ATOM     16  S   UNL     1       3.866  -4.809   3.465  0.00  0.00    -0.106 S 
BRANCH  16  22
ATOM     17  C   UNL     1       0.610  -0.646   1.008  0.00  0.00    +0.122 A 
ATOM     18  C   UNL     1       1.202   0.178   2.054  0.00  0.00    +0.048 A 
ATOM     19  C   UNL     1       1.833  -0.363   3.113  0.00  0.00    +0.031 A 
ATOM     20  C   UNL     1       1.938  -1.825   3.233  0.00  0.00    +0.061 A 
ATOM     21  N   UNL     1       2.482  -2.593   4.133  0.00  0.00    -0.355 N 
ATOM     22  C   UNL     1       2.270  -3.983   3.714  0.00  0.00    +0.236 C 
ATOM     23  N   UNL     1       1.528  -3.927   2.449  0.00  0.00    -0.355 N 
ATOM     24  C   UNL     1       1.333  -2.667   2.166  0.00  0.00    +0.064 A 
ATOM     25  C   UNL     1       0.659  -2.000   1.050  0.00  0.00    +0.073 A 
ATOM     26  H   UNL     1       2.944  -2.299   4.933  0.00  0.00    +0.162 HD
ATOM     27  H   UNL     1       1.236  -4.686   1.920  0.00  0.00    +0.162 HD
BRANCH  17  29
ATOM     28  C   UNL     1      -0.039   1.387  -0.034  0.00  0.00    +0.277 C 
ATOM     29  O   UNL     1      -0.013  -0.041  -0.034  0.00  0.00    -0.495 OA
ENDBRANCH  17  29
ENDBRANCH  16  22
ENDBRANCH   1  16
TORSDOF 7
