REMARK  Name = ZINC67103381
REMARK  6 active torsions:
REMARK  status: ('A' for Active; 'I' for Inactive)
REMARK    1  A    between atoms: C_4  and  C_7
REMARK    2  A    between atoms: C_7  and  C_8
REMARK    3  A    between atoms: N_10  and  N_11
REMARK    4  A    between atoms: C_18  and  C_21
REMARK    5  A    between atoms: C_21  and  C_22
REMARK    6  A    between atoms: C_22  and  C_23
REMARK                            x       y       z     vdW  Elec       q    Type
REMARK                         _______ _______ _______ _____ _____    ______ ____
ROOT
ATOM      1  N   UNL     1       3.717  -4.017  -3.440  0.00  0.00    -0.218 N 
ATOM      2  C   UNL     1       4.411  -4.662  -4.398  0.00  0.00    +0.319 C 
ATOM      3  O   UNL     1       4.520  -5.873  -4.359  0.00  0.00    -0.251 OA
ATOM      4  N   UNL     1       4.983  -3.967  -5.401  0.00  0.00    -0.284 N 
ATOM      5  C   UNL     1       4.963  -2.498  -5.399  0.00  0.00    +0.109 C 
ATOM      6  C   UNL     1       4.378  -2.011  -6.729  0.00  0.00    +0.019 C 
ATOM      7  C   UNL     1       5.169  -2.628  -7.885  0.00  0.00    +0.006 C 
ATOM      8  C   UNL     1       5.048  -4.152  -7.833  0.00  0.00    +0.007 C 
ATOM      9  C   UNL     1       5.645  -4.663  -6.513  0.00  0.00    +0.113 C 
ATOM     10  H   UNL     1       3.567  -3.061  -3.511  0.00  0.00    +0.174 HD
ENDROOT
BRANCH   1  13
ATOM     11  C   UNL     1       2.609  -4.066  -1.334  0.00  0.00    +0.229 C 
ATOM     12  O   UNL     1       2.500  -2.859  -1.378  0.00  0.00    -0.274 OA
ATOM     13  N   UNL     1       3.214  -4.726  -2.341  0.00  0.00    -0.233 N 
ATOM     14  H   UNL     1       3.301  -5.691  -2.306  0.00  0.00    +0.173 HD
BRANCH  11  15
ATOM     15  C   UNL     1       2.067  -4.829  -0.152  0.00  0.00    +0.101 C 
BRANCH  15  19
ATOM     16  C   UNL     1       1.228  -2.737   3.542  0.00  0.00    +0.000 C 
ATOM     17  C   UNL     1       0.144  -3.654   2.970  0.00  0.00    +0.000 C 
ATOM     18  C   UNL     1       0.776  -4.632   1.978  0.00  0.00    +0.004 C 
ATOM     19  C   UNL     1       1.435  -3.850   0.840  0.00  0.00    -0.002 C 
ATOM     20  C   UNL     1       2.518  -2.933   1.412  0.00  0.00    +0.004 C 
ATOM     21  C   UNL     1       1.887  -1.955   2.404  0.00  0.00    +0.000 C 
ENDBRANCH  15  19
ENDBRANCH  11  15
ENDBRANCH   1  13
BRANCH   8  22
ATOM     22  C   UNL     1       5.811  -4.766  -9.008  0.00  0.00    +0.014 C 
BRANCH  22  23
ATOM     23  C   UNL     1       5.587  -6.279  -9.028  0.00  0.00    +0.096 C 
BRANCH  23  24
ATOM     24  C   UNL     1       6.338  -6.884 -10.185  0.00  0.00    +0.210 C 
ATOM     25  O   UNL     1       6.990  -6.174 -10.922  0.00  0.00    -0.276 OA
ATOM     26  N   UNL     1       6.287  -8.213 -10.402  0.00  0.00    -0.329 N 
ATOM     27  H   UNL     1       5.766  -8.781  -9.812  0.00  0.00    +0.145 HD
ATOM     28  H   UNL     1       6.771  -8.602 -11.147  0.00  0.00    +0.145 HD
ENDBRANCH  23  24
ENDBRANCH  22  23
ENDBRANCH   8  22
TORSDOF 6
