REMARK  Name = ZINC63775697
REMARK  7 active torsions:
REMARK  status: ('A' for Active; 'I' for Inactive)
REMARK    1  A    between atoms: C_1  and  C_2
REMARK    2  A    between atoms: C_2  and  N_3
REMARK    3  A    between atoms: N_6  and  C_9
REMARK    4  A    between atoms: C_9  and  N_10
REMARK    5  A    between atoms: N_13  and  C_26
REMARK    6  A    between atoms: C_14  and  C_17
REMARK    7  A    between atoms: C_26  and  C_27
REMARK                            x       y       z     vdW  Elec       q    Type
REMARK                         _______ _______ _______ _____ _____    ______ ____
ROOT
ATOM      1  N   UNL     1      -4.818  -4.031  -1.564  0.00  0.00    -0.232 N 
ATOM      2  C   UNL     1      -5.182  -4.440  -2.787  0.00  0.00    +0.152 C 
ATOM      3  S   UNL     1      -5.747  -3.396  -4.021  0.00  0.00    -0.017 S 
ATOM      4  N   UNL     1      -5.048  -5.771  -2.927  0.00  0.00    -0.288 N 
ATOM      5  C   UNL     1      -4.538  -6.285  -1.645  0.00  0.00    +0.189 C 
ATOM      6  N   UNL     1      -4.406  -5.083  -0.798  0.00  0.00    -0.213 NA
ATOM      7  H   UNL     1      -4.969  -5.167   0.035  0.00  0.00    +0.147 HD
ENDROOT
BRANCH   5   8
ATOM      8  C   UNL     1      -3.195  -6.942  -1.838  0.00  0.00    -0.006 C 
ATOM      9  C   UNL     1      -2.876  -8.231  -1.579  0.00  0.00    +0.002 A 
ATOM     10  C   UNL     1      -3.653  -9.363  -1.059  0.00  0.00    +0.010 A 
ATOM     11  C   UNL     1      -3.044 -10.560  -0.904  0.00  0.00    +0.001 A 
ATOM     12  C   UNL     1      -1.693 -10.747  -1.225  0.00  0.00    +0.002 A 
ATOM     13  C   UNL     1      -0.914  -9.756  -1.708  0.00  0.00    +0.026 A 
ATOM     14  C   UNL     1      -1.451  -8.455  -1.911  0.00  0.00    +0.043 A 
ATOM     15  N   UNL     1      -0.910  -7.347  -2.358  0.00  0.00    -0.380 N 
ATOM     16  C   UNL     1      -1.934  -6.296  -2.366  0.00  0.00    +0.148 C 
ATOM     17  H   UNL     1       0.012  -7.242  -2.641  0.00  0.00    +0.160 HD
ENDBRANCH   5   8
BRANCH   1  18
ATOM     18  C   UNL     1      -4.853  -2.639  -1.111  0.00  0.00    +0.212 C 
BRANCH  18  22
ATOM     19  N   UNL     1      -1.376  -0.512   0.012  0.00  0.00    +0.381 N 
ATOM     20  C   UNL     1      -2.050  -0.124  -1.234  0.00  0.00    -0.063 C 
ATOM     21  C   UNL     1      -3.492  -0.638  -1.215  0.00  0.00    +0.067 C 
ATOM     22  N   UNL     1      -3.486  -2.101  -1.076  0.00  0.00    -0.289 NA
ATOM     23  C   UNL     1      -2.792  -2.506   0.155  0.00  0.00    +0.067 C 
ATOM     24  C   UNL     1      -1.357  -1.977   0.125  0.00  0.00    -0.063 C 
ATOM     25  H   UNL     1      -1.873  -0.121   0.799  0.00  0.00    -0.082 HD
BRANCH  19  27
ATOM     26  C   UNL     1      -0.019   1.526   0.010  0.00  0.00    -0.017 C 
ATOM     27  C   UNL     1       0.002  -0.004   0.002  0.00  0.00    -0.082 C 
ENDBRANCH  19  27
ENDBRANCH  18  22
ENDBRANCH   1  18
BRANCH   4  28
ATOM     28  C   UNL     1      -5.351  -6.558  -4.124  0.00  0.00    +0.140 C 
BRANCH  28  29
ATOM     29  C   UNL     1      -4.104  -6.648  -5.006  0.00  0.00    +0.136 C 
ATOM     30  C   UNL     1      -4.413  -7.448  -6.296  0.00  0.00    +0.035 C 
ATOM     31  C   UNL     1      -3.333  -6.883  -7.259  0.00  0.00    +0.031 C 
ATOM     32  C   UNL     1      -3.220  -5.414  -6.799  0.00  0.00    +0.160 C 
ATOM     33  O   UNL     1      -3.717  -5.340  -5.456  0.00  0.00    -0.375 OA
ENDBRANCH  28  29
ENDBRANCH   4  28
TORSDOF 6
