REMARK  Name = ZINC02769772
REMARK  8 active torsions:
REMARK  status: ('A' for Active; 'I' for Inactive)
REMARK    1  A    between atoms: C_3  and  O_9
REMARK    2  A    between atoms: O_9  and  C_10
REMARK    3  A    between atoms: C_10  and  C_11
REMARK    4  A    between atoms: C_14  and  C_16
REMARK    5  A    between atoms: C_25  and  C_33
REMARK    6  A    between atoms: C_26  and  N_32
REMARK    7  A    between atoms: C_27  and  C_28
REMARK    8  A    between atoms: C_27  and  C_30
REMARK                            x       y       z     vdW  Elec       q    Type
REMARK                         _______ _______ _______ _____ _____    ______ ____
ROOT
ATOM      1  C   UNL     1      -2.785   4.174   0.256  0.00  0.00    +0.102 C 
ATOM      2  C   UNL     1      -1.357   3.687   0.004  0.00  0.00    +0.033 C 
ATOM      3  C   UNL     1      -0.722   3.116   1.249  0.00  0.00    +0.009 C 
ATOM      4  C   UNL     1      -0.749   1.590   1.258  0.00  0.00    +0.005 C 
ATOM      5  C   UNL     1      -0.013   1.086   0.008  0.00  0.00    +0.027 C 
ATOM      6  C   UNL     1      -0.758   1.593  -1.199  0.00  0.00    -0.022 C 
ATOM      7  C   UNL     1      -1.378   2.757  -1.173  0.00  0.00    -0.029 C 
ATOM      8  C   UNL     1      -2.152   3.199  -2.363  0.00  0.00    +0.074 C 
ATOM      9  C   UNL     1      -3.030   4.226  -2.238  0.00  0.00    +0.054 C 
ATOM     10  C   UNL     1      -3.256   4.974  -0.959  0.00  0.00    +0.191 C 
ENDROOT
BRANCH   1  14
ATOM     11  C   UNL     1      -2.382   6.709   2.854  0.00  0.00    +0.142 A 
ATOM     12  C   UNL     1      -3.256   5.899   3.478  0.00  0.00    +0.048 A 
ATOM     13  C   UNL     1      -3.536   4.835   2.590  0.00  0.00    +0.045 A 
ATOM     14  C   UNL     1      -2.810   5.054   1.479  0.00  0.00    +0.112 A 
ATOM     15  O   UNL     1      -2.115   6.191   1.643  0.00  0.00    -0.461 OA
BRANCH  11  16
ATOM     16  C   UNL     1      -1.800   7.980   3.417  0.00  0.00    +0.303 C 
BRANCH  16  17
ATOM     17  O   UNL     1      -0.592   7.680   4.120  0.00  0.00    -0.481 OA
BRANCH  17  20
ATOM     18  C   UNL     1       0.223  11.070   5.163  0.00  0.00    +0.042 A 
ATOM     19  C   UNL     1      -0.445  10.009   4.580  0.00  0.00    +0.051 A 
ATOM     20  C   UNL     1       0.064   8.725   4.693  0.00  0.00    +0.156 A 
ATOM     21  C   UNL     1       1.241   8.505   5.396  0.00  0.00    +0.168 A 
ATOM     22  C   UNL     1       1.909   9.569   5.974  0.00  0.00    +0.080 A 
ATOM     23  C   UNL     1       1.398  10.851   5.860  0.00  0.00    +0.126 A 
ATOM     24  F   UNL     1       2.049  11.890   6.429  0.00  0.00    -0.205 F 
ATOM     25  F   UNL     1       1.736   7.253   5.512  0.00  0.00    -0.202 F 
ENDBRANCH  17  20
ENDBRANCH  16  17
ENDBRANCH  11  16
ENDBRANCH   1  14
BRANCH   9  26
ATOM     26  N   UNL     1      -3.749   4.598  -3.340  0.00  0.00    -0.358 N 
ATOM     27  H   UNL     1      -4.469   5.426  -3.272  0.00  0.00    +0.142 HD
ATOM     28  H   UNL     1      -3.607   4.069  -4.293  0.00  0.00    +0.142 HD
ENDBRANCH   9  26
BRANCH  10  29
ATOM     29  C   UNL     1      -2.519   6.247  -1.012  0.00  0.00    +0.091 C 
ATOM     30  N   UNL     1      -1.950   7.229  -1.052  0.00  0.00    -0.194 NA
ENDBRANCH  10  29
BRANCH  10  31
ATOM     31  C   UNL     1      -4.694   5.259  -0.818  0.00  0.00    +0.091 C 
ATOM     32  N   UNL     1      -5.803   5.479  -0.709  0.00  0.00    -0.194 NA
ENDBRANCH  10  31
BRANCH   8  33
ATOM     33  C   UNL     1      -1.972   2.548  -3.626  0.00  0.00    +0.101 C 
ATOM     34  N   UNL     1      -1.830   2.032  -4.628  0.00  0.00    -0.191 NA
ENDBRANCH   8  33
TORSDOF 8
