REMARK  Name = ZINC14652470
REMARK  11 active torsions:
REMARK  status: ('A' for Active; 'I' for Inactive)
REMARK    1  A    between atoms: C_1  and  C_2
REMARK    2  A    between atoms: C_2  and  C_3
REMARK    3  A    between atoms: C_3  and  C_4
REMARK    4  A    between atoms: C_4  and  N_5
REMARK    5  A    between atoms: C_6  and  N_32
REMARK    6  A    between atoms: C_7  and  N_14
REMARK    7  A    between atoms: N_14  and  C_15
REMARK    8  A    between atoms: C_15  and  C_16
REMARK    9  A    between atoms: C_21  and  C_23
REMARK   10  A    between atoms: C_24  and  C_25
REMARK   11  A    between atoms: C_28  and  C_31
REMARK                            x       y       z     vdW  Elec       q    Type
REMARK                         _______ _______ _______ _____ _____    ______ ____
ROOT
ATOM      1  N   UNL     1      -1.276  -2.017  -0.031  0.00  0.00    -0.253 N 
ATOM      2  C   UNL     1      -1.343  -0.673  -0.117  0.00  0.00    +0.244 C 
ATOM      3  O   UNL     1      -2.416  -0.128  -0.299  0.00  0.00    -0.270 OA
ENDROOT
BRANCH   1   6
ATOM      4  N   UNL     1      -4.557  -3.400   0.872  0.00  0.00    -0.280 N 
ATOM      5  C   UNL     1      -3.414  -2.636   0.925  0.00  0.00    +0.127 A 
ATOM      6  C   UNL     1      -2.458  -2.784  -0.058  0.00  0.00    +0.140 A 
ATOM      7  C   UNL     1      -2.686  -3.712  -1.093  0.00  0.00    +0.277 A 
ATOM      8  O   UNL     1      -1.860  -3.860  -1.978  0.00  0.00    -0.266 OA
ATOM      9  N   UNL     1      -3.820  -4.439  -1.096  0.00  0.00    -0.273 N 
ATOM     10  H   UNL     1      -3.979  -5.104  -1.825  0.00  0.00    +0.173 HD
ATOM     11  C   UNL     1      -4.741  -4.280  -0.129  0.00  0.00    +0.331 A 
ATOM     12  O   UNL     1      -5.758  -4.946  -0.158  0.00  0.00    -0.246 OA
BRANCH   5  13
ATOM     13  N   UNL     1      -3.227  -1.736   1.947  0.00  0.00    -0.343 N 
ATOM     14  H   UNL     1      -2.377  -1.279   2.041  0.00  0.00    +0.144 HD
ATOM     15  H   UNL     1      -3.945  -1.559   2.575  0.00  0.00    +0.144 HD
ENDBRANCH   5  13
BRANCH   4  16
ATOM     16  C   UNL     1      -5.581  -3.252   1.909  0.00  0.00    +0.128 C 
BRANCH  16  17
ATOM     17  C   UNL     1      -6.584  -2.177   1.487  0.00  0.00    +0.021 C 
BRANCH  17  19
ATOM     18  C   UNL     1      -8.657  -0.948   2.148  0.00  0.00    +0.004 C 
ATOM     19  C   UNL     1      -7.654  -2.023   2.571  0.00  0.00    -0.002 C 
ENDBRANCH  17  19
ENDBRANCH  16  17
ENDBRANCH   4  16
ENDBRANCH   1   6
BRANCH   2  20
ATOM     20  C   UNL     1      -0.125   0.130   0.007  0.00  0.00    +0.068 C 
ATOM     21  C   UNL     1      -0.192   1.474  -0.079  0.00  0.00    +0.013 C 
BRANCH  21  22
ATOM     22  C   UNL     1       1.033   2.281   0.046  0.00  0.00    -0.025 A 
ATOM     23  C   UNL     1       2.266   1.658   0.261  0.00  0.00    +0.008 A 
ATOM     24  C   UNL     1       3.410   2.421   0.372  0.00  0.00    +0.004 A 
ATOM     25  C   UNL     1       3.337   3.800   0.283  0.00  0.00    -0.050 A 
ATOM     26  C   UNL     1       2.119   4.425   0.076  0.00  0.00    +0.004 A 
ATOM     27  C   UNL     1       0.968   3.675  -0.042  0.00  0.00    +0.008 A 
ATOM     28  C   UNL     1       4.590   4.627   0.411  0.00  0.00    +0.044 C 
ENDBRANCH  21  22
ENDBRANCH   2  20
BRANCH   1  29
ATOM     29  C   UNL     1       0.025  -2.679   0.091  0.00  0.00    +0.188 C 
BRANCH  29  30
ATOM     30  C   UNL     1       0.409  -2.769   1.546  0.00  0.00    +0.122 A 
ATOM     31  C   UNL     1       0.110  -3.784   2.377  0.00  0.00    +0.046 A 
ATOM     32  C   UNL     1       0.660  -3.456   3.637  0.00  0.00    +0.041 A 
ATOM     33  C   UNL     1       1.262  -2.261   3.501  0.00  0.00    +0.195 A 
ATOM     34  O   UNL     1       1.112  -1.853   2.231  0.00  0.00    -0.466 OA
ENDBRANCH  29  30
ENDBRANCH   1  29
TORSDOF 9
