REMARK  Name = ZINC10418954
REMARK  9 active torsions:
REMARK  status: ('A' for Active; 'I' for Inactive)
REMARK    1  A    between atoms: C_1  and  C_2
REMARK    2  A    between atoms: C_2  and  C_4
REMARK    3  A    between atoms: C_2  and  O_10
REMARK    4  A    between atoms: O_10  and  C_11
REMARK    5  A    between atoms: C_11  and  C_13
REMARK    6  A    between atoms: C_13  and  C_14
REMARK    7  A    between atoms: C_17  and  C_19
REMARK    8  A    between atoms: C_23  and  O_25
REMARK    9  A    between atoms: O_25  and  C_26
REMARK                            x       y       z     vdW  Elec       q    Type
REMARK                         _______ _______ _______ _____ _____    ______ ____
ROOT
ATOM      1  C   UNL     1       0.770  -2.177  -0.263  0.00  0.00    +0.060 A 
ATOM      2  C   UNL     1      -0.494  -2.677  -0.303  0.00  0.00    +0.071 A 
ATOM      3  S   UNL     1      -1.449  -1.167  -0.224  0.00  0.00    -0.075 S 
ATOM      4  C   UNL     1      -0.065  -0.037  -0.157  0.00  0.00    +0.109 A 
ATOM      5  N   UNL     1       0.958  -0.880  -0.191  0.00  0.00    -0.243 NA
ENDROOT
BRANCH   4   6
ATOM      6  C   UNL     1      -0.061   1.440  -0.077  0.00  0.00    +0.011 A 
ATOM      7  C   UNL     1       1.148   2.135  -0.027  0.00  0.00    +0.011 A 
ATOM      8  C   UNL     1       1.147   3.513   0.047  0.00  0.00    +0.004 A 
ATOM      9  C   UNL     1      -0.048   4.208   0.071  0.00  0.00    +0.046 A 
ATOM     10  C   UNL     1      -1.255   3.525   0.022  0.00  0.00    +0.129 A 
ATOM     11  C   UNL     1      -1.266   2.142  -0.058  0.00  0.00    +0.056 A 
BRANCH  10  12
ATOM     12  O   UNL     1      -2.427   4.213   0.047  0.00  0.00    -0.456 OA
BRANCH  12  13
ATOM     13  C   UNL     1      -3.221   4.080   1.141  0.00  0.00    +0.128 A 
ATOM     14  C   UNL     1      -2.776   3.360   2.241  0.00  0.00    +0.046 A 
ATOM     15  C   UNL     1      -3.583   3.232   3.354  0.00  0.00    +0.004 A 
ATOM     16  C   UNL     1      -4.839   3.811   3.370  0.00  0.00    +0.000 A 
ATOM     17  C   UNL     1      -5.287   4.524   2.273  0.00  0.00    +0.004 A 
ATOM     18  C   UNL     1      -4.482   4.660   1.159  0.00  0.00    +0.046 A 
ENDBRANCH  12  13
ENDBRANCH  10  12
ENDBRANCH   4   6
BRANCH   1  19
ATOM     19  C   UNL     1       1.953  -3.110  -0.302  0.00  0.00    +0.176 C 
BRANCH  19  20
ATOM     20  C   UNL     1       2.864  -2.719  -1.437  0.00  0.00    +0.314 C 
ATOM     21  O   UNL     1       2.582  -1.780  -2.142  0.00  0.00    -0.250 OA
BRANCH  20  22
ATOM     22  O   UNL     1       3.989  -3.415  -1.664  0.00  0.00    -0.452 OA
BRANCH  22  24
ATOM     23  C   UNL     1       5.834  -1.950  -2.280  0.00  0.00    +0.062 C 
ATOM     24  C   UNL     1       4.819  -2.983  -2.774  0.00  0.00    +0.259 C 
BRANCH  24  25
ATOM     25  C   UNL     1       5.548  -4.170  -3.348  0.00  0.00    +0.261 C 
ATOM     26  O   UNL     1       5.385  -5.271  -2.869  0.00  0.00    -0.271 OA
ATOM     27  N   UNL     1       6.382  -4.007  -4.394  0.00  0.00    -0.237 N 
ATOM     28  C   UNL     1       7.035  -5.068  -4.908  0.00  0.00    +0.303 C 
ATOM     29  O   UNL     1       6.872  -6.173  -4.427  0.00  0.00    -0.253 OA
ATOM     30  N   UNL     1       7.869  -4.905  -5.954  0.00  0.00    -0.313 N 
ATOM     31  H   UNL     1       6.513  -3.125  -4.778  0.00  0.00    +0.159 HD
ATOM     32  H   UNL     1       8.000  -4.024  -6.337  0.00  0.00    +0.146 HD
ATOM     33  H   UNL     1       8.339  -5.669  -6.323  0.00  0.00    +0.146 HD
ENDBRANCH  24  25
ENDBRANCH  22  24
ENDBRANCH  20  22
ENDBRANCH  19  20
ENDBRANCH   1  19
TORSDOF 8
