REMARK  Name = ZINC12881490
REMARK  7 active torsions:
REMARK  status: ('A' for Active; 'I' for Inactive)
REMARK    1  A    between atoms: C_1  and  C_2
REMARK    2  A    between atoms: C_16  and  C_18
REMARK    3  A    between atoms: C_18  and  C_19
REMARK    4  A    between atoms: N_24  and  C_27
REMARK    5  A    between atoms: C_27  and  C_28
REMARK    6  A    between atoms: C_31  and  O_34
REMARK    7  A    between atoms: O_34  and  C_35
REMARK                            x       y       z     vdW  Elec       q    Type
REMARK                         _______ _______ _______ _____ _____    ______ ____
ROOT
ATOM      1  C   UNL     1      -6.845   0.915  -4.653  0.00  0.00    +0.045 C 
ATOM      2  C   UNL     1      -5.675   0.131  -4.119  0.00  0.00    -0.029 A 
ATOM      3  C   UNL     1      -5.730  -1.248  -4.081  0.00  0.00    +0.005 A 
ATOM      4  C   UNL     1      -4.662  -1.976  -3.592  0.00  0.00    +0.001 A 
ATOM      5  C   UNL     1      -3.531  -1.321  -3.138  0.00  0.00    +0.004 A 
ATOM      6  C   UNL     1      -3.471   0.054  -3.174  0.00  0.00    -0.027 A 
ATOM      7  C   UNL     1      -4.541   0.799  -3.663  0.00  0.00    +0.039 A 
ATOM      8  N   UNL     1      -4.249   2.163  -3.599  0.00  0.00    -0.286 N 
ATOM      9  C   UNL     1      -3.025   2.397  -3.087  0.00  0.00    +0.211 C 
ATOM     10  O   UNL     1      -2.508   3.481  -2.914  0.00  0.00    -0.277 OA
ATOM     11  C   UNL     1      -2.424   1.055  -2.773  0.00  0.00    +0.050 C 
ATOM     12  C   UNL     1      -1.114   0.834  -3.539  0.00  0.00    +0.088 C 
ATOM     13  C   UNL     1       0.001   1.180  -2.513  0.00  0.00    +0.073 C 
ATOM     14  C   UNL     1      -0.753   1.593  -1.232  0.00  0.00    -0.049 C 
ATOM     15  C   UNL     1       0.702  -0.139  -2.279  0.00  0.00    +0.224 C 
ATOM     16  O   UNL     1       1.639  -0.311  -1.530  0.00  0.00    -0.275 OA
ATOM     17  N   UNL     1       0.125  -1.088  -3.025  0.00  0.00    -0.237 N 
ATOM     18  C   UNL     1      -0.900  -0.661  -3.771  0.00  0.00    +0.225 C 
ATOM     19  O   UNL     1      -1.556  -1.352  -4.521  0.00  0.00    -0.275 OA
ATOM     20  H   UNL     1      -4.857   2.861  -3.889  0.00  0.00    +0.155 HD
ATOM     21  N   UNL     1      -2.064   0.955  -1.369  0.00  0.00    +0.394 N 
ATOM     22  H   UNL     1      -2.011  -0.030  -1.085  0.00  0.00    -0.083 HD
ATOM     23  H   UNL     1      -2.758   1.442  -0.789  0.00  0.00    -0.083 HD
ENDROOT
BRANCH  14  24
ATOM     24  C   UNL     1      -0.013   1.086   0.008  0.00  0.00    +0.080 C 
BRANCH  24  25
ATOM     25  C   UNL     1      -0.718   1.572   1.248  0.00  0.00    +0.209 C 
ATOM     26  O   UNL     1      -1.714   2.256   1.150  0.00  0.00    -0.276 OA
ATOM     27  N   UNL     1      -0.242   1.246   2.466  0.00  0.00    -0.329 N 
ATOM     28  H   UNL     1       0.555   0.699   2.544  0.00  0.00    +0.145 HD
ATOM     29  H   UNL     1      -0.696   1.559   3.264  0.00  0.00    +0.145 HD
ENDBRANCH  24  25
ENDBRANCH  14  24
BRANCH  17  30
ATOM     30  C   UNL     1       0.579  -2.480  -3.026  0.00  0.00    +0.151 C 
BRANCH  30  31
ATOM     31  C   UNL     1      -0.160  -3.251  -1.963  0.00  0.00    -0.029 A 
ATOM     32  C   UNL     1       0.356  -3.330  -0.683  0.00  0.00    +0.009 A 
ATOM     33  C   UNL     1      -0.323  -4.031   0.295  0.00  0.00    +0.046 A 
ATOM     34  C   UNL     1      -1.518  -4.664  -0.011  0.00  0.00    +0.120 A 
ATOM     35  C   UNL     1      -2.032  -4.588  -1.297  0.00  0.00    +0.046 A 
ATOM     36  C   UNL     1      -1.352  -3.881  -2.270  0.00  0.00    +0.009 A 
BRANCH  34  37
ATOM     37  O   UNL     1      -2.186  -5.358   0.949  0.00  0.00    -0.495 OA
ATOM     38  C   UNL     1      -1.598  -5.394   2.251  0.00  0.00    +0.277 C 
ENDBRANCH  34  37
ENDBRANCH  30  31
ENDBRANCH  17  30
TORSDOF 5
