REMARK  Name = ZINC16012084
REMARK  6 active torsions:
REMARK  status: ('A' for Active; 'I' for Inactive)
REMARK    1  A    between atoms: C_1  and  C_2
REMARK    2  A    between atoms: C_16  and  C_19
REMARK    3  A    between atoms: C_19  and  C_21
REMARK    4  A    between atoms: C_19  and  O_22
REMARK    5  A    between atoms: N_25  and  C_28
REMARK    6  A    between atoms: C_28  and  C_29
REMARK                            x       y       z     vdW  Elec       q    Type
REMARK                         _______ _______ _______ _____ _____    ______ ____
ROOT
ATOM      1  C   UNL     1      -1.857   1.409   0.236  0.00  0.00    +0.046 C 
ATOM      2  C   UNL     1      -1.446  -0.036   0.120  0.00  0.00    -0.028 A 
ATOM      3  C   UNL     1      -1.518  -0.675  -1.101  0.00  0.00    +0.025 A 
ATOM      4  C   UNL     1      -1.144  -2.002  -1.218  0.00  0.00    +0.042 A 
ATOM      5  C   UNL     1      -0.695  -2.692  -0.104  0.00  0.00    +0.027 A 
ATOM      6  C   UNL     1      -0.621  -2.057   1.115  0.00  0.00    +0.005 A 
ATOM      7  C   UNL     1      -0.991  -0.721   1.243  0.00  0.00    +0.042 A 
ATOM      8  N   UNL     1      -0.826  -0.299   2.565  0.00  0.00    -0.283 N 
ATOM      9  C   UNL     1      -0.354  -1.281   3.357  0.00  0.00    +0.243 C 
ATOM     10  O   UNL     1      -0.117  -1.204   4.544  0.00  0.00    -0.273 OA
ATOM     11  C   UNL     1      -0.189  -2.496   2.486  0.00  0.00    +0.136 C 
ATOM     12  C   UNL     1      -1.028  -3.678   2.987  0.00  0.00    +0.123 C 
ATOM     13  C   UNL     1      -0.157  -4.930   2.687  0.00  0.00    +0.109 C 
ATOM     14  C   UNL     1       1.115  -4.375   2.011  0.00  0.00    +0.096 C 
ATOM     15  N   UNL     1       1.210  -2.963   2.488  0.00  0.00    -0.293 NA
ATOM     16  C   UNL     1       0.182  -5.458   4.062  0.00  0.00    +0.228 C 
ATOM     17  O   UNL     1       0.862  -6.436   4.290  0.00  0.00    -0.275 OA
ATOM     18  N   UNL     1      -0.386  -4.679   4.990  0.00  0.00    -0.237 N 
ATOM     19  C   UNL     1      -1.103  -3.643   4.497  0.00  0.00    +0.229 C 
ATOM     20  O   UNL     1      -1.707  -2.818   5.149  0.00  0.00    -0.275 OA
ATOM     21 CL   UNL     1      -1.238  -2.801  -2.756  0.00  0.00    -0.084 Cl
ATOM     22  H   UNL     1      -1.028   0.597   2.877  0.00  0.00    +0.155 HD
ATOM     23  H   UNL     1       1.776  -2.412   1.861  0.00  0.00    +0.124 HD
ENDROOT
BRANCH  14  24
ATOM     24  C   UNL     1       2.346  -5.161   2.467  0.00  0.00    +0.129 C 
ATOM     25  C   UNL     1       2.258  -6.596   1.944  0.00  0.00    +0.039 C 
BRANCH  24  26
ATOM     26  O   UNL     1       3.525  -4.539   1.953  0.00  0.00    -0.390 OA
ATOM     27  H   UNL     1       4.346  -4.985   2.203  0.00  0.00    +0.210 HD
ENDBRANCH  24  26
ENDBRANCH  14  24
BRANCH  18  28
ATOM     28  C   UNL     1      -0.250  -4.930   6.427  0.00  0.00    +0.153 C 
BRANCH  28  29
ATOM     29  C   UNL     1      -1.455  -5.686   6.922  0.00  0.00    -0.011 A 
ATOM     30  C   UNL     1      -2.517  -5.003   7.486  0.00  0.00    +0.006 A 
ATOM     31  C   UNL     1      -3.622  -5.697   7.940  0.00  0.00    +0.000 A 
ATOM     32  C   UNL     1      -3.668  -7.075   7.830  0.00  0.00    +0.001 A 
ATOM     33  C   UNL     1      -2.607  -7.759   7.267  0.00  0.00    +0.020 A 
ATOM     34  C   UNL     1      -1.503  -7.064   6.807  0.00  0.00    +0.046 A 
ATOM     35 CL   UNL     1      -0.173  -7.922   6.093  0.00  0.00    -0.083 Cl
ENDBRANCH  28  29
ENDBRANCH  18  28
TORSDOF 4
