REMARK  Name = ZINC45842291
REMARK  9 active torsions:
REMARK  status: ('A' for Active; 'I' for Inactive)
REMARK    1  A    between atoms: C_1  and  C_2
REMARK    2  A    between atoms: C_2  and  C_4
REMARK    3  A    between atoms: C_2  and  S_20
REMARK    4  A    between atoms: N_9  and  C_10
REMARK    5  A    between atoms: S_20  and  C_21
REMARK    6  A    between atoms: C_24  and  C_31
REMARK    7  A    between atoms: N_25  and  C_26
REMARK    8  A    between atoms: C_26  and  C_27
REMARK    9  A    between atoms: C_27  and  C_28
REMARK                            x       y       z     vdW  Elec       q    Type
REMARK                         _______ _______ _______ _____ _____    ______ ____
ROOT
ATOM      1  C   UNL     1      -0.019   1.526   0.010  0.00  0.00    +0.029 C 
ATOM      2  C   UNL     1       0.002  -0.004   0.002  0.00  0.00    +0.137 C 
ENDROOT
BRANCH   2   3
ATOM      3  C   UNL     1       0.731  -0.503   1.223  0.00  0.00    +0.233 C 
ATOM      4  O   UNL     1       0.105  -0.891   2.186  0.00  0.00    -0.274 OA
ATOM      5  N   UNL     1       2.079  -0.519   1.244  0.00  0.00    -0.239 N 
ATOM      6  C   UNL     1       2.730  -0.965   2.336  0.00  0.00    +0.306 C 
ATOM      7  O   UNL     1       2.103  -1.354   3.301  0.00  0.00    -0.252 OA
ATOM      8  N   UNL     1       4.078  -0.981   2.357  0.00  0.00    -0.294 N 
ATOM      9  H   UNL     1       2.579  -0.208   0.473  0.00  0.00    +0.159 HD
ATOM     10  H   UNL     1       4.579  -0.670   1.586  0.00  0.00    +0.151 HD
BRANCH   8  11
ATOM     11  C   UNL     1       4.786  -1.466   3.544  0.00  0.00    +0.037 C 
ATOM     12  C   UNL     1       4.396  -2.921   3.812  0.00  0.00    +0.029 C 
ATOM     13  C   UNL     1       5.136  -3.428   5.051  0.00  0.00    -0.008 C 
ATOM     14  C   UNL     1       6.645  -3.340   4.816  0.00  0.00    +0.007 C 
ATOM     15  C   UNL     1       7.036  -1.885   4.548  0.00  0.00    -0.008 C 
ATOM     16  C   UNL     1       6.296  -1.378   3.308  0.00  0.00    +0.029 C 
ATOM     17  C   UNL     1       6.657  -1.025   5.755  0.00  0.00    +0.007 C 
ATOM     18  C   UNL     1       5.148  -1.113   5.991  0.00  0.00    -0.008 C 
ATOM     19  C   UNL     1       4.757  -2.567   6.258  0.00  0.00    +0.007 C 
ATOM     20  C   UNL     1       4.408  -0.606   4.751  0.00  0.00    +0.029 C 
ENDBRANCH   8  11
ENDBRANCH   2   3
BRANCH   2  21
ATOM     21  S   UNL     1      -1.700  -0.632   0.015  0.00  0.00    -0.074 S 
BRANCH  21  22
ATOM     22  C   UNL     1      -2.365  -0.093  -1.525  0.00  0.00    +0.192 A 
ATOM     23  N   UNL     1      -1.736   0.597  -2.448  0.00  0.00    -0.122 NA
ATOM     24  N   UNL     1      -2.522   0.816  -3.441  0.00  0.00    -0.133 NA
ATOM     25  C   UNL     1      -3.689   0.283  -3.213  0.00  0.00    +0.137 A 
ATOM     26  N   UNL     1      -3.629  -0.320  -1.988  0.00  0.00    -0.305 N 
BRANCH  25  27
ATOM     27  C   UNL     1      -4.882   0.320  -4.133  0.00  0.00    +0.057 C 
ATOM     28  C   UNL     1      -4.669   0.869  -5.546  0.00  0.00    +0.012 C 
ATOM     29  C   UNL     1      -5.440   1.693  -4.513  0.00  0.00    +0.012 C 
ENDBRANCH  25  27
BRANCH  26  30
ATOM     30  C   UNL     1      -4.700  -1.055  -1.310  0.00  0.00    +0.135 C 
BRANCH  30  31
ATOM     31  C   UNL     1      -5.520  -0.088  -0.454  0.00  0.00    +0.117 C 
BRANCH  31  32
ATOM     32  C   UNL     1      -6.622  -0.843   0.243  0.00  0.00    +0.212 C 
ATOM     33  O   UNL     1      -6.739  -2.038   0.072  0.00  0.00    -0.276 OA
ATOM     34  N   UNL     1      -7.476  -0.192   1.056  0.00  0.00    -0.329 N 
ATOM     35  H   UNL     1      -7.382   0.764   1.193  0.00  0.00    +0.145 HD
ATOM     36  H   UNL     1      -8.185  -0.678   1.505  0.00  0.00    +0.145 HD
ENDBRANCH  31  32
ENDBRANCH  30  31
ENDBRANCH  26  30
ENDBRANCH  21  22
ENDBRANCH   2  21
TORSDOF 8
