REMARK  Name = ZINC40473520
REMARK  6 active torsions:
REMARK  status: ('A' for Active; 'I' for Inactive)
REMARK    1  A    between atoms: C_1  and  C_2
REMARK    2  A    between atoms: C_2  and  C_3
REMARK    3  A    between atoms: C_2  and  C_4
REMARK    4  A    between atoms: C_4  and  C_6
REMARK    5  A    between atoms: C_4  and  N_22
REMARK    6  A    between atoms: C_10  and  C_19
REMARK                            x       y       z     vdW  Elec       q    Type
REMARK                         _______ _______ _______ _____ _____    ______ ____
ROOT
ATOM      1  C   UNL     1      -1.379  -2.148  -0.048  0.00  0.00    +0.206 C 
ATOM      2  O   UNL     1      -1.323  -0.939  -0.128  0.00  0.00    -0.277 OA
ATOM      3  N   UNL     1      -1.244  -2.904  -1.155  0.00  0.00    -0.265 N 
ATOM      4  C   UNL     1      -1.438  -4.363  -1.111  0.00  0.00    +0.170 C 
ATOM      5  C   UNL     1      -2.236  -4.763  -2.360  0.00  0.00    +0.303 C 
ATOM      6  O   UNL     1      -1.512  -4.350  -3.521  0.00  0.00    -0.474 OA
ATOM      7  C   UNL     1      -1.058  -3.070  -3.562  0.00  0.00    +0.143 A 
ATOM      8  C   UNL     1      -0.919  -2.326  -2.395  0.00  0.00    +0.078 A 
ATOM      9  C   UNL     1      -0.456  -1.021  -2.453  0.00  0.00    +0.027 A 
ATOM     10  C   UNL     1      -0.140  -0.457  -3.675  0.00  0.00    +0.002 A 
ATOM     11  C   UNL     1      -0.286  -1.192  -4.837  0.00  0.00    +0.004 A 
ATOM     12  C   UNL     1      -0.734  -2.495  -4.782  0.00  0.00    +0.047 A 
ENDROOT
BRANCH   5  13
ATOM     13  C   UNL     1      -2.422  -6.258  -2.383  0.00  0.00    +0.397 C 
ATOM     14  O   UNL     1      -3.087  -6.803  -1.518  0.00  0.00    -0.242 OA
ATOM     15  O   UNL     1      -1.908  -6.923  -3.266  0.00  0.00    -0.242 OA
ENDBRANCH   5  13
BRANCH   1  16
ATOM     16  C   UNL     1      -1.600  -2.805   1.290  0.00  0.00    +0.016 C 
BRANCH  16  17
ATOM     17  N   UNL     1      -1.107  -1.922   2.356  0.00  0.00    +0.386 N 
ATOM     18  H   UNL     1      -1.255  -2.362   3.252  0.00  0.00    -0.089 HD
ATOM     19  H   UNL     1      -0.121  -1.752   2.224  0.00  0.00    -0.089 HD
ATOM     20  H   UNL     1      -1.607  -1.046   2.325  0.00  0.00    -0.089 HD
ENDBRANCH  16  17
BRANCH  16  22
ATOM     21  C   UNL     1      -3.306  -3.848   2.788  0.00  0.00    +0.006 C 
ATOM     22  C   UNL     1      -3.094  -3.062   1.492  0.00  0.00    -0.023 C 
ATOM     23  C   UNL     1      -3.835  -1.726   1.578  0.00  0.00    +0.006 C 
ENDBRANCH  16  22
ENDBRANCH   1  16
TORSDOF 4
