REMARK  Name = ZINC51001371
REMARK  9 active torsions:
REMARK  status: ('A' for Active; 'I' for Inactive)
REMARK    1  A    between atoms: C_1  and  C_2
REMARK    2  A    between atoms: C_2  and  N_3
REMARK    3  A    between atoms: C_5  and  C_12
REMARK    4  A    between atoms: C_7  and  C_8
REMARK    5  A    between atoms: C_8  and  C_9
REMARK    6  A    between atoms: C_8  and  C_10
REMARK    7  A    between atoms: C_8  and  C_11
REMARK    8  A    between atoms: C_17  and  O_18
REMARK    9  A    between atoms: O_18  and  C_19
REMARK                            x       y       z     vdW  Elec       q    Type
REMARK                         _______ _______ _______ _____ _____    ______ ____
ROOT
ATOM      1  N   UNL     1       0.666  -0.448  -1.445  0.00  0.00    -0.278 N 
ATOM      2  C   UNL     1       0.064  -0.602  -2.676  0.00  0.00    +0.101 C 
ATOM      3  C   UNL     1       1.171  -1.106  -3.581  0.00  0.00    +0.176 C 
ATOM      4  N   UNL     1       2.343  -1.183  -2.694  0.00  0.00    -0.362 N 
ATOM      5  C   UNL     1       1.985  -0.794  -1.522  0.00  0.00    +0.082 C 
ATOM      6  N   UNL     1      -1.168  -0.368  -2.988  0.00  0.00    -0.388 N 
ATOM      7  H   UNL     1      -1.787  -0.044  -2.315  0.00  0.00    +0.157 HD
ATOM      8  H   UNL     1       3.233  -1.472  -2.951  0.00  0.00    +0.162 HD
ATOM      9  H   UNL     1      -1.475  -0.516  -3.897  0.00  0.00    +0.157 HD
ENDROOT
BRANCH   3  10
ATOM     10  C   UNL     1       0.830  -2.470  -4.125  0.00  0.00    +0.025 A 
ATOM     11  C   UNL     1       1.293  -3.604  -3.487  0.00  0.00    +0.025 A 
ATOM     12  C   UNL     1       0.980  -4.856  -3.986  0.00  0.00    +0.018 A 
ATOM     13  C   UNL     1       0.203  -4.974  -5.124  0.00  0.00    +0.019 A 
ATOM     14  C   UNL     1      -0.262  -3.842  -5.765  0.00  0.00    +0.047 A 
ATOM     15  C   UNL     1       0.046  -2.586  -5.263  0.00  0.00    +0.126 A 
ATOM     16 BR   UNL     1       1.615  -6.407  -3.110  0.00  0.00    -0.050 Br
BRANCH  15  17
ATOM     17  O   UNL     1      -0.414  -1.471  -5.889  0.00  0.00    -0.495 OA
ATOM     18  C   UNL     1      -1.216  -1.667  -7.056  0.00  0.00    +0.277 C 
ENDBRANCH  15  17
ENDBRANCH   3  10
BRANCH   5  19
ATOM     19  C   UNL     1       2.927  -0.733  -0.347  0.00  0.00    +0.016 C 
ATOM     20  C   UNL     1       2.513  -1.776   0.693  0.00  0.00    +0.018 C 
ATOM     21  C   UNL     1       4.353  -1.022  -0.820  0.00  0.00    +0.018 C 
ATOM     22  C   UNL     1       2.870   0.662   0.280  0.00  0.00    +0.018 C 
ENDBRANCH   5  19
BRANCH   1  24
ATOM     23  C   UNL     1      -0.039   1.553  -0.229  0.00  0.00    +0.025 C 
ATOM     24  C   UNL     1      -0.009   0.023  -0.234  0.00  0.00    +0.110 C 
ENDBRANCH   1  24
TORSDOF 4
