REMARK  Name = ZINC05051895
REMARK  7 active torsions:
REMARK  status: ('A' for Active; 'I' for Inactive)
REMARK    1  A    between atoms: C_1  and  C_2
REMARK    2  A    between atoms: C_2  and  C_3
REMARK    3  A    between atoms: C_2  and  C_4
REMARK    4  A    between atoms: C_2  and  C_5
REMARK    5  A    between atoms: C_12  and  N_25
REMARK    6  A    between atoms: C_13  and  C_23
REMARK    7  A    between atoms: C_14  and  C_16
REMARK                            x       y       z     vdW  Elec       q    Type
REMARK                         _______ _______ _______ _____ _____    ______ ____
ROOT
ATOM      1  C   UNL     1       0.914  -0.335  -1.938  0.00  0.00    +0.049 A 
ATOM      2  C   UNL     1       1.126  -1.659  -1.913  0.00  0.00    +0.050 A 
ATOM      3  C   UNL     1       1.999  -1.984  -2.975  0.00  0.00    +0.245 A 
ATOM      4  N   UNL     1       2.290  -0.884  -3.607  0.00  0.00    -0.135 NA
ATOM      5  N   UNL     1       1.615   0.173  -2.977  0.00  0.00    -0.277 N 
ATOM      6  H   UNL     1       1.648   1.107  -3.241  0.00  0.00    +0.189 HD
ATOM      7  O   UNL     1       2.406  -3.260  -3.209  0.00  0.00    -0.421 OA
ATOM      8  C   UNL     1       2.175  -4.172  -2.243  0.00  0.00    +0.201 C 
ATOM      9  C   UNL     1       1.354  -3.980  -1.190  0.00  0.00    +0.098 C 
ATOM     10  C   UNL     1       0.584  -2.703  -0.970  0.00  0.00    +0.101 C 
ENDROOT
BRANCH  10  11
ATOM     11  C   UNL     1      -0.877  -2.935  -1.254  0.00  0.00    -0.032 A 
ATOM     12  C   UNL     1      -1.306  -3.127  -2.554  0.00  0.00    +0.005 A 
ATOM     13  C   UNL     1      -2.647  -3.341  -2.817  0.00  0.00    +0.003 A 
ATOM     14  C   UNL     1      -3.560  -3.362  -1.779  0.00  0.00    +0.038 A 
ATOM     15  C   UNL     1      -3.131  -3.169  -0.477  0.00  0.00    +0.124 A 
ATOM     16  C   UNL     1      -1.788  -2.962  -0.214  0.00  0.00    +0.043 A 
ATOM     17  F   UNL     1      -4.023  -3.189   0.538  0.00  0.00    -0.205 F 
ENDBRANCH  10  11
BRANCH   1  19
ATOM     18  C   UNL     1       0.199   1.942  -1.263  0.00  0.00    +0.017 C 
ATOM     19  C   UNL     1       0.046   0.445  -0.984  0.00  0.00    +0.004 C 
ATOM     20  C   UNL     1       0.474   0.148   0.454  0.00  0.00    +0.017 C 
ATOM     21  C   UNL     1      -1.416   0.037  -1.175  0.00  0.00    +0.017 C 
ENDBRANCH   1  19
BRANCH   8  22
ATOM     22  N   UNL     1       2.819  -5.380  -2.339  0.00  0.00    -0.328 N 
ATOM     23  H   UNL     1       3.417  -5.554  -3.083  0.00  0.00    +0.145 HD
ATOM     24  H   UNL     1       2.677  -6.061  -1.662  0.00  0.00    +0.145 HD
ENDBRANCH   8  22
BRANCH   9  25
ATOM     25  C   UNL     1       1.207  -5.039  -0.237  0.00  0.00    +0.101 C 
ATOM     26  N   UNL     1       1.091  -5.878   0.520  0.00  0.00    -0.191 NA
ENDBRANCH   9  25
TORSDOF 4
