REMARK  Name = ZINC05664543
REMARK  7 active torsions:
REMARK  status: ('A' for Active; 'I' for Inactive)
REMARK    1  A    between atoms: C_1  and  C_2
REMARK    2  A    between atoms: C_2  and  C_4
REMARK    3  A    between atoms: C_2  and  O_11
REMARK    4  A    between atoms: N_9  and  C_10
REMARK    5  A    between atoms: O_11  and  C_12
REMARK    6  A    between atoms: C_12  and  C_14
REMARK    7  A    between atoms: C_16  and  C_24
REMARK                            x       y       z     vdW  Elec       q    Type
REMARK                         _______ _______ _______ _____ _____    ______ ____
ROOT
ATOM      1  C   UNL     1      -0.008  -0.013  -0.167  0.00  0.00    +0.070 A 
ATOM      2  C   UNL     1      -1.178  -0.752  -0.054  0.00  0.00    +0.044 A 
ATOM      3  C   UNL     1      -1.102  -2.144   0.100  0.00  0.00    +0.074 A 
ATOM      4  N   UNL     1       0.048  -2.785   0.142  0.00  0.00    -0.247 NA
ATOM      5  C   UNL     1       1.219  -2.156   0.042  0.00  0.00    +0.072 A 
ATOM      6  C   UNL     1       1.256  -0.748  -0.122  0.00  0.00    +0.014 A 
ATOM      7  C   UNL     1       2.487  -0.092  -0.233  0.00  0.00    +0.011 A 
ATOM      8  C   UNL     1       3.642  -0.815  -0.187  0.00  0.00    +0.001 A 
ATOM      9  C   UNL     1       3.612  -2.200  -0.030  0.00  0.00    +0.002 A 
ATOM     10  C   UNL     1       2.432  -2.868   0.090  0.00  0.00    +0.028 A 
ENDROOT
BRANCH   3  11
ATOM     11  C   UNL     1      -2.359  -2.921   0.219  0.00  0.00    +0.019 A 
ATOM     12  C   UNL     1      -3.358  -2.505   1.097  0.00  0.00    +0.011 A 
ATOM     13  C   UNL     1      -4.527  -3.232   1.203  0.00  0.00    +0.001 A 
ATOM     14  C   UNL     1      -4.707  -4.372   0.440  0.00  0.00    +0.001 A 
ATOM     15  C   UNL     1      -3.720  -4.790  -0.433  0.00  0.00    +0.020 A 
ATOM     16  C   UNL     1      -2.548  -4.069  -0.552  0.00  0.00    +0.050 A 
ATOM     17 CL   UNL     1      -1.312  -4.591  -1.653  0.00  0.00    -0.083 Cl
ENDBRANCH   3  11
BRANCH   1  18
ATOM     18  C   UNL     1      -0.039   1.455  -0.331  0.00  0.00    +0.341 C 
ATOM     19  O   UNL     1       0.997   2.089  -0.324  0.00  0.00    -0.245 OA
BRANCH  18  20
ATOM     20  O   UNL     1      -1.216   2.091  -0.494  0.00  0.00    -0.449 OA
BRANCH  20  22
ATOM     21  C   UNL     1      -1.267   4.198   0.726  0.00  0.00    +0.062 C 
ATOM     22  C   UNL     1      -1.170   3.534  -0.649  0.00  0.00    +0.259 C 
BRANCH  22  23
ATOM     23  C   UNL     1      -2.324   3.983  -1.507  0.00  0.00    +0.261 C 
ATOM     24  O   UNL     1      -3.159   3.182  -1.869  0.00  0.00    -0.271 OA
ATOM     25  N   UNL     1      -2.429   5.277  -1.872  0.00  0.00    -0.237 N 
ATOM     26  C   UNL     1      -3.462   5.679  -2.639  0.00  0.00    +0.306 C 
ATOM     27  O   UNL     1      -4.298   4.875  -3.002  0.00  0.00    -0.252 OA
ATOM     28  N   UNL     1      -3.567   6.972  -3.004  0.00  0.00    -0.302 N 
ATOM     29  C   UNL     1      -4.689   7.409  -3.838  0.00  0.00    +0.129 C 
ATOM     30  H   UNL     1      -1.762   5.918  -1.582  0.00  0.00    +0.159 HD
ATOM     31  H   UNL     1      -2.899   7.613  -2.714  0.00  0.00    +0.150 HD
ENDBRANCH  22  23
ENDBRANCH  20  22
ENDBRANCH  18  20
ENDBRANCH   1  18
TORSDOF 5
