REMARK  Name = ZINC65839896
REMARK  9 active torsions:
REMARK  status: ('A' for Active; 'I' for Inactive)
REMARK    1  A    between atoms: C_1  and  C_2
REMARK    2  A    between atoms: C_2  and  N_3
REMARK    3  A    between atoms: N_3  and  C_4
REMARK    4  A    between atoms: C_4  and  C_5
REMARK    5  A    between atoms: C_4  and  C_6
REMARK    6  A    between atoms: C_9  and  C_12
REMARK    7  A    between atoms: C_14  and  C_16
REMARK    8  A    between atoms: C_19  and  S_21
REMARK    9  A    between atoms: S_21  and  N_24
REMARK                            x       y       z     vdW  Elec       q    Type
REMARK                         _______ _______ _______ _____ _____    ______ ____
ROOT
ATOM      1  N   UNL     1      -1.340  -0.486  -0.010  0.00  0.00    -0.288 N 
ATOM      2  C   UNL     1      -1.897  -0.782   1.181  0.00  0.00    +0.282 C 
ATOM      3  O   UNL     1      -3.006  -1.281   1.228  0.00  0.00    -0.267 OA
ENDROOT
BRANCH   2   4
ATOM      4  C   UNL     1      -1.165  -0.504   2.421  0.00  0.00    +0.192 A 
ATOM      5  C   UNL     1      -1.563  -0.848   3.682  0.00  0.00    +0.057 A 
ATOM      6  C   UNL     1      -0.567  -0.390   4.558  0.00  0.00    +0.072 A 
ATOM      7  C   UNL     1       0.383   0.207   3.804  0.00  0.00    +0.258 A 
ATOM      8  O   UNL     1       0.021   0.131   2.517  0.00  0.00    -0.432 OA
BRANCH   7   9
ATOM      9  S   UNL     1       1.856   0.956   4.414  0.00  0.00    +0.089 S 
ATOM     10  O   UNL     1       2.262   1.907   3.439  0.00  0.00    -0.150 OA
ATOM     11  O   UNL     1       1.602   1.312   5.766  0.00  0.00    -0.150 OA
BRANCH   9  12
ATOM     12  N   UNL     1       3.025  -0.217   4.446  0.00  0.00    -0.201 NA
ATOM     13  H   UNL     1       2.815  -1.119   4.156  0.00  0.00    +0.144 HD
ATOM     14  H   UNL     1       3.919  -0.003   4.754  0.00  0.00    +0.144 HD
ENDBRANCH   9  12
ENDBRANCH   7   9
ENDBRANCH   2   4
BRANCH   1  16
ATOM     15  C   UNL     1       0.034   1.531   0.138  0.00  0.00    +0.024 C 
ATOM     16  C   UNL     1       0.035   0.016  -0.072  0.00  0.00    +0.105 C 
ENDBRANCH   1  16
BRANCH   1  17
ATOM     17  C   UNL     1      -2.110  -0.666  -1.243  0.00  0.00    +0.103 C 
ATOM     18  C   UNL     1      -2.162   0.657  -2.010  0.00  0.00    +0.033 C 
BRANCH  17  19
ATOM     19  C   UNL     1      -1.451  -1.717  -2.099  0.00  0.00    -0.027 A 
ATOM     20  C   UNL     1      -0.774  -2.766  -1.501  0.00  0.00    +0.007 A 
ATOM     21  C   UNL     1      -0.168  -3.731  -2.278  0.00  0.00    +0.019 A 
ATOM     22  C   UNL     1      -0.239  -3.649  -3.670  0.00  0.00    +0.052 A 
ATOM     23  C   UNL     1      -0.924  -2.588  -4.266  0.00  0.00    +0.019 A 
ATOM     24  C   UNL     1      -1.530  -1.632  -3.477  0.00  0.00    +0.007 A 
BRANCH  22  25
ATOM     25  C   UNL     1       0.388  -4.647  -4.483  0.00  0.00    +0.099 C 
ATOM     26  N   UNL     1       0.886  -5.439  -5.128  0.00  0.00    -0.191 NA
ENDBRANCH  22  25
ENDBRANCH  17  19
ENDBRANCH   1  17
TORSDOF 7
