REMARK  Name = ZINC65919143
REMARK  8 active torsions:
REMARK  status: ('A' for Active; 'I' for Inactive)
REMARK    1  A    between atoms: C_1  and  C_2
REMARK    2  A    between atoms: C_2  and  C_3
REMARK    3  A    between atoms: C_3  and  C_4
REMARK    4  A    between atoms: C_4  and  C_5
REMARK    5  A    between atoms: C_4  and  N_6
REMARK    6  A    between atoms: C_8  and  C_12
REMARK    7  A    between atoms: N_14  and  N_15
REMARK    8  A    between atoms: N_18  and  C_19
REMARK                            x       y       z     vdW  Elec       q    Type
REMARK                         _______ _______ _______ _____ _____    ______ ____
ROOT
ATOM      1  C   UNL     1      -3.660  -4.160   0.190  0.00  0.00    +0.234 C 
ATOM      2  O   UNL     1      -3.576  -3.793  -0.964  0.00  0.00    -0.274 OA
ATOM      3  N   UNL     1      -4.814  -4.685   0.647  0.00  0.00    -0.233 N 
ATOM      4  H   UNL     1      -4.881  -4.978   1.569  0.00  0.00    +0.173 HD
ENDROOT
BRANCH   1   7
ATOM      5  N   UNL     1      -0.605  -2.548   1.364  0.00  0.00    -0.298 N 
ATOM      6  C   UNL     1      -1.269  -3.404   0.373  0.00  0.00    +0.121 C 
ATOM      7  C   UNL     1      -2.475  -4.029   1.110  0.00  0.00    +0.102 C 
ATOM      8  C   UNL     1      -2.746  -2.981   2.215  0.00  0.00    +0.110 C 
ATOM      9  C   UNL     1      -1.411  -2.295   2.409  0.00  0.00    +0.217 C 
ATOM     10  O   UNL     1      -1.114  -1.613   3.367  0.00  0.00    -0.276 OA
BRANCH   5  11
ATOM     11  C   UNL     1       0.763  -2.041   1.233  0.00  0.00    +0.073 C 
ATOM     12  C   UNL     1       1.608  -2.546   2.404  0.00  0.00    +0.028 C 
BRANCH  11  13
ATOM     13  C   UNL     1       0.742  -0.511   1.242  0.00  0.00    +0.022 C 
BRANCH  13  15
ATOM     14  C   UNL     1      -0.019   1.526   0.010  0.00  0.00    +0.004 C 
ATOM     15  C   UNL     1       0.002  -0.004   0.002  0.00  0.00    -0.002 C 
ENDBRANCH  13  15
ENDBRANCH  11  13
ENDBRANCH   5  11
ENDBRANCH   1   7
BRANCH   3  16
ATOM     16  N   UNL     1      -5.917  -4.808  -0.209  0.00  0.00    -0.218 N 
ATOM     17  C   UNL     1      -7.070  -5.332   0.249  0.00  0.00    +0.316 C 
ATOM     18  O   UNL     1      -8.027  -5.439  -0.494  0.00  0.00    -0.251 OA
ATOM     19  N   UNL     1      -7.164  -5.740   1.530  0.00  0.00    -0.295 N 
ATOM     20  H   UNL     1      -5.849  -4.514  -1.131  0.00  0.00    +0.174 HD
ATOM     21  H   UNL     1      -6.400  -5.655   2.123  0.00  0.00    +0.151 HD
BRANCH  19  22
ATOM     22  C   UNL     1      -8.418  -6.311   2.028  0.00  0.00    +0.074 C 
ATOM     23  C   UNL     1      -8.445  -7.831   1.771  0.00  0.00    +0.022 C 
ATOM     24  C   UNL     1      -7.950  -8.451   3.101  0.00  0.00    +0.002 C 
ATOM     25  C   UNL     1      -8.598  -7.533   4.167  0.00  0.00    +0.002 C 
ATOM     26  C   UNL     1      -8.515  -6.121   3.552  0.00  0.00    +0.022 C 
ENDBRANCH  19  22
ENDBRANCH   3  16
TORSDOF 6
