REMARK  Name = ZINC20611539
REMARK  7 active torsions:
REMARK  status: ('A' for Active; 'I' for Inactive)
REMARK    1  A    between atoms: C_1  and  C_2
REMARK    2  A    between atoms: C_2  and  O_3
REMARK    3  A    between atoms: O_3  and  C_4
REMARK    4  A    between atoms: C_4  and  C_6
REMARK    5  A    between atoms: C_9  and  N_12
REMARK    6  A    between atoms: C_17  and  C_35
REMARK    7  A    between atoms: C_35  and  C_36
REMARK                            x       y       z     vdW  Elec       q    Type
REMARK                         _______ _______ _______ _____ _____    ______ ____
ROOT
ATOM      1  N   UNL     1      -6.683  -4.065   0.045  0.00  0.00    -0.210 N 
ATOM      2  C   UNL     1      -7.789  -3.320   0.147  0.00  0.00    +0.232 C 
ATOM      3  O   UNL     1      -7.814  -2.111   0.237  0.00  0.00    -0.274 OA
ATOM      4  C   UNL     1      -9.004  -4.220   0.133  0.00  0.00    +0.108 C 
ATOM      5  C   UNL     1      -9.803  -3.978  -1.165  0.00  0.00    +0.076 C 
ATOM      6  N   UNL     1      -9.182  -4.881  -2.170  0.00  0.00    -0.295 NA
ATOM      7  C   UNL     1      -8.873  -6.108  -1.412  0.00  0.00    +0.136 C 
ATOM      8  C   UNL     1      -8.395  -5.642  -0.014  0.00  0.00    +0.123 C 
ATOM      9  C   UNL     1      -6.905  -5.380  -0.053  0.00  0.00    +0.233 C 
ATOM     10  O   UNL     1      -6.047  -6.230  -0.154  0.00  0.00    -0.274 OA
ATOM     11  C   UNL     1     -10.070  -7.009  -1.307  0.00  0.00    +0.005 A 
ATOM     12  C   UNL     1     -11.334  -6.849  -0.785  0.00  0.00    +0.027 A 
ATOM     13  C   UNL     1     -12.244  -7.891  -0.839  0.00  0.00    +0.041 A 
ATOM     14  C   UNL     1     -11.878  -9.094  -1.420  0.00  0.00    +0.022 A 
ATOM     15  C   UNL     1     -10.613  -9.258  -1.943  0.00  0.00    +0.025 A 
ATOM     16  C   UNL     1      -9.693  -8.213  -1.893  0.00  0.00    +0.039 A 
ATOM     17  N   UNL     1      -8.374  -8.136  -2.349  0.00  0.00    -0.283 N 
ATOM     18  C   UNL     1      -7.822  -6.932  -2.105  0.00  0.00    +0.243 C 
ATOM     19  O   UNL     1      -6.697  -6.580  -2.390  0.00  0.00    -0.273 OA
ATOM     20 CL   UNL     1     -13.838  -7.691  -0.181  0.00  0.00    -0.084 Cl
ATOM     21  H   UNL     1      -9.821  -5.075  -2.926  0.00  0.00    +0.124 HD
ATOM     22  H   UNL     1      -7.910  -8.866  -2.789  0.00  0.00    +0.155 HD
ENDROOT
BRANCH   1  26
ATOM     23  C   UNL     1      -2.853  -2.418   0.016  0.00  0.00    +0.059 A 
ATOM     24  C   UNL     1      -3.726  -2.179  -1.048  0.00  0.00    +0.017 A 
ATOM     25  C   UNL     1      -4.990  -2.724  -1.036  0.00  0.00    +0.025 A 
ATOM     26  C   UNL     1      -5.398  -3.513   0.035  0.00  0.00    +0.044 A 
ATOM     27  C   UNL     1      -4.532  -3.754   1.096  0.00  0.00    +0.025 A 
ATOM     28  C   UNL     1      -3.264  -3.216   1.087  0.00  0.00    +0.017 A 
BRANCH  23  29
ATOM     29  C   UNL     1      -1.498  -1.836   0.006  0.00  0.00    +0.339 C 
ATOM     30  O   UNL     1      -0.737  -2.049   0.929  0.00  0.00    -0.245 OA
BRANCH  29  31
ATOM     31  O   UNL     1      -1.103  -1.066  -1.028  0.00  0.00    -0.461 OA
BRANCH  31  33
ATOM     32  C   UNL     1       0.489   0.305  -2.222  0.00  0.00    +0.048 C 
ATOM     33  C   UNL     1       0.223  -0.535  -0.972  0.00  0.00    +0.229 C 
ENDBRANCH  31  33
ENDBRANCH  29  31
ENDBRANCH  23  29
ENDBRANCH   1  26
BRANCH   5  34
ATOM     34  C   UNL     1      -9.674  -2.519  -1.606  0.00  0.00    +0.115 C 
BRANCH  34  35
ATOM     35  C   UNL     1     -10.558  -2.276  -2.802  0.00  0.00    +0.212 C 
ATOM     36  O   UNL     1     -11.226  -3.180  -3.257  0.00  0.00    -0.276 OA
ATOM     37  N   UNL     1     -10.607  -1.052  -3.366  0.00  0.00    -0.329 N 
ATOM     38  H   UNL     1     -10.073  -0.329  -3.002  0.00  0.00    +0.145 HD
ATOM     39  H   UNL     1     -11.176  -0.896  -4.136  0.00  0.00    +0.145 HD
ENDBRANCH  34  35
ENDBRANCH   5  34
TORSDOF 6
