REMARK  Name = ZINC24140376
REMARK  9 active torsions:
REMARK  status: ('A' for Active; 'I' for Inactive)
REMARK    1  A    between atoms: C_1  and  C_2
REMARK    2  A    between atoms: C_2  and  C_3
REMARK    3  A    between atoms: C_3  and  C_28
REMARK    4  A    between atoms: N_6  and  N_10
REMARK    5  A    between atoms: C_11  and  C_13
REMARK    6  A    between atoms: C_13  and  S_14
REMARK    7  A    between atoms: S_14  and  C_15
REMARK    8  A    between atoms: C_18  and  C_21
REMARK    9  A    between atoms: N_19  and  N_20
REMARK                            x       y       z     vdW  Elec       q    Type
REMARK                         _______ _______ _______ _____ _____    ______ ____
ROOT
ATOM      1  N   UNL     1      -3.352   2.644  -3.471  0.00  0.00    -0.223 N 
ATOM      2  C   UNL     1      -3.428   1.412  -4.013  0.00  0.00    +0.240 C 
ATOM      3  O   UNL     1      -2.720   0.521  -3.593  0.00  0.00    -0.273 OA
ATOM      4  H   UNL     1      -3.994   3.453  -3.852  0.00  0.00    +0.174 HD
ENDROOT
BRANCH   1   8
ATOM      5  C   UNL     1      -0.668   3.596  -1.186  0.00  0.00    +0.139 C 
ATOM      6  C   UNL     1      -1.298   3.573  -2.565  0.00  0.00    +0.268 C 
ATOM      7  O   UNL     1      -0.854   4.061  -3.581  0.00  0.00    -0.271 OA
ATOM      8  N   UNL     1      -2.455   2.895  -2.425  0.00  0.00    -0.137 N 
ATOM      9  C   UNL     1      -2.641   2.492  -1.163  0.00  0.00    +0.327 C 
ATOM     10  O   UNL     1      -3.612   1.863  -0.791  0.00  0.00    -0.251 OA
ATOM     11  N   UNL     1      -1.633   2.860  -0.352  0.00  0.00    -0.280 N 
ATOM     12  H   UNL     1      -1.434   2.715   0.721  0.00  0.00    +0.152 HD
BRANCH   5  13
ATOM     13  C   UNL     1       0.665   2.893  -1.201  0.00  0.00    -0.015 A 
ATOM     14  C   UNL     1       1.820   3.606  -1.465  0.00  0.00    +0.006 A 
ATOM     15  C   UNL     1       3.041   2.959  -1.486  0.00  0.00    +0.000 A 
ATOM     16  C   UNL     1       3.109   1.600  -1.241  0.00  0.00    +0.000 A 
ATOM     17  C   UNL     1       1.954   0.888  -0.976  0.00  0.00    +0.000 A 
ATOM     18  C   UNL     1       0.732   1.534  -0.957  0.00  0.00    +0.006 A 
ENDBRANCH   5  13
BRANCH   5  20
ATOM     19  C   UNL     1      -1.889   5.686  -0.567  0.00  0.00    +0.007 C 
ATOM     20  C   UNL     1      -0.510   5.035  -0.691  0.00  0.00    +0.037 C 
ENDBRANCH   5  20
ENDBRANCH   1   8
BRANCH   2  21
ATOM     21  C   UNL     1      -4.393   1.142  -5.138  0.00  0.00    +0.174 C 
BRANCH  21  22
ATOM     22  S   UNL     1      -4.260  -0.591  -5.644  0.00  0.00    -0.075 S 
BRANCH  22  23
ATOM     23  C   UNL     1      -5.460  -0.626  -6.933  0.00  0.00    +0.209 A 
ATOM     24  N   UNL     1      -6.202   0.382  -7.336  0.00  0.00    -0.121 NA
ATOM     25  N   UNL     1      -6.968   0.009  -8.298  0.00  0.00    -0.127 NA
ATOM     26  C   UNL     1      -6.770  -1.262  -8.562  0.00  0.00    +0.182 A 
ATOM     27  N   UNL     1      -5.798  -1.707  -7.696  0.00  0.00    -0.224 N 
BRANCH  26  28
ATOM     28  C   UNL     1      -7.461  -2.062  -9.595  0.00  0.00    +0.021 A 
ATOM     29  C   UNL     1      -7.418  -3.456  -9.545  0.00  0.00    +0.014 A 
ATOM     30  C   UNL     1      -8.069  -4.198 -10.509  0.00  0.00    +0.039 A 
ATOM     31  C   UNL     1      -8.754  -3.562 -11.532  0.00  0.00    +0.123 A 
ATOM     32  C   UNL     1      -8.795  -2.178 -11.589  0.00  0.00    +0.039 A 
ATOM     33  C   UNL     1      -8.152  -1.426 -10.628  0.00  0.00    +0.014 A 
ATOM     34  F   UNL     1      -9.385  -4.294 -12.476  0.00  0.00    -0.205 F 
ENDBRANCH  26  28
BRANCH  27  35
ATOM     35  N   UNL     1      -5.279  -2.968  -7.617  0.00  0.00    -0.295 N 
ATOM     36  H   UNL     1      -5.641  -3.756  -8.294  0.00  0.00    +0.163 HD
ATOM     37  H   UNL     1      -4.500  -3.197  -6.874  0.00  0.00    +0.163 HD
ENDBRANCH  27  35
ENDBRANCH  22  23
ENDBRANCH  21  22
ENDBRANCH   2  21
TORSDOF 8
