REMARK  Name = ZINC39001374
REMARK  6 active torsions:
REMARK  status: ('A' for Active; 'I' for Inactive)
REMARK    1  A    between atoms: C_4  and  C_7
REMARK    2  A    between atoms: C_7  and  C_9
REMARK    3  A    between atoms: C_11  and  N_20
REMARK    4  A    between atoms: C_21  and  C_23
REMARK    5  A    between atoms: C_26  and  C_28
REMARK    6  A    between atoms: C_33  and  O_34
REMARK                            x       y       z     vdW  Elec       q    Type
REMARK                         _______ _______ _______ _____ _____    ______ ____
ROOT
ATOM      1  C   UNL     1       3.716  -2.186  -0.046  0.00  0.00    +0.268 C 
ATOM      2  C   UNL     1       3.522  -2.730  -1.482  0.00  0.00    +0.155 C 
ATOM      3  C   UNL     1       4.955  -2.888  -1.953  0.00  0.00    +0.018 A 
ATOM      4  C   UNL     1       5.502  -3.063  -3.205  0.00  0.00    +0.009 A 
ATOM      5  C   UNL     1       6.874  -3.175  -3.350  0.00  0.00    +0.001 A 
ATOM      6  C   UNL     1       7.690  -3.110  -2.236  0.00  0.00    +0.004 A 
ATOM      7  C   UNL     1       7.143  -2.938  -0.981  0.00  0.00    +0.046 A 
ATOM      8  C   UNL     1       5.763  -2.829  -0.826  0.00  0.00    +0.127 A 
ATOM      9  O   UNL     1       5.020  -2.676   0.310  0.00  0.00    -0.478 OA
ENDROOT
BRANCH   2  10
ATOM     10  N   UNL     1       2.830  -4.021  -1.464  0.00  0.00    -0.299 N 
ATOM     11  C   UNL     1       2.127  -4.424  -2.540  0.00  0.00    +0.261 C 
ATOM     12  O   UNL     1       2.067  -3.715  -3.528  0.00  0.00    -0.269 OA
ATOM     13  H   UNL     1       2.879  -4.586  -0.677  0.00  0.00    +0.150 HD
BRANCH  11  14
ATOM     14  C   UNL     1       1.435  -5.716  -2.522  0.00  0.00    +0.131 C 
ATOM     15  N   UNL     1       1.397  -6.585  -1.546  0.00  0.00    -0.148 NA
ATOM     16  N   UNL     1       0.716  -7.633  -1.799  0.00  0.00    -0.153 NA
ATOM     17  C   UNL     1       0.177  -7.649  -2.997  0.00  0.00    +0.080 C 
ATOM     18  C   UNL     1       0.600  -6.334  -3.632  0.00  0.00    +0.120 C 
BRANCH  17  19
ATOM     19  C   UNL     1      -0.654  -8.699  -3.589  0.00  0.00    +0.040 A 
ATOM     20  C   UNL     1      -1.148  -8.558  -4.894  0.00  0.00    +0.013 A 
ATOM     21  C   UNL     1      -1.929  -9.550  -5.442  0.00  0.00    +0.001 A 
ATOM     22  C   UNL     1      -2.230 -10.690  -4.711  0.00  0.00    +0.004 A 
ATOM     23  C   UNL     1      -1.751 -10.844  -3.425  0.00  0.00    +0.046 A 
ATOM     24  C   UNL     1      -0.959  -9.860  -2.855  0.00  0.00    +0.126 A 
BRANCH  24  25
ATOM     25  O   UNL     1      -0.484 -10.013  -1.593  0.00  0.00    -0.506 OA
ATOM     26  H   UNL     1      -1.070  -9.665  -0.908  0.00  0.00    +0.292 HD
ENDBRANCH  24  25
ENDBRANCH  17  19
ENDBRANCH  11  14
ENDBRANCH   2  10
BRANCH   1  27
ATOM     27  C   UNL     1       3.691  -0.679  -0.038  0.00  0.00    +0.205 C 
ATOM     28  O   UNL     1       4.731  -0.056  -0.045  0.00  0.00    -0.288 OA
BRANCH  27  32
ATOM     29  C   UNL     1      -0.017   1.380   0.010  0.00  0.00    +0.000 A 
ATOM     30  C   UNL     1       1.168   2.095   0.002  0.00  0.00    +0.001 A 
ATOM     31  C   UNL     1       2.377   1.433  -0.013  0.00  0.00    +0.011 A 
ATOM     32  C   UNL     1       2.405   0.035  -0.021  0.00  0.00    +0.021 A 
ATOM     33  C   UNL     1       1.203  -0.681  -0.013  0.00  0.00    +0.011 A 
ATOM     34  C   UNL     1       0.002  -0.004   0.002  0.00  0.00    +0.001 A 
ENDBRANCH  27  32
ENDBRANCH   1  27
TORSDOF 6
