REMARK  Name = ZINC39634838
REMARK  14 active torsions:
REMARK  status: ('A' for Active; 'I' for Inactive)
REMARK    1  A    between atoms: C_1  and  C_2
REMARK    2  A    between atoms: C_4  and  C_7
REMARK    3  A    between atoms: C_8  and  C_13
REMARK    4  A    between atoms: C_9  and  C_12
REMARK    5  A    between atoms: C_17  and  C_26
REMARK    6  A    between atoms: N_28  and  C_29
REMARK    7  A    between atoms: C_29  and  C_30
REMARK    8  A    between atoms: C_30  and  N_31
REMARK    9  A    between atoms: N_31  and  C_32
REMARK   10  A    between atoms: N_31  and  C_35
REMARK   11  A    between atoms: C_32  and  C_33
REMARK   12  A    between atoms: C_32  and  C_34
REMARK   13  A    between atoms: C_35  and  C_36
REMARK   14  A    between atoms: C_35  and  C_37
REMARK                            x       y       z     vdW  Elec       q    Type
REMARK                         _______ _______ _______ _____ _____    ______ ____
ROOT
ATOM      1  C   UNL     1      -2.884  -2.431   0.140  0.00  0.00    +0.252 C 
ATOM      2  O   UNL     1      -2.546  -2.685   1.280  0.00  0.00    -0.270 OA
ATOM      3  N   UNL     1      -2.314  -3.081  -0.894  0.00  0.00    -0.296 N 
ATOM      4  C   UNL     1      -2.587  -2.906  -2.340  0.00  0.00    +0.121 C 
ATOM      5  C   UNL     1      -1.201  -3.008  -3.014  0.00  0.00    +0.100 C 
ATOM      6  C   UNL     1      -0.343  -3.817  -2.027  0.00  0.00    -0.004 C 
ATOM      7  C   UNL     1      -1.267  -4.130  -0.841  0.00  0.00    +0.115 C 
ATOM      8  C   UNL     1       0.846  -2.985  -1.556  0.00  0.00    -0.010 C 
ATOM      9  C   UNL     1       1.715  -3.830  -0.620  0.00  0.00    -0.082 C 
ATOM     10  N   UNL     1       2.180  -5.027  -1.329  0.00  0.00    +0.379 N 
ATOM     11  C   UNL     1       1.035  -5.868  -1.698  0.00  0.00    -0.082 C 
ATOM     12  C   UNL     1       0.137  -5.110  -2.679  0.00  0.00    -0.010 C 
ATOM     13  H   UNL     1       2.675  -4.751  -2.164  0.00  0.00    -0.086 HD
ATOM     14  H   UNL     1       2.802  -5.551  -0.731  0.00  0.00    -0.086 HD
ENDROOT
BRANCH   1  16
ATOM     15  C   UNL     1      -3.703  -0.055  -0.311  0.00  0.00    +0.201 A 
ATOM     16  C   UNL     1      -3.917  -1.411  -0.112  0.00  0.00    +0.108 A 
ATOM     17  C   UNL     1      -5.314  -1.633  -0.195  0.00  0.00    +0.093 A 
ATOM     18  N   UNL     1      -5.893  -0.493  -0.428  0.00  0.00    -0.082 NA
ATOM     19  O   UNL     1      -4.904   0.516  -0.500  0.00  0.00    -0.352 OA
ATOM     20  C   UNL     1      -6.009  -2.962  -0.042  0.00  0.00    +0.070 C 
BRANCH  15  24
ATOM     21  C   UNL     1      -0.191   3.596  -0.587  0.00  0.00    +0.089 C 
ATOM     22  C   UNL     1      -0.861   2.255  -0.434  0.00  0.00    +0.135 A 
ATOM     23  C   UNL     1      -2.183   2.022  -0.508  0.00  0.00    +0.079 A 
ATOM     24  C   UNL     1      -2.396   0.635  -0.310  0.00  0.00    +0.152 A 
ATOM     25  N   UNL     1      -1.224   0.073  -0.124  0.00  0.00    -0.075 NA
ATOM     26  O   UNL     1      -0.239   1.088  -0.205  0.00  0.00    -0.359 OA
ENDBRANCH  15  24
ENDBRANCH   1  16
BRANCH   5  27
ATOM     27  C   UNL     1      -0.615  -1.635  -3.220  0.00  0.00    +0.218 C 
ATOM     28  O   UNL     1      -0.963  -0.715  -2.511  0.00  0.00    -0.275 OA
ATOM     29  N   UNL     1       0.295  -1.430  -4.192  0.00  0.00    -0.317 N 
ATOM     30  H   UNL     1       0.574  -2.166  -4.760  0.00  0.00    +0.149 HD
BRANCH  29  31
ATOM     31  C   UNL     1       0.865  -0.095  -4.393  0.00  0.00    +0.085 C 
BRANCH  31  32
ATOM     32  C   UNL     1       1.865  -0.136  -5.550  0.00  0.00    -0.059 C 
BRANCH  32  33
ATOM     33  N   UNL     1       2.521   1.172  -5.677  0.00  0.00    +0.384 N 
ATOM     34  H   UNL     1       1.820   1.893  -5.759  0.00  0.00    -0.081 HD
BRANCH  33  35
ATOM     35  C   UNL     1       3.345   1.425  -4.487  0.00  0.00    -0.074 C 
ATOM     36  C   UNL     1       4.714   0.765  -4.666  0.00  0.00    -0.014 C 
ATOM     37  C   UNL     1       3.525   2.933  -4.302  0.00  0.00    -0.014 C 
ENDBRANCH  33  35
BRANCH  33  38
ATOM     38  C   UNL     1       3.373   1.179  -6.873  0.00  0.00    -0.074 C 
ATOM     39  C   UNL     1       2.542   0.779  -8.094  0.00  0.00    -0.014 C 
ATOM     40  C   UNL     1       3.945   2.582  -7.084  0.00  0.00    -0.014 C 
ENDBRANCH  33  38
ENDBRANCH  32  33
ENDBRANCH  31  32
ENDBRANCH  29  31
ENDBRANCH   5  27
TORSDOF 8
