REMARK  Name = ZINC00643691
REMARK  10 active torsions:
REMARK  status: ('A' for Active; 'I' for Inactive)
REMARK    1  A    between atoms: C_1  and  C_2
REMARK    2  A    between atoms: C_6  and  C_28
REMARK    3  A    between atoms: C_7  and  O_8
REMARK    4  A    between atoms: O_8  and  C_9
REMARK    5  A    between atoms: C_9  and  C_10
REMARK    6  A    between atoms: N_12  and  C_13
REMARK    7  A    between atoms: C_14  and  C_24
REMARK    8  A    between atoms: C_19  and  C_23
REMARK    9  A    between atoms: C_24  and  O_26
REMARK   10  A    between atoms: O_26  and  C_27
REMARK                            x       y       z     vdW  Elec       q    Type
REMARK                         _______ _______ _______ _____ _____    ______ ____
ROOT
ATOM      1  C   UNL     1      -3.571  -6.203   0.396  0.00  0.00    +0.255 C 
ATOM      2  O   UNL     1      -4.299  -5.323  -0.012  0.00  0.00    -0.272 OA
ATOM      3  N   UNL     1      -2.307  -5.916   0.763  0.00  0.00    -0.277 N 
ATOM      4  H   UNL     1      -1.725  -6.620   1.090  0.00  0.00    +0.155 HD
ENDROOT
BRANCH   3   5
ATOM      5  C   UNL     1      -1.837  -4.615   0.672  0.00  0.00    +0.086 A 
ATOM      6  C   UNL     1      -0.579  -4.127   0.999  0.00  0.00    +0.091 A 
ATOM      7  C   UNL     1      -0.341  -2.706   0.809  0.00  0.00    -0.021 A 
ATOM      8  C   UNL     1      -1.390  -2.006   0.327  0.00  0.00    -0.004 A 
ATOM      9  S   UNL     1      -2.678  -3.203   0.124  0.00  0.00    -0.077 S 
ATOM     10  C   UNL     1      -1.437  -0.538   0.031  0.00  0.00    +0.046 C 
ATOM     11  C   UNL     1       0.002  -0.004   0.002  0.00  0.00    -0.009 C 
ATOM     12  C   UNL     1       0.742  -0.514   1.242  0.00  0.00    +0.008 C 
ATOM     13  C   UNL     1       0.984  -2.020   1.121  0.00  0.00    +0.037 C 
ATOM     14  C   UNL     1      -0.019   1.526   0.010  0.00  0.00    +0.008 C 
BRANCH   6  15
ATOM     15  C   UNL     1       0.468  -5.011   1.515  0.00  0.00    +0.342 C 
ATOM     16  O   UNL     1       0.576  -5.191   2.713  0.00  0.00    -0.245 OA
BRANCH  15  17
ATOM     17  O   UNL     1       1.314  -5.624   0.662  0.00  0.00    -0.464 OA
ATOM     18  C   UNL     1       2.327  -6.486   1.244  0.00  0.00    +0.280 C 
ENDBRANCH  15  17
ENDBRANCH   6  15
ENDBRANCH   3   5
BRANCH   1  19
ATOM     19  C   UNL     1      -4.082  -7.618   0.495  0.00  0.00    +0.324 C 
BRANCH  19  20
ATOM     20  O   UNL     1      -5.439  -7.667   0.052  0.00  0.00    -0.482 OA
BRANCH  20  27
ATOM     21  C   UNL     1      -5.259  -9.266  -2.269  0.00  0.00    +0.047 C 
ATOM     22  C   UNL     1      -5.999  -9.708  -1.033  0.00  0.00    -0.009 A 
ATOM     23  C   UNL     1      -6.620 -10.942  -1.003  0.00  0.00    +0.007 A 
ATOM     24  C   UNL     1      -7.304 -11.346   0.129  0.00  0.00    +0.001 A 
ATOM     25  C   UNL     1      -7.364 -10.518   1.235  0.00  0.00    +0.007 A 
ATOM     26  C   UNL     1      -6.741  -9.286   1.211  0.00  0.00    -0.009 A 
ATOM     27  C   UNL     1      -6.053  -8.879   0.077  0.00  0.00    +0.127 A 
ATOM     28  C   UNL     1      -6.806  -8.385   2.417  0.00  0.00    +0.047 C 
ENDBRANCH  20  27
ENDBRANCH  19  20
ENDBRANCH   1  19
TORSDOF 6
