REMARK  Name = ZINC20806609
REMARK  8 active torsions:
REMARK  status: ('A' for Active; 'I' for Inactive)
REMARK    1  A    between atoms: C_9  and  O_26
REMARK    2  A    between atoms: C_10  and  C_11
REMARK    3  A    between atoms: N_12  and  N_13
REMARK    4  A    between atoms: C_14  and  C_16
REMARK    5  A    between atoms: C_16  and  C_17
REMARK    6  A    between atoms: C_17  and  C_18
REMARK    7  A    between atoms: C_18  and  S_19
REMARK    8  A    between atoms: S_19  and  C_20
REMARK                            x       y       z     vdW  Elec       q    Type
REMARK                         _______ _______ _______ _____ _____    ______ ____
ROOT
ATOM      1  N   UNL     1      -2.572   8.058   0.067  0.00  0.00    -0.207 N 
ATOM      2  C   UNL     1      -2.563   9.406   0.073  0.00  0.00    +0.232 C 
ATOM      3  O   UNL     1      -1.508  10.005   0.066  0.00  0.00    -0.274 OA
ATOM      4  H   UNL     1      -3.529   7.514   0.073  0.00  0.00    +0.177 HD
ENDROOT
BRANCH   1   6
ATOM      5  C   UNL     1      -1.372   6.050   0.045  0.00  0.00    +0.142 C 
ATOM      6  N   UNL     1      -1.364   7.349   0.052  0.00  0.00    -0.188 NA
BRANCH   5  16
ATOM      7  C   UNL     1      -0.013   1.076   0.008  0.00  0.00    +0.001 A 
ATOM      8  C   UNL     1      -1.234   1.745   0.017  0.00  0.00    +0.001 A 
ATOM      9  C   UNL     1      -1.286   3.107   0.031  0.00  0.00    +0.009 A 
ATOM     10  C   UNL     1      -0.096   3.845   0.023  0.00  0.00    -0.006 A 
ATOM     11  C   UNL     1       1.148   3.168   0.008  0.00  0.00    -0.017 A 
ATOM     12  C   UNL     1       1.163   1.762   0.000  0.00  0.00    +0.008 A 
ATOM     13  C   UNL     1       2.341   3.910  -0.000  0.00  0.00    +0.012 A 
ATOM     14  C   UNL     1       2.315   5.269   0.006  0.00  0.00    +0.046 A 
ATOM     15  C   UNL     1       1.117   5.981   0.021  0.00  0.00    +0.126 A 
ATOM     16  C   UNL     1      -0.105   5.306   0.030  0.00  0.00    +0.044 A 
BRANCH  15  17
ATOM     17  O   UNL     1       1.138   7.338   0.027  0.00  0.00    -0.506 OA
ATOM     18  H   UNL     1       0.194   7.903   0.039  0.00  0.00    +0.292 HD
ENDBRANCH  15  17
ENDBRANCH   5  16
ENDBRANCH   1   6
BRANCH   2  19
ATOM     19  C   UNL     1      -3.863  10.168   0.089  0.00  0.00    +0.098 C 
BRANCH  19  20
ATOM     20  C   UNL     1      -3.574  11.670   0.093  0.00  0.00    +0.020 C 
BRANCH  20  21
ATOM     21  C   UNL     1      -4.893  12.444   0.110  0.00  0.00    +0.077 C 
BRANCH  21  22
ATOM     22  S   UNL     1      -4.550  14.225   0.115  0.00  0.00    -0.097 S 
BRANCH  22  23
ATOM     23  C   UNL     1      -6.148  14.967   0.134  0.00  0.00    +0.160 A 
ATOM     24  N   UNL     1      -7.336  14.394   0.143  0.00  0.00    -0.133 NA
ATOM     25  N   UNL     1      -8.471  15.171   0.158  0.00  0.00    -0.125 NA
ATOM     26  C   UNL     1      -8.366  16.486   0.163  0.00  0.00    +0.180 A 
ATOM     27  S   UNL     1      -6.593  16.697   0.153  0.00  0.00    -0.025 S 
ATOM     28  N   UNL     1      -9.368  17.449   0.178  0.00  0.00    -0.336 N 
ATOM     29  H   UNL     1      -9.104  18.517   0.181  0.00  0.00    +0.144 HD
ATOM     30  H   UNL     1     -10.425  17.143   0.188  0.00  0.00    +0.144 HD
ENDBRANCH  22  23
ENDBRANCH  21  22
ENDBRANCH  20  21
ENDBRANCH  19  20
ENDBRANCH   2  19
TORSDOF 8
