REMARK  Name = ZINC09488195
REMARK  11 active torsions:
REMARK  status: ('A' for Active; 'I' for Inactive)
REMARK    1  A    between atoms: C_1  and  C_2
REMARK    2  A    between atoms: C_14  and  C_21
REMARK    3  A    between atoms: N_15  and  C_16
REMARK    4  A    between atoms: C_16  and  C_17
REMARK    5  A    between atoms: C_17  and  C_18
REMARK    6  A    between atoms: C_18  and  O_19
REMARK    7  A    between atoms: O_19  and  C_20
REMARK    8  A    between atoms: N_23  and  C_24
REMARK    9  A    between atoms: C_24  and  C_25
REMARK   10  A    between atoms: C_25  and  C_26
REMARK   11  A    between atoms: C_26  and  N_27
REMARK                            x       y       z     vdW  Elec       q    Type
REMARK                         _______ _______ _______ _____ _____    ______ ____
ROOT
ATOM      1  C   UNL     1      -3.753  -2.532   0.766  0.00  0.00    +0.047 C 
ATOM      2  C   UNL     1      -4.172  -1.719   1.964  0.00  0.00    -0.007 A 
ATOM      3  C   UNL     1      -5.224  -2.120   2.730  0.00  0.00    +0.008 A 
ATOM      4  C   UNL     1      -5.604  -1.354   3.841  0.00  0.00    +0.019 A 
ATOM      5  C   UNL     1      -4.929  -0.225   4.151  0.00  0.00    +0.096 A 
ATOM      6  N   UNL     1      -3.872   0.186   3.391  0.00  0.00    -0.267 N 
ATOM      7  C   UNL     1      -3.478  -0.540   2.299  0.00  0.00    +0.145 A 
ATOM      8  N   UNL     1      -2.452  -0.158   1.544  0.00  0.00    -0.211 NA
ATOM      9  C   UNL     1      -1.762   0.947   1.815  0.00  0.00    +0.149 A 
ATOM     10  C   UNL     1      -2.126   1.733   2.930  0.00  0.00    +0.084 A 
ATOM     11  C   UNL     1      -3.218   1.320   3.728  0.00  0.00    +0.268 A 
ATOM     12  O   UNL     1      -3.562   1.973   4.697  0.00  0.00    -0.267 OA
ATOM     13  C   UNL     1      -1.240   2.825   2.978  0.00  0.00    +0.048 A 
ATOM     14  C   UNL     1      -0.372   2.698   1.934  0.00  0.00    +0.107 A 
ATOM     15  N   UNL     1      -0.693   1.553   1.219  0.00  0.00    -0.321 N 
ENDROOT
BRANCH  14  16
ATOM     16  C   UNL     1       0.720   3.622   1.617  0.00  0.00    +0.261 C 
ATOM     17  O   UNL     1       1.372   3.468   0.600  0.00  0.00    -0.269 OA
ATOM     18  N   UNL     1       1.004   4.642   2.451  0.00  0.00    -0.310 N 
ATOM     19  H   UNL     1       0.535   4.721   3.297  0.00  0.00    +0.149 HD
BRANCH  18  20
ATOM     20  C   UNL     1       2.019   5.631   2.081  0.00  0.00    +0.106 C 
BRANCH  20  21
ATOM     21  C   UNL     1       2.145   6.673   3.193  0.00  0.00    +0.038 C 
BRANCH  21  22
ATOM     22  C   UNL     1       3.205   7.706   2.806  0.00  0.00    +0.109 C 
BRANCH  22  23
ATOM     23  N   UNL     1       3.326   8.705   3.872  0.00  0.00    -0.301 N 
ATOM     24  C   UNL     1       2.546   9.946   3.935  0.00  0.00    +0.108 C 
ATOM     25  C   UNL     1       2.677  10.438   5.396  0.00  0.00    +0.028 C 
ATOM     26  C   UNL     1       4.022   9.805   5.820  0.00  0.00    +0.097 C 
ATOM     27  C   UNL     1       4.170   8.604   4.913  0.00  0.00    +0.216 C 
ATOM     28  O   UNL     1       4.938   7.684   5.098  0.00  0.00    -0.276 OA
ENDBRANCH  22  23
ENDBRANCH  21  22
ENDBRANCH  20  21
ENDBRANCH  18  20
ENDBRANCH  14  16
BRANCH  15  29
ATOM     29  C   UNL     1       0.005   1.070   0.025  0.00  0.00    +0.126 C 
BRANCH  29  30
ATOM     30  C   UNL     1      -0.711   1.584  -1.226  0.00  0.00    +0.050 C 
BRANCH  30  31
ATOM     31  C   UNL     1       0.018   1.080  -2.474  0.00  0.00    +0.161 C 
BRANCH  31  32
ATOM     32  O   UNL     1      -0.650   1.560  -3.642  0.00  0.00    -0.383 OA
ATOM     33  C   UNL     1      -0.047   1.143  -4.869  0.00  0.00    +0.193 C 
ENDBRANCH  31  32
ENDBRANCH  30  31
ENDBRANCH  29  30
ENDBRANCH  15  29
TORSDOF 9
