REMARK  Name = ZINC67438187
REMARK  11 active torsions:
REMARK  status: ('A' for Active; 'I' for Inactive)
REMARK    1  A    between atoms: C_1  and  C_2
REMARK    2  A    between atoms: C_5  and  C_29
REMARK    3  A    between atoms: N_8  and  C_10
REMARK    4  A    between atoms: C_10  and  C_11
REMARK    5  A    between atoms: C_11  and  C_13
REMARK    6  A    between atoms: C_11  and  N_14
REMARK    7  A    between atoms: C_15  and  C_17
REMARK    8  A    between atoms: C_23  and  C_25
REMARK    9  A    between atoms: C_25  and  C_26
REMARK   10  A    between atoms: C_26  and  C_27
REMARK   11  A    between atoms: C_26  and  C_28
REMARK                            x       y       z     vdW  Elec       q    Type
REMARK                         _______ _______ _______ _____ _____    ______ ____
ROOT
ATOM      1  N   UNL     1       2.109   1.674   3.488  0.00  0.00    -0.307 N 
ATOM      2  C   UNL     1       1.173   2.414   4.115  0.00  0.00    +0.299 C 
ATOM      3  O   UNL     1       0.352   1.875   4.830  0.00  0.00    -0.265 OA
ATOM      4  H   UNL     1       2.765   2.105   2.918  0.00  0.00    +0.149 HD
ENDROOT
BRANCH   2   5
ATOM      5  C   UNL     1       1.145   3.895   3.932  0.00  0.00    +0.305 C 
ATOM      6  O   UNL     1       1.966   4.434   3.218  0.00  0.00    -0.265 OA
ATOM      7  N   UNL     1       0.209   4.635   4.559  0.00  0.00    -0.255 N 
ATOM      8  C   UNL     1       0.183   6.012   4.388  0.00  0.00    +0.188 A 
ATOM      9  N   UNL     1       0.967   6.797   3.661  0.00  0.00    -0.126 NA
ATOM     10  N   UNL     1       0.802   8.046   3.618  0.00  0.00    -0.145 NA
ATOM     11  C   UNL     1      -0.157   8.651   4.291  0.00  0.00    +0.104 A 
ATOM     12  S   UNL     1      -0.923   7.239   5.080  0.00  0.00    -0.035 S 
ATOM     13  H   UNL     1      -0.447   4.204   5.130  0.00  0.00    +0.157 HD
BRANCH  11  14
ATOM     14  C   UNL     1      -0.512  10.114   4.368  0.00  0.00    +0.068 C 
BRANCH  14  15
ATOM     15  C   UNL     1      -1.520  10.453   3.269  0.00  0.00    -0.011 C 
ATOM     16  C   UNL     1      -2.829   9.705   3.529  0.00  0.00    +0.007 C 
ATOM     17  C   UNL     1      -1.785  11.960   3.267  0.00  0.00    +0.007 C 
ENDBRANCH  14  15
ENDBRANCH  11  14
ENDBRANCH   2   5
BRANCH   1  18
ATOM     18  C   UNL     1       2.136   0.221   3.668  0.00  0.00    +0.054 C 
ATOM     19  C   UNL     1       2.924  -0.122   4.934  0.00  0.00    +0.026 C 
BRANCH  18  20
ATOM     20  C   UNL     1       2.808  -0.431   2.458  0.00  0.00    -0.057 C 
BRANCH  20  26
ATOM     21  C   UNL     1      -0.019   1.526   0.010  0.00  0.00    +0.005 C 
ATOM     22  C   UNL     1       0.002  -0.004   0.002  0.00  0.00    -0.031 C 
ATOM     23  C   UNL     1       0.721  -0.499  -1.257  0.00  0.00    +0.003 C 
ATOM     24  C   UNL     1       2.177  -0.027  -1.220  0.00  0.00    -0.031 C 
ATOM     25  C   UNL     1       2.839  -0.534   0.063  0.00  0.00    -0.076 C 
ATOM     26  N   UNL     1       2.123  -0.005   1.230  0.00  0.00    +0.381 N 
ATOM     27  C   UNL     1       0.744  -0.512   1.240  0.00  0.00    -0.076 C 
ATOM     28  C   UNL     1       2.924  -0.581  -2.434  0.00  0.00    +0.005 C 
ATOM     29  H   UNL     1       2.109   1.003   1.187  0.00  0.00    -0.082 HD
ENDBRANCH  20  26
ENDBRANCH  18  20
ENDBRANCH   1  18
TORSDOF 6
