REMARK  Name = ZINC67467374
REMARK  9 active torsions:
REMARK  status: ('A' for Active; 'I' for Inactive)
REMARK    1  A    between atoms: C_1  and  C_2
REMARK    2  A    between atoms: C_2  and  C_3
REMARK    3  A    between atoms: C_2  and  C_4
REMARK    4  A    between atoms: C_4  and  C_5
REMARK    5  A    between atoms: C_5  and  C_7
REMARK    6  A    between atoms: C_5  and  N_25
REMARK    7  A    between atoms: N_9  and  C_10
REMARK    8  A    between atoms: C_13  and  N_16
REMARK    9  A    between atoms: C_17  and  C_21
REMARK                            x       y       z     vdW  Elec       q    Type
REMARK                         _______ _______ _______ _____ _____    ______ ____
ROOT
ATOM      1  C   UNL     1       2.948  -0.887  -2.274  0.00  0.00    +0.238 C 
ATOM      2  O   UNL     1       3.240  -0.186  -3.221  0.00  0.00    -0.273 OA
ATOM      3  N   UNL     1       3.266  -2.196  -2.282  0.00  0.00    -0.284 N 
ATOM      4  H   UNL     1       3.094  -2.742  -1.498  0.00  0.00    +0.155 HD
ENDROOT
BRANCH   3   5
ATOM      5  C   UNL     1       3.844  -2.770  -3.421  0.00  0.00    +0.034 A 
ATOM      6  C   UNL     1       3.526  -4.074  -3.779  0.00  0.00    +0.025 A 
ATOM      7  C   UNL     1       4.096  -4.639  -4.902  0.00  0.00    +0.029 A 
ATOM      8  C   UNL     1       4.987  -3.905  -5.673  0.00  0.00    +0.066 A 
ATOM      9  C   UNL     1       5.304  -2.601  -5.315  0.00  0.00    +0.029 A 
ATOM     10  C   UNL     1       4.730  -2.034  -4.196  0.00  0.00    +0.025 A 
BRANCH   8  11
ATOM     11  N   UNL     1       5.566  -4.479  -6.814  0.00  0.00    -0.228 N 
ATOM     12  C   UNL     1       5.873  -3.834  -7.962  0.00  0.00    +0.147 A 
ATOM     13  C   UNL     1       6.413  -4.739  -8.811  0.00  0.00    +0.054 A 
ATOM     14  C   UNL     1       6.437  -5.978  -8.163  0.00  0.00    +0.135 A 
ATOM     15  N   UNL     1       5.934  -5.822  -6.964  0.00  0.00    -0.174 NA
BRANCH  12  16
ATOM     16  C   UNL     1       5.653  -2.370  -8.244  0.00  0.00    +0.434 C 
ATOM     17  F   UNL     1       6.785  -1.645  -7.858  0.00  0.00    -0.164 F 
ATOM     18  F   UNL     1       5.428  -2.188  -9.613  0.00  0.00    -0.164 F 
ATOM     19  F   UNL     1       4.542  -1.918  -7.525  0.00  0.00    -0.164 F 
ENDBRANCH  12  16
ENDBRANCH   8  11
ENDBRANCH   3   5
BRANCH   1  20
ATOM     20  C   UNL     1       2.232  -0.292  -1.089  0.00  0.00    +0.161 C 
BRANCH  20  21
ATOM     21  N   UNL     1       2.418   1.161  -1.084  0.00  0.00    -0.288 N 
ATOM     22  C   UNL     1       1.990   1.899  -2.128  0.00  0.00    +0.298 C 
ATOM     23  O   UNL     1       1.449   1.359  -3.073  0.00  0.00    -0.253 OA
ATOM     24  N   UNL     1       2.162   3.236  -2.123  0.00  0.00    -0.313 N 
ATOM     25  H   UNL     1       2.850   1.592  -0.330  0.00  0.00    +0.151 HD
ATOM     26  H   UNL     1       2.594   3.667  -1.369  0.00  0.00    +0.146 HD
ATOM     27  H   UNL     1       1.854   3.767  -2.874  0.00  0.00    +0.146 HD
ENDBRANCH  20  21
BRANCH  20  28
ATOM     28  C   UNL     1       0.739  -0.614  -1.182  0.00  0.00    +0.034 C 
BRANCH  28  30
ATOM     29  C   UNL     1      -1.489  -0.253  -0.109  0.00  0.00    +0.007 C 
ATOM     30  C   UNL     1       0.021  -0.065   0.053  0.00  0.00    -0.015 C 
ATOM     31  C   UNL     1       0.498  -0.818   1.296  0.00  0.00    +0.007 C 
ENDBRANCH  28  30
ENDBRANCH  20  28
ENDBRANCH   1  20
TORSDOF 7
