REMARK  Name = ZINC61440304
REMARK  7 active torsions:
REMARK  status: ('A' for Active; 'I' for Inactive)
REMARK    1  A    between atoms: C_1  and  C_2
REMARK    2  A    between atoms: C_9  and  S_11
REMARK    3  A    between atoms: S_11  and  C_12
REMARK    4  A    between atoms: C_12  and  C_14
REMARK    5  A    between atoms: C_12  and  C_15
REMARK    6  A    between atoms: C_15  and  C_16
REMARK    7  A    between atoms: N_17  and  O_18
REMARK                            x       y       z     vdW  Elec       q    Type
REMARK                         _______ _______ _______ _____ _____    ______ ____
ROOT
ATOM      1  C   UNL     1      -0.018   1.503   0.010  0.00  0.00    +0.044 C 
ATOM      2  C   UNL     1       0.002  -0.004   0.002  0.00  0.00    -0.048 A 
ATOM      3  C   UNL     1       0.006  -0.686  -1.206  0.00  0.00    +0.005 A 
ATOM      4  C   UNL     1       0.024  -2.063  -1.230  0.00  0.00    +0.030 A 
ATOM      5  C   UNL     1       0.040  -2.778  -0.030  0.00  0.00    +0.090 A 
ATOM      6  C   UNL     1       0.037  -2.082   1.190  0.00  0.00    +0.067 A 
ATOM      7  C   UNL     1       0.023  -0.696   1.196  0.00  0.00    +0.031 A 
ATOM      8  N   UNL     1       0.055  -3.047   2.184  0.00  0.00    -0.333 N 
ATOM      9  C   UNL     1       0.069  -4.265   1.566  0.00  0.00    +0.168 A 
ATOM     10  N   UNL     1       0.060  -4.104   0.266  0.00  0.00    -0.222 NA
ATOM     11  H   UNL     1       0.058  -2.887   3.141  0.00  0.00    +0.168 HD
ENDROOT
BRANCH   9  12
ATOM     12  S   UNL     1       0.096  -5.820   2.394  0.00  0.00    -0.084 S 
BRANCH  12  13
ATOM     13  C   UNL     1       0.105  -7.035   1.047  0.00  0.00    +0.058 C 
ATOM     14  C   UNL     1      -1.208  -6.942   0.267  0.00  0.00    +0.020 C 
BRANCH  13  15
ATOM     15  C   UNL     1       0.254  -8.442   1.629  0.00  0.00    +0.089 C 
BRANCH  15  16
ATOM     16  C   UNL     1       1.602  -8.571   2.292  0.00  0.00    +0.133 C 
ATOM     17  N   UNL     1       2.417  -7.569   2.298  0.00  0.00    -0.077 NA
ATOM     18  N   UNL     1       1.964  -9.757   2.891  0.00  0.00    -0.344 N 
ATOM     19  H   UNL     1       1.351 -10.509   2.886  0.00  0.00    +0.144 HD
ATOM     20  H   UNL     1       2.831  -9.840   3.317  0.00  0.00    +0.144 HD
BRANCH  17  21
ATOM     21  O   UNL     1       3.683  -7.690   2.921  0.00  0.00    -0.408 OA
ATOM     22  H   UNL     1       4.223  -6.889   2.874  0.00  0.00    +0.328 HD
ENDBRANCH  17  21
ENDBRANCH  15  16
ENDBRANCH  13  15
ENDBRANCH  12  13
ENDBRANCH   9  12
TORSDOF 5
