REMARK  Name = ZINC51036119
REMARK  7 active torsions:
REMARK  status: ('A' for Active; 'I' for Inactive)
REMARK    1  A    between atoms: C_1  and  C_2
REMARK    2  A    between atoms: C_6  and  C_7
REMARK    3  A    between atoms: C_7  and  C_9
REMARK    4  A    between atoms: C_7  and  S_13
REMARK    5  A    between atoms: C_9  and  C_11
REMARK    6  A    between atoms: C_9  and  N_12
REMARK    7  A    between atoms: S_13  and  C_14
REMARK                            x       y       z     vdW  Elec       q    Type
REMARK                         _______ _______ _______ _____ _____    ______ ____
ROOT
ATOM      1  C   UNL     1      -0.002  -0.239   2.630  0.00  0.00    +0.075 C 
ENDROOT
BRANCH   1   7
ATOM      2  C   UNL     1       0.046   1.065  -0.151  0.00  0.00    +0.044 C 
ATOM      3  C   UNL     1       0.106  -0.427   0.055  0.00  0.00    -0.039 A 
ATOM      4  C   UNL     1       0.193  -1.281  -1.028  0.00  0.00    +0.011 A 
ATOM      5  C   UNL     1       0.246  -2.618  -0.809  0.00  0.00    +0.046 A 
ATOM      6  S   UNL     1       0.172  -2.703   0.973  0.00  0.00    -0.100 S 
ATOM      7  C   UNL     1       0.082  -0.951   1.305  0.00  0.00    +0.004 A 
ENDBRANCH   1   7
BRANCH   1   8
ATOM      8  C   UNL     1       1.369  -0.264   3.310  0.00  0.00    -0.060 C 
ATOM      9  C   UNL     1       2.377   0.502   2.451  0.00  0.00    -0.013 C 
BRANCH   8  10
ATOM     10  N   UNL     1       1.271   0.369   4.632  0.00  0.00    +0.381 N 
ATOM     11  H   UNL     1       0.675  -0.186   5.227  0.00  0.00    -0.090 HD
ATOM     12  H   UNL     1       2.191   0.433   5.043  0.00  0.00    -0.090 HD
ATOM     13  H   UNL     1       0.882   1.294   4.534  0.00  0.00    -0.090 HD
ENDBRANCH   8  10
ENDBRANCH   1   8
BRANCH   1  14
ATOM     14  S   UNL     1      -1.216  -1.073   3.689  0.00  0.00    -0.097 S 
BRANCH  14  15
ATOM     15  C   UNL     1      -2.758  -0.768   2.891  0.00  0.00    +0.126 A 
ATOM     16  C   UNL     1      -3.934  -1.358   3.360  0.00  0.00    +0.117 A 
ATOM     17  C   UNL     1      -5.137  -1.084   2.690  0.00  0.00    +0.182 A 
ATOM     18  N   UNL     1      -6.105  -1.766   3.332  0.00  0.00    -0.216 NA
ATOM     19  H   UNL     1      -3.642  -2.587   5.043  0.00  0.00    +0.167 HD
ATOM     20  C   UNL     1      -5.590  -2.428   4.331  0.00  0.00    +0.199 A 
ATOM     21  N   UNL     1      -4.256  -2.212   4.393  0.00  0.00    -0.341 N 
ATOM     22  N   UNL     1      -5.110  -0.269   1.631  0.00  0.00    -0.214 NA
ATOM     23  C   UNL     1      -3.979   0.264   1.225  0.00  0.00    +0.224 A 
ATOM     24  N   UNL     1      -2.828   0.035   1.831  0.00  0.00    -0.227 NA
ENDBRANCH  14  15
ENDBRANCH   1  14
TORSDOF 5
