REMARK  Name = ZINC00337264
REMARK  5 active torsions:
REMARK  status: ('A' for Active; 'I' for Inactive)
REMARK    1  A    between atoms: C_3  and  C_8
REMARK    2  A    between atoms: C_9  and  C_10
REMARK    3  A    between atoms: C_9  and  C_12
REMARK    4  A    between atoms: N_14  and  C_15
REMARK    5  A    between atoms: C_17  and  N_22
REMARK                            x       y       z     vdW  Elec       q    Type
REMARK                         _______ _______ _______ _____ _____    ______ ____
ROOT
ATOM      1  C   UNL     1       3.721  -2.058  -0.080  0.00  0.00    +0.259 C 
ATOM      2  O   UNL     1       3.721  -0.865   0.159  0.00  0.00    -0.269 OA
ATOM      3  N   UNL     1       4.878  -2.688  -0.365  0.00  0.00    -0.279 N 
ATOM      4  H   UNL     1       4.888  -3.649  -0.493  0.00  0.00    +0.155 HD
ENDROOT
BRANCH   3   5
ATOM      5  C   UNL     1       6.065  -1.955  -0.477  0.00  0.00    +0.071 A 
ATOM      6  C   UNL     1       6.250  -0.809   0.286  0.00  0.00    +0.059 A 
ATOM      7  C   UNL     1       7.425  -0.091   0.178  0.00  0.00    +0.128 A 
ATOM      8  C   UNL     1       8.413  -0.505  -0.697  0.00  0.00    +0.035 A 
ATOM      9  C   UNL     1       8.231  -1.642  -1.463  0.00  0.00    +0.042 A 
ATOM     10  C   UNL     1       7.060  -2.369  -1.356  0.00  0.00    +0.145 A 
ATOM     11  F   UNL     1       6.882  -3.480  -2.104  0.00  0.00    -0.204 F 
BRANCH   7  12
ATOM     12  N   UNL     1       7.625   1.126   0.995  0.00  0.00    +0.056 N 
ATOM     13  O   UNL     1       8.658   1.763   0.897  0.00  0.00    -0.126 OA
ATOM     14  O   UNL     1       6.755   1.492   1.766  0.00  0.00    -0.126 OA
ENDBRANCH   7  12
ENDBRANCH   3   5
BRANCH   1  16
ATOM     15  C   UNL     1       1.271  -2.154   0.094  0.00  0.00    +0.032 C 
ATOM     16  C   UNL     1       2.458  -2.813  -0.057  0.00  0.00    +0.114 C 
BRANCH  15  19
ATOM     17  C   UNL     1       1.898   1.358  -1.056  0.00  0.00    +0.002 A 
ATOM     18  C   UNL     1       1.942  -0.018  -0.988  0.00  0.00    +0.008 A 
ATOM     19  C   UNL     1       1.229  -0.689   0.014  0.00  0.00    -0.022 A 
ATOM     20  C   UNL     1       0.476   0.046   0.938  0.00  0.00    +0.028 A 
ATOM     21  C   UNL     1       0.442   1.422   0.855  0.00  0.00    +0.042 A 
ATOM     22  C   UNL     1       1.151   2.077  -0.139  0.00  0.00    +0.020 A 
ATOM     23 CL   UNL     1      -0.496   2.336   1.994  0.00  0.00    -0.084 Cl
ENDBRANCH  15  19
BRANCH  16  24
ATOM     24  C   UNL     1       2.473  -4.238  -0.194  0.00  0.00    +0.104 C 
ATOM     25  N   UNL     1       2.485  -5.369  -0.302  0.00  0.00    -0.191 NA
ENDBRANCH  16  24
ENDBRANCH   1  16
TORSDOF 5
