REMARK  Name = ZINC00312493
REMARK  3 active torsions:
REMARK  status: ('A' for Active; 'I' for Inactive)
REMARK    1  A    between atoms: C_5  and  C_7
REMARK    2  A    between atoms: N_11  and  C_15
REMARK    3  A    between atoms: C_15  and  C_16
REMARK                            x       y       z     vdW  Elec       q    Type
REMARK                         _______ _______ _______ _____ _____    ______ ____
ROOT
ATOM      1  C   UNL     1      -4.653   3.465  -4.424  0.00  0.00    +0.039 C 
ATOM      2  C   UNL     1      -3.839   3.881  -3.423  0.00  0.00    +0.098 C 
ATOM      3  C   UNL     1      -3.321   3.082  -2.301  0.00  0.00    +0.269 C 
ATOM      4  O   UNL     1      -3.538   1.905  -2.080  0.00  0.00    -0.268 OA
ATOM      5  N   UNL     1      -2.558   3.916  -1.566  0.00  0.00    -0.216 N 
ATOM      6  C   UNL     1      -2.560   5.139  -2.118  0.00  0.00    +0.313 C 
ATOM      7  O   UNL     1      -1.961   6.097  -1.669  0.00  0.00    -0.252 OA
ATOM      8  N   UNL     1      -3.308   5.164  -3.235  0.00  0.00    -0.265 N 
ATOM      9  H   UNL     1      -3.458   5.934  -3.806  0.00  0.00    +0.157 HD
ENDROOT
BRANCH   1  14
ATOM     10  C   UNL     1      -6.308   0.357  -3.137  0.00  0.00    +0.001 A 
ATOM     11  C   UNL     1      -6.372  -0.410  -4.289  0.00  0.00    +0.003 A 
ATOM     12  C   UNL     1      -5.879   0.080  -5.484  0.00  0.00    +0.039 A 
ATOM     13  C   UNL     1      -5.321   1.343  -5.540  0.00  0.00    +0.131 A 
ATOM     14  C   UNL     1      -5.248   2.122  -4.377  0.00  0.00    +0.012 A 
ATOM     15  C   UNL     1      -5.751   1.617  -3.173  0.00  0.00    +0.011 A 
ATOM     16  F   UNL     1      -4.844   1.822  -6.709  0.00  0.00    -0.205 F 
ENDBRANCH   1  14
BRANCH   5  17
ATOM     17  C   UNL     1      -1.840   3.544  -0.345  0.00  0.00    +0.153 C 
BRANCH  17  18
ATOM     18  C   UNL     1      -0.458   3.062  -0.702  0.00  0.00    -0.029 A 
ATOM     19  C   UNL     1      -0.241   1.722  -0.966  0.00  0.00    +0.008 A 
ATOM     20  C   UNL     1       1.027   1.277  -1.288  0.00  0.00    +0.038 A 
ATOM     21  C   UNL     1       2.079   2.175  -1.357  0.00  0.00    +0.123 A 
ATOM     22  C   UNL     1       1.859   3.518  -1.097  0.00  0.00    +0.038 A 
ATOM     23  C   UNL     1       0.592   3.959  -0.770  0.00  0.00    +0.008 A 
ATOM     24  F   UNL     1       3.318   1.742  -1.678  0.00  0.00    -0.205 F 
ENDBRANCH  17  18
ENDBRANCH   5  17
TORSDOF 3
