REMARK  Name = ZINC41106552
REMARK  5 active torsions:
REMARK  status: ('A' for Active; 'I' for Inactive)
REMARK    1  A    between atoms: C_1  and  C_2
REMARK    2  A    between atoms: C_2  and  C_4
REMARK    3  A    between atoms: C_2  and  N_16
REMARK    4  A    between atoms: N_9  and  C_10
REMARK    5  A    between atoms: C_19  and  C_22
REMARK                            x       y       z     vdW  Elec       q    Type
REMARK                         _______ _______ _______ _____ _____    ______ ____
ROOT
ATOM      1  C   UNL     1      -0.492   1.383   0.109  0.00  0.00    -0.004 C 
ATOM      2  C   UNL     1       0.011  -0.052  -0.057  0.00  0.00    +0.017 C 
ENDROOT
BRANCH   2   3
ATOM      3  C   UNL     1       0.773  -0.463   1.177  0.00  0.00    +0.207 C 
ATOM      4  O   UNL     1       0.208  -1.064   2.066  0.00  0.00    -0.277 OA
ATOM      5  N   UNL     1       2.082  -0.164   1.292  0.00  0.00    -0.242 N 
ATOM      6  C   UNL     1       2.763  -0.531   2.395  0.00  0.00    +0.306 C 
ATOM      7  O   UNL     1       2.197  -1.133   3.287  0.00  0.00    -0.252 OA
ATOM      8  N   UNL     1       4.072  -0.231   2.510  0.00  0.00    -0.296 N 
ATOM      9  H   UNL     1       2.534   0.317   0.581  0.00  0.00    +0.159 HD
ATOM     10  H   UNL     1       4.524   0.249   1.799  0.00  0.00    +0.151 HD
BRANCH   8  11
ATOM     11  C   UNL     1       4.812  -0.631   3.710  0.00  0.00    +0.074 C 
ATOM     12  C   UNL     1       4.625   0.426   4.800  0.00  0.00    +0.022 C 
ATOM     13  C   UNL     1       5.398   0.009   6.053  0.00  0.00    +0.002 C 
ATOM     14  C   UNL     1       6.885  -0.118   5.716  0.00  0.00    +0.000 C 
ATOM     15  C   UNL     1       7.072  -1.175   4.625  0.00  0.00    +0.002 C 
ATOM     16  C   UNL     1       6.299  -0.757   3.373  0.00  0.00    +0.022 C 
ENDBRANCH   8  11
ENDBRANCH   2   3
BRANCH   2  17
ATOM     17  N   UNL     1      -1.133  -0.953  -0.249  0.00  0.00    +0.387 N 
ATOM     18  C   UNL     1      -1.874  -0.552  -1.450  0.00  0.00    -0.077 C 
ATOM     19  C   UNL     1      -3.113  -1.436  -1.610  0.00  0.00    -0.006 C 
ATOM     20  C   UNL     1      -2.676  -2.898  -1.743  0.00  0.00    +0.072 C 
ATOM     21  C   UNL     1      -1.841  -3.284  -0.518  0.00  0.00    -0.006 C 
ATOM     22  C   UNL     1      -0.649  -2.331  -0.399  0.00  0.00    -0.077 C 
ATOM     23  H   UNL     1      -1.742  -0.898   0.554  0.00  0.00    -0.081 HD
BRANCH  20  24
ATOM     24  C   UNL     1      -3.893  -3.782  -1.821  0.00  0.00    +0.219 C 
ATOM     25  O   UNL     1      -4.947  -3.407  -1.353  0.00  0.00    -0.275 OA
ATOM     26  N   UNL     1      -3.811  -4.991  -2.413  0.00  0.00    -0.297 N 
ATOM     27  C   UNL     1      -2.565  -5.435  -3.058  0.00  0.00    +0.136 C 
ATOM     28  C   UNL     1      -2.218  -6.832  -2.529  0.00  0.00    +0.179 C 
ATOM     29  O   UNL     1      -3.353  -7.688  -2.681  0.00  0.00    -0.377 OA
ATOM     30  C   UNL     1      -4.500  -7.278  -1.933  0.00  0.00    +0.179 C 
ATOM     31  C   UNL     1      -4.962  -5.907  -2.426  0.00  0.00    +0.136 C 
ENDBRANCH  20  24
ENDBRANCH   2  17
TORSDOF 4
