REMARK  Name = ZINC19961262
REMARK  4 active torsions:
REMARK  status: ('A' for Active; 'I' for Inactive)
REMARK    1  A    between atoms: C_1  and  C_2
REMARK    2  A    between atoms: C_5  and  N_9
REMARK    3  A    between atoms: C_6  and  C_8
REMARK    4  A    between atoms: C_10  and  C_12
REMARK                            x       y       z     vdW  Elec       q    Type
REMARK                         _______ _______ _______ _____ _____    ______ ____
ROOT
ATOM      1  C   UNL     1      -0.017   1.098   0.000  0.00  0.00    +0.122 C 
ATOM      2  C   UNL     1      -0.749   1.613  -1.241  0.00  0.00    +0.114 C 
ATOM      3  C   UNL     1      -1.034   3.084  -1.088  0.00  0.00    +0.219 C 
ATOM      4  O   UNL     1      -0.954   3.814  -2.053  0.00  0.00    -0.275 OA
ATOM      5  N   UNL     1      -1.376   3.596   0.107  0.00  0.00    -0.270 N 
ATOM      6  C   UNL     1      -1.356   2.812   1.247  0.00  0.00    +0.138 A 
ATOM      7  C   UNL     1      -0.722   1.584   1.238  0.00  0.00    +0.069 A 
ATOM      8  C   UNL     1      -0.741   0.799   2.396  0.00  0.00    +0.258 A 
ATOM      9  O   UNL     1      -0.195  -0.292   2.418  0.00  0.00    -0.267 OA
ATOM     10  N   UNL     1      -1.377   1.274   3.489  0.00  0.00    -0.295 N 
ATOM     11  H   UNL     1      -1.413   0.671   4.408  0.00  0.00    +0.172 HD
ATOM     12  C   UNL     1      -1.971   2.498   3.454  0.00  0.00    +0.200 A 
ATOM     13  N   UNL     1      -1.956   3.238   2.366  0.00  0.00    -0.200 NA
ATOM     14  N   UNL     1      -2.598   2.969   4.576  0.00  0.00    -0.301 N 
ATOM     15  C   UNL     1      -1.617   3.253   5.654  0.00  0.00    +0.108 C 
ATOM     16  C   UNL     1      -2.384   4.229   6.582  0.00  0.00    +0.020 C 
ATOM     17  C   UNL     1      -3.184   5.098   5.586  0.00  0.00    +0.020 C 
ATOM     18  C   UNL     1      -3.280   4.253   4.302  0.00  0.00    +0.108 C 
ATOM     19  H   UNL     1      -1.676   4.651   0.187  0.00  0.00    +0.156 HD
ENDROOT
BRANCH   1  21
ATOM     20  N   UNL     1       2.226   1.298  -1.023  0.00  0.00    -0.285 N 
ATOM     21  C   UNL     1       1.400   1.609  -0.004  0.00  0.00    +0.225 C 
ATOM     22  O   UNL     1       1.798   2.301   0.909  0.00  0.00    -0.275 OA
ATOM     23  H   UNL     1       1.895   0.598  -1.804  0.00  0.00    +0.155 HD
BRANCH  20  28
ATOM     24  C   UNL     1       7.405   3.599  -1.282  0.00  0.00    +0.044 C 
ATOM     25  C   UNL     1       6.029   2.988  -1.214  0.00  0.00    -0.050 A 
ATOM     26  C   UNL     1       5.019   3.638  -0.529  0.00  0.00    +0.005 A 
ATOM     27  C   UNL     1       3.757   3.080  -0.464  0.00  0.00    +0.024 A 
ATOM     28  C   UNL     1       3.503   1.865  -1.087  0.00  0.00    +0.036 A 
ATOM     29  C   UNL     1       4.521   1.212  -1.769  0.00  0.00    -0.029 A 
ATOM     30  C   UNL     1       5.779   1.778  -1.836  0.00  0.00    +0.008 A 
ATOM     31  C   UNL     1       4.252  -0.109  -2.441  0.00  0.00    +0.045 C 
ENDBRANCH  20  28
ENDBRANCH   1  21
TORSDOF 2
