REMARK  Name = ZINC38089067
REMARK  12 active torsions:
REMARK  status: ('A' for Active; 'I' for Inactive)
REMARK    1  A    between atoms: C_1  and  C_2
REMARK    2  A    between atoms: C_2  and  C_4
REMARK    3  A    between atoms: C_2  and  N_20
REMARK    4  A    between atoms: C_4  and  N_5
REMARK    5  A    between atoms: N_5  and  C_6
REMARK    6  A    between atoms: C_7  and  N_19
REMARK    7  A    between atoms: N_8  and  C_15
REMARK    8  A    between atoms: C_15  and  C_16
REMARK    9  A    between atoms: C_16  and  C_17
REMARK   10  A    between atoms: C_16  and  C_18
REMARK   11  A    between atoms: N_20  and  C_21
REMARK   12  A    between atoms: N_20  and  C_22
REMARK                            x       y       z     vdW  Elec       q    Type
REMARK                         _______ _______ _______ _____ _____    ______ ____
ROOT
ATOM      1  C   UNL     1      -2.136  -2.743  -1.159  0.00  0.00    +0.131 A 
ATOM      2  C   UNL     1      -1.886  -4.001  -1.635  0.00  0.00    +0.127 A 
ATOM      3  N   UNL     1      -2.939  -4.799  -2.019  0.00  0.00    -0.280 N 
ATOM      4  C   UNL     1      -4.204  -4.348  -1.927  0.00  0.00    +0.331 A 
ATOM      5  O   UNL     1      -5.122  -5.067  -2.270  0.00  0.00    -0.246 OA
ATOM      6  N   UNL     1      -4.468  -3.113  -1.462  0.00  0.00    -0.273 N 
ATOM      7  H   UNL     1      -5.386  -2.808  -1.404  0.00  0.00    +0.173 HD
ATOM      8  C   UNL     1      -3.468  -2.300  -1.069  0.00  0.00    +0.277 A 
ATOM      9  O   UNL     1      -3.716  -1.184  -0.643  0.00  0.00    -0.266 OA
ENDROOT
BRANCH   2  10
ATOM     10  N   UNL     1      -0.593  -4.464  -1.730  0.00  0.00    -0.343 N 
ATOM     11  H   UNL     1       0.146  -3.898  -1.458  0.00  0.00    +0.144 HD
ATOM     12  H   UNL     1      -0.421  -5.357  -2.068  0.00  0.00    +0.144 HD
ENDBRANCH   2  10
BRANCH   1  13
ATOM     13  N   UNL     1      -1.071  -1.902  -0.758  0.00  0.00    -0.339 N 
ATOM     14  H   UNL     1      -0.155  -2.215  -0.824  0.00  0.00    +0.146 HD
BRANCH  13  15
ATOM     15  C   UNL     1      -1.352  -0.559  -0.245  0.00  0.00    +0.086 C 
BRANCH  15  17
ATOM     16  C   UNL     1      -0.326   1.602   0.474  0.00  0.00    -0.012 C 
ATOM     17  C   UNL     1      -0.034   0.170   0.023  0.00  0.00    -0.055 C 
BRANCH  17  18
ATOM     18  N   UNL     1       0.769   0.198  -1.208  0.00  0.00    +0.379 N 
ATOM     19  C   UNL     1       0.086   1.015  -2.219  0.00  0.00    -0.096 C 
ATOM     20  C   UNL     1       2.087   0.777  -0.919  0.00  0.00    -0.096 C 
ATOM     21  H   UNL     1       0.884  -0.742  -1.556  0.00  0.00    -0.082 HD
ENDBRANCH  17  18
ENDBRANCH  15  17
ENDBRANCH  13  15
ENDBRANCH   1  13
BRANCH   3  22
ATOM     22  C   UNL     1      -2.683  -6.148  -2.530  0.00  0.00    +0.131 C 
BRANCH  22  23
ATOM     23  C   UNL     1      -2.684  -7.143  -1.368  0.00  0.00    +0.003 C 
ATOM     24  C   UNL     1      -4.082  -7.204  -0.749  0.00  0.00    +0.009 C 
ATOM     25  C   UNL     1      -2.294  -8.530  -1.883  0.00  0.00    +0.009 C 
ENDBRANCH  22  23
ENDBRANCH   3  22
TORSDOF 7
