REMARK  Name = ZINC44170260
REMARK  9 active torsions:
REMARK  status: ('A' for Active; 'I' for Inactive)
REMARK    1  A    between atoms: C_3  and  N_25
REMARK    2  A    between atoms: C_6  and  C_7
REMARK    3  A    between atoms: C_7  and  S_8
REMARK    4  A    between atoms: S_8  and  C_9
REMARK    5  A    between atoms: C_11  and  O_24
REMARK    6  A    between atoms: C_13  and  O_23
REMARK    7  A    between atoms: C_15  and  O_22
REMARK    8  A    between atoms: C_17  and  C_20
REMARK    9  A    between atoms: C_20  and  O_21
REMARK                            x       y       z     vdW  Elec       q    Type
REMARK                         _______ _______ _______ _____ _____    ______ ____
ROOT
ATOM      1  C   UNL     1      -3.378  -2.001  -1.514  0.00  0.00    +0.207 C 
ATOM      2  C   UNL     1      -4.010  -2.216  -2.892  0.00  0.00    +0.184 C 
ATOM      3  C   UNL     1      -5.286  -3.049  -2.736  0.00  0.00    +0.177 C 
ATOM      4  C   UNL     1      -4.938  -4.370  -2.042  0.00  0.00    +0.176 C 
ATOM      5  C   UNL     1      -4.271  -4.071  -0.698  0.00  0.00    +0.176 C 
ATOM      6  O   UNL     1      -3.108  -3.268  -0.912  0.00  0.00    -0.355 OA
ENDROOT
BRANCH   4   7
ATOM      7  O   UNL     1      -4.042  -5.120  -2.866  0.00  0.00    -0.386 OA
ATOM      8  H   UNL     1      -4.400  -5.340  -3.737  0.00  0.00    +0.210 HD
ENDBRANCH   4   7
BRANCH   3   9
ATOM      9  O   UNL     1      -5.843  -3.315  -4.024  0.00  0.00    -0.386 OA
ATOM     10  H   UNL     1      -6.081  -2.521  -4.521  0.00  0.00    +0.210 HD
ENDBRANCH   3   9
BRANCH   2  11
ATOM     11  O   UNL     1      -4.332  -0.950  -3.472  0.00  0.00    -0.386 OA
ATOM     12  H   UNL     1      -3.570  -0.369  -3.596  0.00  0.00    +0.210 HD
ENDBRANCH   2  11
BRANCH   1  13
ATOM     13  S   UNL     1      -1.828  -1.075  -1.697  0.00  0.00    -0.122 S 
BRANCH  13  14
ATOM     14  C   UNL     1      -1.293  -0.775   0.010  0.00  0.00    +0.106 C 
BRANCH  14  20
ATOM     15  C   UNL     1      -0.017   1.378   0.010  0.00  0.00    +0.006 A 
ATOM     16  C   UNL     1       1.171   2.086   0.002  0.00  0.00    +0.033 A 
ATOM     17  C   UNL     1       2.377   1.411  -0.013  0.00  0.00    +0.126 A 
ATOM     18  C   UNL     1       2.396   0.029  -0.020  0.00  0.00    +0.033 A 
ATOM     19  C   UNL     1       1.208  -0.679  -0.012  0.00  0.00    +0.006 A 
ATOM     20  C   UNL     1       0.002  -0.004   0.002  0.00  0.00    -0.037 A 
BRANCH  17  21
ATOM     21  N   UNL     1       3.649   2.168  -0.022  0.00  0.00    +0.056 N 
ATOM     22  O   UNL     1       3.633   3.377  -0.016  0.00  0.00    -0.126 OA
ATOM     23  O   UNL     1       4.704   1.578  -0.035  0.00  0.00    -0.126 OA
ENDBRANCH  17  21
ENDBRANCH  14  20
ENDBRANCH  13  14
ENDBRANCH   1  13
BRANCH   5  24
ATOM     24  C   UNL     1      -3.866  -5.385  -0.026  0.00  0.00    +0.190 C 
BRANCH  24  25
ATOM     25  O   UNL     1      -3.350  -5.114   1.279  0.00  0.00    -0.392 OA
ATOM     26  H   UNL     1      -3.073  -5.904   1.764  0.00  0.00    +0.210 HD
ENDBRANCH  24  25
ENDBRANCH   5  24
TORSDOF 9
