REMARK  Name = ZINC66739990
REMARK  3 active torsions:
REMARK  status: ('A' for Active; 'I' for Inactive)
REMARK    1  A    between atoms: C_1  and  C_2
REMARK    2  A    between atoms: C_11  and  C_14
REMARK    3  A    between atoms: C_17  and  C_19
REMARK                            x       y       z     vdW  Elec       q    Type
REMARK                         _______ _______ _______ _____ _____    ______ ____
ROOT
ATOM      1  C   UNL     1      -0.018   1.503   0.010  0.00  0.00    +0.067 C 
ATOM      2  C   UNL     1       0.002  -0.004   0.002  0.00  0.00    +0.055 A 
ATOM      3  C   UNL     1       0.008  -0.795  -1.075  0.00  0.00    +0.082 A 
ATOM      4  C   UNL     1       0.036  -2.138  -0.574  0.00  0.00    +0.168 A 
ATOM      5  N   UNL     1       0.036  -2.062   0.724  0.00  0.00    -0.167 NA
ATOM      6  N   UNL     1       0.024  -0.824   1.094  0.00  0.00    -0.279 N 
ATOM      7  H   UNL     1       0.027  -0.521   2.015  0.00  0.00    +0.189 HD
ATOM      8  C   UNL     1       0.065  -3.267  -1.523  0.00  0.00    +0.268 C 
ATOM      9  O   UNL     1       0.262  -4.408  -1.151  0.00  0.00    -0.268 OA
ATOM     10  N   UNL     1      -0.138  -2.973  -2.829  0.00  0.00    -0.287 N 
ATOM     11  C   UNL     1      -0.547  -1.654  -3.298  0.00  0.00    +0.209 C 
ATOM     12  N   UNL     1      -0.010  -0.572  -2.459  0.00  0.00    -0.318 N 
ATOM     13  H   UNL     1      -0.004  -3.674  -3.486  0.00  0.00    +0.151 HD
ATOM     14  H   UNL     1       0.316   0.257  -2.844  0.00  0.00    +0.148 HD
ENDROOT
BRANCH  11  15
ATOM     15  C   UNL     1      -2.052  -1.577  -3.288  0.00  0.00    +0.087 A 
ATOM     16  C   UNL     1      -2.792  -2.700  -3.482  0.00  0.00    +0.074 A 
ATOM     17  S   UNL     1      -4.446  -2.029  -3.369  0.00  0.00    -0.075 S 
ATOM     18  C   UNL     1      -3.972  -0.330  -3.077  0.00  0.00    +0.109 A 
ATOM     19  N   UNL     1      -2.650  -0.426  -3.086  0.00  0.00    -0.240 NA
BRANCH  18  20
ATOM     20  C   UNL     1      -4.825   0.861  -2.875  0.00  0.00    +0.011 A 
ATOM     21  C   UNL     1      -4.242   2.111  -2.666  0.00  0.00    +0.014 A 
ATOM     22  C   UNL     1      -5.039   3.221  -2.478  0.00  0.00    +0.050 A 
ATOM     23  C   UNL     1      -6.421   3.099  -2.495  0.00  0.00    +0.166 A 
ATOM     24  C   UNL     1      -7.009   1.852  -2.703  0.00  0.00    +0.167 A 
ATOM     25  C   UNL     1      -6.215   0.737  -2.898  0.00  0.00    +0.060 A 
ATOM     26  O   UNL     1      -8.366   2.000  -2.676  0.00  0.00    -0.453 OA
ATOM     27  C   UNL     1      -8.601   3.272  -2.043  0.00  0.00    +0.466 C 
ATOM     28  O   UNL     1      -7.410   4.026  -2.338  0.00  0.00    -0.453 OA
ENDBRANCH  18  20
ENDBRANCH  11  15
TORSDOF 2
