REMARK  Name = ZINC66341548
REMARK  5 active torsions:
REMARK  status: ('A' for Active; 'I' for Inactive)
REMARK    1  A    between atoms: C_1  and  C_2
REMARK    2  A    between atoms: C_2  and  N_3
REMARK    3  A    between atoms: N_6  and  C_7
REMARK    4  A    between atoms: C_7  and  C_12
REMARK    5  A    between atoms: C_20  and  C_22
REMARK                            x       y       z     vdW  Elec       q    Type
REMARK                         _______ _______ _______ _____ _____    ______ ____
ROOT
ATOM      1  C   UNL     1      -0.260  -3.536   2.984  0.00  0.00    +0.239 C 
ATOM      2  O   UNL     1      -0.579  -4.239   3.919  0.00  0.00    -0.273 OA
ATOM      3  N   UNL     1      -1.090  -3.399   1.931  0.00  0.00    -0.297 N 
ATOM      4  C   UNL     1      -0.774  -2.457   0.848  0.00  0.00    +0.127 C 
ATOM      5  C   UNL     1      -0.775  -3.220  -0.482  0.00  0.00    +0.126 C 
ATOM      6  N   UNL     1      -2.011  -4.011  -0.569  0.00  0.00    -0.298 N 
ATOM      7  C   UNL     1      -2.326  -4.954   0.514  0.00  0.00    +0.126 C 
ATOM      8  C   UNL     1      -2.322  -4.194   1.841  0.00  0.00    +0.127 C 
ATOM      9  C   UNL     1      -2.841  -3.874  -1.622  0.00  0.00    +0.219 C 
ATOM     10  O   UNL     1      -2.519  -3.178  -2.561  0.00  0.00    -0.275 OA
ENDROOT
BRANCH   9  11
ATOM     11  C   UNL     1      -4.169  -4.587  -1.633  0.00  0.00    +0.075 C 
ATOM     12  C   UNL     1      -3.937  -6.095  -1.740  0.00  0.00    +0.013 C 
ATOM     13  C   UNL     1      -5.285  -6.819  -1.751  0.00  0.00    +0.001 C 
ATOM     14  C   UNL     1      -6.110  -6.343  -2.949  0.00  0.00    +0.000 C 
ATOM     15  C   UNL     1      -6.341  -4.834  -2.842  0.00  0.00    +0.001 C 
ATOM     16  C   UNL     1      -4.993  -4.111  -2.831  0.00  0.00    +0.013 C 
ENDBRANCH   9  11
BRANCH   1  17
ATOM     17  C   UNL     1       1.064  -2.815   2.999  0.00  0.00    +0.112 C 
ATOM     18  C   UNL     1       1.951  -3.363   4.136  0.00  0.00    +0.035 C 
ATOM     19  C   UNL     1       2.695  -2.114   4.671  0.00  0.00    +0.003 C 
ATOM     20  C   UNL     1       1.610  -1.011   4.596  0.00  0.00    +0.003 C 
ATOM     21  C   UNL     1       0.847  -1.320   3.292  0.00  0.00    +0.035 C 
BRANCH  17  25
ATOM     22  N   UNL     1       2.483  -4.368  -0.015  0.00  0.00    -0.300 N 
ATOM     23  C   UNL     1       1.953  -4.217   1.215  0.00  0.00    +0.300 C 
ATOM     24  O   UNL     1       1.667  -5.195   1.878  0.00  0.00    -0.253 OA
ATOM     25  N   UNL     1       1.740  -2.982   1.710  0.00  0.00    -0.285 N 
ATOM     26  H   UNL     1       2.711  -3.587  -0.544  0.00  0.00    +0.150 HD
ATOM     27  H   UNL     1       2.034  -2.202   1.213  0.00  0.00    +0.151 HD
BRANCH  22  29
ATOM     28  C   UNL     1       3.319  -5.601  -1.954  0.00  0.00    +0.024 C 
ATOM     29  C   UNL     1       2.715  -5.711  -0.553  0.00  0.00    +0.102 C 
ENDBRANCH  22  29
ENDBRANCH  17  25
ENDBRANCH   1  17
TORSDOF 4
