REMARK  Name = ZINC16010102
REMARK  5 active torsions:
REMARK  status: ('A' for Active; 'I' for Inactive)
REMARK    1  A    between atoms: C_1  and  O_2
REMARK    2  A    between atoms: O_2  and  C_3
REMARK    3  A    between atoms: C_8  and  N_9
REMARK    4  A    between atoms: C_14  and  C_31
REMARK    5  A    between atoms: C_31  and  C_32
REMARK                            x       y       z     vdW  Elec       q    Type
REMARK                         _______ _______ _______ _____ _____    ______ ____
ROOT
ATOM      1  N   UNL     1       0.094  -2.778  -0.110  0.00  0.00    -0.206 N 
ATOM      2  C   UNL     1      -1.177  -3.195  -0.142  0.00  0.00    +0.232 C 
ATOM      3  O   UNL     1      -1.972  -2.954  -1.025  0.00  0.00    -0.274 OA
ATOM      4  C   UNL     1      -1.467  -4.014   1.095  0.00  0.00    +0.108 C 
ATOM      5  C   UNL     1      -2.473  -3.255   1.986  0.00  0.00    +0.076 C 
ATOM      6  N   UNL     1      -1.636  -2.363   2.832  0.00  0.00    -0.295 NA
ATOM      7  C   UNL     1      -0.449  -3.177   3.152  0.00  0.00    +0.136 C 
ATOM      8  C   UNL     1      -0.121  -3.983   1.871  0.00  0.00    +0.123 C 
ATOM      9  C   UNL     1       0.781  -3.170   0.969  0.00  0.00    +0.233 C 
ATOM     10  O   UNL     1       1.944  -2.911   1.191  0.00  0.00    -0.274 OA
ATOM     11  C   UNL     1      -0.703  -4.088   4.319  0.00  0.00    +0.003 A 
ATOM     12  C   UNL     1      -1.616  -5.091   4.559  0.00  0.00    +0.008 A 
ATOM     13  C   UNL     1      -1.600  -5.768   5.765  0.00  0.00    +0.000 A 
ATOM     14  C   UNL     1      -0.666  -5.435   6.729  0.00  0.00    +0.002 A 
ATOM     15  C   UNL     1       0.250  -4.431   6.494  0.00  0.00    +0.023 A 
ATOM     16  C   UNL     1       0.241  -3.744   5.282  0.00  0.00    +0.039 A 
ATOM     17  N   UNL     1       1.052  -2.707   4.815  0.00  0.00    -0.283 N 
ATOM     18  C   UNL     1       0.711  -2.316   3.572  0.00  0.00    +0.243 C 
ATOM     19  O   UNL     1       1.237  -1.441   2.918  0.00  0.00    -0.273 OA
ATOM     20  H   UNL     1      -1.377  -1.527   2.330  0.00  0.00    +0.124 HD
ATOM     21  H   UNL     1       1.776  -2.314   5.327  0.00  0.00    +0.155 HD
ENDROOT
BRANCH   1  27
ATOM     22  C   UNL     1       0.606  -0.607  -1.056  0.00  0.00    +0.142 A 
ATOM     23  C   UNL     1       1.173   0.159  -2.062  0.00  0.00    +0.049 A 
ATOM     24  C   UNL     1       1.787  -0.455  -3.137  0.00  0.00    +0.024 A 
ATOM     25  C   UNL     1       1.837  -1.836  -3.213  0.00  0.00    +0.043 A 
ATOM     26  C   UNL     1       1.274  -2.607  -2.213  0.00  0.00    +0.047 A 
ATOM     27  C   UNL     1       0.662  -1.997  -1.129  0.00  0.00    +0.087 A 
ATOM     28 CL   UNL     1       2.609  -2.601  -4.567  0.00  0.00    -0.083 Cl
BRANCH  22  30
ATOM     29  C   UNL     1      -0.017   1.425   0.010  0.00  0.00    +0.277 C 
ATOM     30  O   UNL     1       0.002  -0.004   0.002  0.00  0.00    -0.493 OA
ENDBRANCH  22  30
ENDBRANCH   1  27
BRANCH   5  31
ATOM     31  C   UNL     1      -3.431  -2.430   1.124  0.00  0.00    +0.115 C 
BRANCH  31  32
ATOM     32  C   UNL     1      -4.478  -1.796   2.003  0.00  0.00    +0.212 C 
ATOM     33  O   UNL     1      -4.460  -1.985   3.201  0.00  0.00    -0.276 OA
ATOM     34  N   UNL     1      -5.435  -1.019   1.458  0.00  0.00    -0.329 N 
ATOM     35  H   UNL     1      -5.449  -0.867   0.500  0.00  0.00    +0.145 HD
ATOM     36  H   UNL     1      -6.109  -0.611   2.023  0.00  0.00    +0.145 HD
ENDBRANCH  31  32
ENDBRANCH   5  31
TORSDOF 4
