REMARK  Name = ZINC62229580
REMARK  11 active torsions:
REMARK  status: ('A' for Active; 'I' for Inactive)
REMARK    1  A    between atoms: C_1  and  C_2
REMARK    2  A    between atoms: C_2  and  C_3
REMARK    3  A    between atoms: C_3  and  N_4
REMARK    4  A    between atoms: N_7  and  C_8
REMARK    5  A    between atoms: C_8  and  C_9
REMARK    6  A    between atoms: C_8  and  C_10
REMARK    7  A    between atoms: C_8  and  C_11
REMARK    8  A    between atoms: N_13  and  C_14
REMARK    9  A    between atoms: C_14  and  C_15
REMARK   10  A    between atoms: N_19  and  C_21
REMARK   11  A    between atoms: C_21  and  C_22
REMARK                            x       y       z     vdW  Elec       q    Type
REMARK                         _______ _______ _______ _____ _____    ______ ____
ROOT
ATOM      1  C   UNL     1       1.917  -6.206   3.071  0.00  0.00    +0.236 C 
ATOM      2  O   UNL     1       2.820  -6.949   3.394  0.00  0.00    -0.273 OA
ATOM      3  N   UNL     1       0.807  -6.706   2.493  0.00  0.00    -0.313 N 
ATOM      4  H   UNL     1       0.085  -6.112   2.235  0.00  0.00    +0.149 HD
ENDROOT
BRANCH   1   5
ATOM      5  C   UNL     1       2.037  -4.724   3.316  0.00  0.00    +0.106 C 
ATOM      6  C   UNL     1       3.516  -4.335   3.374  0.00  0.00    +0.041 C 
ATOM      7  C   UNL     1       1.364  -4.371   4.644  0.00  0.00    +0.041 C 
BRANCH   5  11
ATOM      8  N   UNL     1       0.762  -1.976   1.234  0.00  0.00    -0.299 N 
ATOM      9  C   UNL     1       1.364  -2.647   2.235  0.00  0.00    +0.300 C 
ATOM     10  O   UNL     1       1.891  -2.037   3.145  0.00  0.00    -0.253 OA
ATOM     11  N   UNL     1       1.383  -3.995   2.228  0.00  0.00    -0.286 N 
ATOM     12  H   UNL     1       0.342  -2.462   0.507  0.00  0.00    +0.150 HD
ATOM     13  H   UNL     1       0.962  -4.481   1.502  0.00  0.00    +0.151 HD
BRANCH   8  14
ATOM     14  C   UNL     1       0.742  -0.511   1.242  0.00  0.00    +0.105 C 
BRANCH  14  16
ATOM     15  C   UNL     1      -0.019   1.526   0.010  0.00  0.00    +0.005 C 
ATOM     16  C   UNL     1       0.002  -0.004   0.002  0.00  0.00    +0.015 C 
ENDBRANCH  14  16
ENDBRANCH   8  14
ENDBRANCH   5  11
ENDBRANCH   1   5
BRANCH   3  17
ATOM     17  C   UNL     1       0.691  -8.147   2.254  0.00  0.00    +0.106 C 
BRANCH  17  18
ATOM     18  C   UNL     1      -0.656  -8.447   1.593  0.00  0.00    -0.011 C 
ATOM     19  C   UNL     1      -1.790  -8.110   2.564  0.00  0.00    +0.001 C 
ATOM     20  C   UNL     1      -3.128  -8.487   1.923  0.00  0.00    -0.018 C 
ATOM     21  C   UNL     1      -3.108  -9.970   1.548  0.00  0.00    -0.078 C 
ATOM     22  N   UNL     1      -2.019 -10.223   0.597  0.00  0.00    +0.383 N 
ATOM     23  C   UNL     1      -0.727  -9.932   1.230  0.00  0.00    -0.073 C 
ATOM     24  H   UNL     1      -2.136  -9.632  -0.213  0.00  0.00    -0.081 HD
BRANCH  22  25
ATOM     25  C   UNL     1      -2.052 -11.632   0.180  0.00  0.00    -0.043 C 
BRANCH  25  26
ATOM     26  C   UNL     1      -3.322 -11.899  -0.586  0.00  0.00    -0.064 A 
ATOM     27  C   UNL     1      -4.461 -12.305   0.084  0.00  0.00    +0.002 A 
ATOM     28  C   UNL     1      -5.625 -12.550  -0.619  0.00  0.00    +0.000 A 
ATOM     29  C   UNL     1      -5.651 -12.389  -1.992  0.00  0.00    +0.000 A 
ATOM     30  C   UNL     1      -4.512 -11.982  -2.662  0.00  0.00    +0.000 A 
ATOM     31  C   UNL     1      -3.349 -11.733  -1.958  0.00  0.00    +0.002 A 
ENDBRANCH  25  26
ENDBRANCH  22  25
ENDBRANCH  17  18
ENDBRANCH   3  17
TORSDOF 8
