REMARK  Name = ZINC36949856
REMARK  3 active torsions:
REMARK  status: ('A' for Active; 'I' for Inactive)
REMARK    1  A    between atoms: C_3  and  C_8
REMARK    2  A    between atoms: C_8  and  C_10
REMARK    3  A    between atoms: C_8  and  N_22
REMARK                            x       y       z     vdW  Elec       q    Type
REMARK                         _______ _______ _______ _____ _____    ______ ____
ROOT
ATOM      1  C   UNL     1       4.216   2.235  -1.426  0.00  0.00    -0.057 A 
ATOM      2  C   UNL     1       4.896   1.151  -1.952  0.00  0.00    +0.004 A 
ATOM      3  C   UNL     1       5.382   1.213  -3.234  0.00  0.00    +0.024 A 
ATOM      4  C   UNL     1       5.209   2.360  -4.030  0.00  0.00    +0.037 A 
ATOM      5  C   UNL     1       4.535   3.438  -3.499  0.00  0.00    -0.026 A 
ATOM      6  C   UNL     1       4.036   3.360  -2.198  0.00  0.00    +0.007 A 
ATOM      7  C   UNL     1       4.283   4.729  -4.208  0.00  0.00    +0.037 C 
ATOM      8  C   UNL     1       5.373   5.194  -5.123  0.00  0.00    +0.014 C 
ATOM      9  C   UNL     1       5.401   4.464  -6.444  0.00  0.00    +0.096 C 
ATOM     10  C   UNL     1       5.920   3.078  -6.301  0.00  0.00    +0.217 C 
ATOM     11  O   UNL     1       6.591   2.656  -7.220  0.00  0.00    -0.275 OA
ATOM     12  N   UNL     1       5.735   2.268  -5.298  0.00  0.00    -0.285 N 
ATOM     13  H   UNL     1       6.049   1.372  -5.495  0.00  0.00    +0.155 HD
ENDROOT
BRANCH   1  14
ATOM     14  C   UNL     1       3.672   2.183  -0.022  0.00  0.00    -0.013 C 
BRANCH  14  17
ATOM     15  C   UNL     1      -0.017   1.378   0.010  0.00  0.00    +0.001 A 
ATOM     16  C   UNL     1       1.171   2.086   0.002  0.00  0.00    +0.002 A 
ATOM     17  C   UNL     1       2.377   1.411  -0.013  0.00  0.00    -0.057 A 
ATOM     18  C   UNL     1       2.397   0.029  -0.021  0.00  0.00    +0.016 A 
ATOM     19  C   UNL     1       1.209  -0.679  -0.013  0.00  0.00    +0.014 A 
ATOM     20  C   UNL     1       0.002  -0.004   0.002  0.00  0.00    +0.014 A 
ATOM     21  I   UNL     1       1.238  -2.774  -0.025  0.00  0.00    -0.044 I 
ENDBRANCH  14  17
BRANCH  14  22
ATOM     22  N   UNL     1       4.644   1.518   0.856  0.00  0.00    +0.385 N 
ATOM     23  H   UNL     1       4.810   0.579   0.524  0.00  0.00    -0.089 HD
ATOM     24  H   UNL     1       5.511   2.034   0.850  0.00  0.00    -0.089 HD
ATOM     25  H   UNL     1       4.280   1.483   1.796  0.00  0.00    -0.089 HD
ENDBRANCH  14  22
ENDBRANCH   1  14
TORSDOF 3
