REMARK  Name = ZINC06940900
REMARK  8 active torsions:
REMARK  status: ('A' for Active; 'I' for Inactive)
REMARK    1  A    between atoms: C_1  and  C_2
REMARK    2  A    between atoms: C_11  and  O_13
REMARK    3  A    between atoms: O_13  and  C_14
REMARK    4  A    between atoms: C_14  and  C_15
REMARK    5  A    between atoms: N_17  and  N_18
REMARK    6  A    between atoms: N_18  and  C_19
REMARK    7  A    between atoms: C_19  and  N_21
REMARK    8  A    between atoms: N_21  and  C_22
REMARK                            x       y       z     vdW  Elec       q    Type
REMARK                         _______ _______ _______ _____ _____    ______ ____
ROOT
ATOM      1  O   UNL     1      -1.204   2.038   0.019  0.00  0.00    -0.483 OA
ENDROOT
BRANCH   1  12
ATOM      2  C   UNL     1       4.998   0.087  -0.044  0.00  0.00    +0.045 C 
ATOM      3  C   UNL     1       3.689  -0.659  -0.036  0.00  0.00    -0.033 A 
ATOM      4  C   UNL     1       3.659  -2.017  -0.043  0.00  0.00    +0.096 A 
ATOM      5  C   UNL     1       2.421  -2.691  -0.035  0.00  0.00    +0.337 A 
ATOM      6  O   UNL     1       2.409  -3.909  -0.040  0.00  0.00    -0.245 OA
ATOM      7  O   UNL     1       1.256  -2.026  -0.020  0.00  0.00    -0.422 OA
ATOM      8  C   UNL     1       1.214  -0.676  -0.013  0.00  0.00    +0.143 A 
ATOM      9  C   UNL     1       2.413   0.061  -0.021  0.00  0.00    +0.021 A 
ATOM     10  C   UNL     1       2.376   1.460  -0.012  0.00  0.00    +0.015 A 
ATOM     11  C   UNL     1       1.173   2.106   0.002  0.00  0.00    +0.046 A 
ATOM     12  C   UNL     1      -0.017   1.381   0.010  0.00  0.00    +0.125 A 
ATOM     13  C   UNL     1       0.002  -0.004   0.002  0.00  0.00    +0.092 A 
ENDBRANCH   1  12
BRANCH   1  14
ATOM     14  C   UNL     1      -1.156   3.466   0.026  0.00  0.00    +0.326 C 
BRANCH  14  15
ATOM     15  C   UNL     1      -2.559   4.017   0.036  0.00  0.00    +0.267 C 
ATOM     16  O   UNL     1      -3.507   3.261   0.036  0.00  0.00    -0.271 OA
ATOM     17  N   UNL     1      -2.760   5.349   0.044  0.00  0.00    -0.232 N 
ATOM     18  H   UNL     1      -2.002   5.954   0.044  0.00  0.00    +0.173 HD
BRANCH  17  19
ATOM     19  N   UNL     1      -4.064   5.861   0.053  0.00  0.00    -0.246 N 
ATOM     20  H   UNL     1      -4.822   5.256   0.053  0.00  0.00    +0.172 HD
BRANCH  19  21
ATOM     21  C   UNL     1      -4.265   7.194   0.061  0.00  0.00    +0.147 C 
ATOM     22  S   UNL     1      -5.859   7.819   0.072  0.00  0.00    -0.017 S 
BRANCH  21  23
ATOM     23  N   UNL     1      -3.212   8.034   0.061  0.00  0.00    -0.329 N 
ATOM     24  C   UNL     1      -3.430   9.483   0.070  0.00  0.00    +0.127 C 
ATOM     25  H   UNL     1      -2.308   7.680   0.055  0.00  0.00    +0.147 HD
ENDBRANCH  21  23
ENDBRANCH  19  21
ENDBRANCH  17  19
ENDBRANCH  14  15
ENDBRANCH   1  14
TORSDOF 6
