REMARK  Name = ZINC09316031
REMARK  5 active torsions:
REMARK  status: ('A' for Active; 'I' for Inactive)
REMARK    1  A    between atoms: C_1  and  C_2
REMARK    2  A    between atoms: N_6  and  C_14
REMARK    3  A    between atoms: C_14  and  C_15
REMARK    4  A    between atoms: N_17  and  C_18
REMARK    5  A    between atoms: C_22  and  C_24
REMARK                            x       y       z     vdW  Elec       q    Type
REMARK                         _______ _______ _______ _____ _____    ______ ____
ROOT
ATOM      1  C   UNL     1       3.543   3.218   0.087  0.00  0.00    +0.235 C 
ATOM      2  O   UNL     1       3.556   2.006   0.081  0.00  0.00    -0.274 OA
ATOM      3  N   UNL     1       2.372   3.880  -0.000  0.00  0.00    -0.284 N 
ATOM      4  H   UNL     1       2.365   4.848  -0.063  0.00  0.00    +0.155 HD
ENDROOT
BRANCH   3   5
ATOM      5  C   UNL     1       1.166   3.170  -0.001  0.00  0.00    +0.034 A 
ATOM      6  C   UNL     1       0.042   3.709   0.616  0.00  0.00    +0.023 A 
ATOM      7  C   UNL     1      -1.151   3.012   0.618  0.00  0.00    +0.003 A 
ATOM      8  C   UNL     1      -1.234   1.774   0.013  0.00  0.00    +0.013 A 
ATOM      9  C   UNL     1      -0.113   1.227  -0.613  0.00  0.00    +0.038 A 
ATOM     10  C   UNL     1       1.091   1.930  -0.615  0.00  0.00    +0.036 A 
BRANCH   9  11
ATOM     11  C   UNL     1      -0.201  -0.097  -1.266  0.00  0.00    +0.242 C 
ATOM     12  O   UNL     1       0.778  -0.574  -1.806  0.00  0.00    -0.270 OA
ATOM     13  N   UNL     1      -1.365  -0.775  -1.262  0.00  0.00    -0.325 N 
ATOM     14  H   UNL     1      -2.147  -0.394  -0.832  0.00  0.00    +0.145 HD
ATOM     15  H   UNL     1      -1.423  -1.643  -1.691  0.00  0.00    +0.145 HD
ENDBRANCH   9  11
ENDBRANCH   3   5
BRANCH   1  16
ATOM     16  C   UNL     1       4.836   3.986   0.193  0.00  0.00    +0.209 C 
BRANCH  16  21
ATOM     17  C   UNL     1       7.128   0.197  -0.781  0.00  0.00    +0.062 C 
ATOM     18  C   UNL     1       7.698   1.616  -0.745  0.00  0.00    +0.256 C 
ATOM     19  C   UNL     1       6.571   2.612  -0.848  0.00  0.00    +0.261 C 
ATOM     20  O   UNL     1       6.218   3.023  -1.933  0.00  0.00    -0.271 OA
ATOM     21  N   UNL     1       5.956   3.045   0.274  0.00  0.00    -0.256 N 
ATOM     22  C   UNL     1       6.411   2.586   1.519  0.00  0.00    +0.079 A 
ATOM     23  C   UNL     1       5.637   2.744   2.657  0.00  0.00    +0.027 A 
ATOM     24  C   UNL     1       6.105   2.285   3.875  0.00  0.00    +0.002 A 
ATOM     25  C   UNL     1       7.340   1.669   3.959  0.00  0.00    +0.004 A 
ATOM     26  C   UNL     1       8.110   1.500   2.826  0.00  0.00    +0.047 A 
ATOM     27  C   UNL     1       7.652   1.961   1.604  0.00  0.00    +0.143 A 
ATOM     28  O   UNL     1       8.405   1.814   0.482  0.00  0.00    -0.478 OA
ENDBRANCH  16  21
ENDBRANCH   1  16
TORSDOF 4
