REMARK  Name = ZINC39711647
REMARK  11 active torsions:
REMARK  status: ('A' for Active; 'I' for Inactive)
REMARK    1  A    between atoms: C_1  and  C_2
REMARK    2  A    between atoms: C_2  and  C_3
REMARK    3  A    between atoms: C_2  and  C_4
REMARK    4  A    between atoms: C_2  and  N_5
REMARK    5  A    between atoms: C_6  and  C_11
REMARK    6  A    between atoms: C_11  and  C_13
REMARK    7  A    between atoms: C_11  and  N_28
REMARK    8  A    between atoms: N_28  and  C_29
REMARK    9  A    between atoms: N_28  and  C_36
REMARK   10  A    between atoms: C_29  and  C_30
REMARK   11  A    between atoms: C_36  and  C_37
REMARK                            x       y       z     vdW  Elec       q    Type
REMARK                         _______ _______ _______ _____ _____    ______ ____
ROOT
ATOM      1  C   UNL     1      -1.724   0.302  -2.569  0.00  0.00    -0.008 C 
ENDROOT
BRANCH   1   2
ATOM      2  C   UNL     1      -0.841   1.539  -2.399  0.00  0.00    +0.088 C 
ATOM      3  C   UNL     1      -1.647   2.589  -1.660  0.00  0.00    -0.006 C 
ATOM      4  C   UNL     1      -1.824   3.789  -2.275  0.00  0.00    -0.003 A 
ATOM      5  C   UNL     1      -2.591   4.855  -1.629  0.00  0.00    +0.059 A 
ATOM      6  C   UNL     1      -2.750   6.042  -2.270  0.00  0.00    +0.167 A 
ATOM      7  C   UNL     1      -2.188   6.264  -3.546  0.00  0.00    +0.168 A 
ATOM      8  C   UNL     1      -1.457   5.293  -4.197  0.00  0.00    +0.073 A 
ATOM      9  C   UNL     1      -1.245   4.040  -3.608  0.00  0.00    +0.044 A 
ATOM     10  N   UNL     1      -0.534   3.112  -4.255  0.00  0.00    -0.284 N 
ATOM     11  C   UNL     1      -0.297   1.911  -3.760  0.00  0.00    +0.223 C 
ATOM     12  O   UNL     1       0.357   1.107  -4.397  0.00  0.00    -0.275 OA
ATOM     13  O   UNL     1      -2.508   7.532  -3.937  0.00  0.00    -0.453 OA
ATOM     14  C   UNL     1      -3.605   7.932  -3.096  0.00  0.00    +0.466 C 
ATOM     15  O   UNL     1      -3.412   7.176  -1.887  0.00  0.00    -0.453 OA
ATOM     16  H   UNL     1      -0.176   3.332  -5.130  0.00  0.00    +0.155 HD
ENDBRANCH   1   2
BRANCH   1  18
ATOM     17  N   UNL     1      -1.251  -0.408  -0.251  0.00  0.00    -0.183 NA
ATOM     18  C   UNL     1      -1.207  -0.822  -1.669  0.00  0.00    +0.205 C 
ATOM     19  N   UNL     1       0.215  -1.081  -1.933  0.00  0.00    -0.152 NA
ATOM     20  N   UNL     1       0.858  -0.867  -0.903  0.00  0.00    -0.070 NA
ATOM     21  N   UNL     1       0.056  -0.457   0.161  0.00  0.00    -0.179 N 
ATOM     22  H   UNL     1       0.372  -0.241   1.052  0.00  0.00    +0.191 HD
BRANCH  17  24
ATOM     23  C   UNL     1      -0.645   1.959  -0.084  0.00  0.00    +0.029 C 
ATOM     24  C   UNL     1      -1.794   0.950  -0.115  0.00  0.00    +0.035 C 
ATOM     25  C   UNL     1      -2.596   1.051   1.184  0.00  0.00    +0.029 C 
ATOM     26  C   UNL     1      -2.708   1.254  -1.304  0.00  0.00    +0.029 C 
ENDBRANCH  17  24
ENDBRANCH   1  18
BRANCH   1  27
ATOM     27  N   UNL     1      -1.688  -0.137  -3.970  0.00  0.00    +0.392 N 
ATOM     28  H   UNL     1      -0.742  -0.382  -4.222  0.00  0.00    -0.080 HD
BRANCH  27  29
ATOM     29  C   UNL     1      -2.159   0.951  -4.837  0.00  0.00    -0.040 C 
BRANCH  29  30
ATOM     30  C   UNL     1      -3.569   1.321  -4.458  0.00  0.00    -0.046 A 
ATOM     31  C   UNL     1      -4.629   0.497  -4.804  0.00  0.00    +0.005 A 
ATOM     32  C   UNL     1      -5.909   0.878  -4.434  0.00  0.00    +0.020 A 
ATOM     33  C   UNL     1      -6.086   2.058  -3.737  0.00  0.00    +0.111 A 
ATOM     34  N   UNL     1      -5.054   2.818  -3.424  0.00  0.00    -0.263 NA
ATOM     35  C   UNL     1      -3.822   2.484  -3.755  0.00  0.00    +0.112 A 
ENDBRANCH  29  30
ENDBRANCH  27  29
BRANCH  27  36
ATOM     36  C   UNL     1      -2.558  -1.309  -4.139  0.00  0.00    -0.002 C 
BRANCH  36  37
ATOM     37  C   UNL     1      -2.429  -1.831  -5.547  0.00  0.00    +0.089 A 
ATOM     38  C   UNL     1      -1.616  -2.826  -5.946  0.00  0.00    +0.042 A 
ATOM     39  C   UNL     1      -1.815  -2.986  -7.336  0.00  0.00    +0.041 A 
ATOM     40  C   UNL     1      -2.739  -2.080  -7.704  0.00  0.00    +0.195 A 
ATOM     41  O   UNL     1      -3.112  -1.387  -6.615  0.00  0.00    -0.470 OA
ENDBRANCH  36  37
ENDBRANCH  27  36
ENDBRANCH   1  27
TORSDOF 8
