REMARK  Name = ZINC08624336
REMARK  7 active torsions:
REMARK  status: ('A' for Active; 'I' for Inactive)
REMARK    1  A    between atoms: C_10  and  C_12
REMARK    2  A    between atoms: C_12  and  C_13
REMARK    3  A    between atoms: C_15  and  O_34
REMARK    4  A    between atoms: C_17  and  O_33
REMARK    5  A    between atoms: C_19  and  C_22
REMARK    6  A    between atoms: C_22  and  N_23
REMARK    7  A    between atoms: N_26  and  C_27
REMARK                            x       y       z     vdW  Elec       q    Type
REMARK                         _______ _______ _______ _____ _____    ______ ____
ROOT
ATOM      1  C   UNL     1       0.002  -0.004   0.002  0.00  0.00    +0.159 C 
ATOM      2  C   UNL     1      -1.433  -0.548   0.139  0.00  0.00    +0.175 C 
ATOM      3  C   UNL     1      -1.635  -1.410  -1.131  0.00  0.00    +0.176 C 
ATOM      4  C   UNL     1      -0.175  -1.706  -1.558  0.00  0.00    +0.167 C 
ATOM      5  O   UNL     1       0.521  -0.479  -1.251  0.00  0.00    -0.366 OA
ENDROOT
BRANCH   3   6
ATOM      6  O   UNL     1      -2.331  -2.619  -0.822  0.00  0.00    -0.387 OA
ATOM      7  H   UNL     1      -3.219  -2.481  -0.465  0.00  0.00    +0.210 HD
ENDBRANCH   3   6
BRANCH   2   8
ATOM      8  O   UNL     1      -1.553  -1.353   1.314  0.00  0.00    -0.387 OA
ATOM      9  H   UNL     1      -2.436  -1.722   1.450  0.00  0.00    +0.210 HD
ENDBRANCH   2   8
BRANCH   1  10
ATOM     10  C   UNL     1      -0.019   1.526   0.010  0.00  0.00    +0.130 C 
BRANCH  10  20
ATOM     11  C   UNL     1      -1.020   6.595   0.048  0.00  0.00    +0.000 A 
ATOM     12  C   UNL     1      -1.573   5.327   0.046  0.00  0.00    +0.002 A 
ATOM     13  C   UNL     1      -0.759   4.215   0.032  0.00  0.00    +0.024 A 
ATOM     14  C   UNL     1       0.630   4.360   0.020  0.00  0.00    +0.039 A 
ATOM     15  C   UNL     1       1.174   5.634   0.022  0.00  0.00    -0.024 A 
ATOM     16  C   UNL     1       0.354   6.746   0.036  0.00  0.00    +0.005 A 
ATOM     17  C   UNL     1       2.681   5.514   0.007  0.00  0.00    +0.056 C 
ATOM     18  C   UNL     1       2.949   4.000   0.001  0.00  0.00    +0.118 C 
ATOM     19  N   UNL     1       1.623   3.376   0.005  0.00  0.00    -0.271 N 
ATOM     20  C   UNL     1       1.395   2.047  -0.000  0.00  0.00    +0.222 C 
ATOM     21  O   UNL     1       2.328   1.272  -0.013  0.00  0.00    -0.275 OA
ENDBRANCH  10  20
ENDBRANCH   1  10
BRANCH   4  22
ATOM     22  C   UNL     1      -0.102  -2.006  -3.057  0.00  0.00    +0.140 C 
BRANCH  22  23
ATOM     23  N   UNL     1       1.264  -2.399  -3.411  0.00  0.00    -0.297 N 
ATOM     24  C   UNL     1       1.567  -2.712  -4.686  0.00  0.00    +0.300 C 
ATOM     25  O   UNL     1       0.705  -2.668  -5.543  0.00  0.00    -0.253 OA
ATOM     26  N   UNL     1       2.824  -3.072  -5.011  0.00  0.00    -0.297 N 
ATOM     27  H   UNL     1       1.951  -2.433  -2.727  0.00  0.00    +0.150 HD
ATOM     28  H   UNL     1       3.511  -3.107  -4.328  0.00  0.00    +0.151 HD
BRANCH  26  29
ATOM     29  C   UNL     1       3.152  -3.413  -6.398  0.00  0.00    +0.074 C 
ATOM     30  C   UNL     1       2.820  -4.884  -6.655  0.00  0.00    +0.022 C 
ATOM     31  C   UNL     1       3.164  -5.239  -8.103  0.00  0.00    +0.002 C 
ATOM     32  C   UNL     1       4.656  -5.003  -8.346  0.00  0.00    +0.000 C 
ATOM     33  C   UNL     1       4.988  -3.532  -8.089  0.00  0.00    +0.002 C 
ATOM     34  C   UNL     1       4.644  -3.177  -6.641  0.00  0.00    +0.022 C 
ENDBRANCH  26  29
ENDBRANCH  22  23
ENDBRANCH   4  22
TORSDOF 7
