REMARK  Name = ZINC10031659
REMARK  6 active torsions:
REMARK  status: ('A' for Active; 'I' for Inactive)
REMARK    1  A    between atoms: C_1  and  C_2
REMARK    2  A    between atoms: C_7  and  C_8
REMARK    3  A    between atoms: C_8  and  O_10
REMARK    4  A    between atoms: O_10  and  C_11
REMARK    5  A    between atoms: C_11  and  C_12
REMARK    6  A    between atoms: C_25  and  C_27
REMARK                            x       y       z     vdW  Elec       q    Type
REMARK                         _______ _______ _______ _____ _____    ______ ____
ROOT
ATOM      1  C   UNL     1      -1.454   6.094  -1.014  0.00  0.00    +0.258 C 
ATOM      2  O   UNL     1      -2.393   5.338  -0.879  0.00  0.00    -0.271 OA
ATOM      3  N   UNL     1      -1.671   7.402  -1.257  0.00  0.00    -0.264 N 
ATOM      4  C   UNL     1      -0.596   8.288  -1.410  0.00  0.00    +0.058 A 
ATOM      5  C   UNL     1       0.183   8.261  -2.555  0.00  0.00    +0.025 A 
ATOM      6  C   UNL     1       1.220   9.164  -2.704  0.00  0.00    +0.002 A 
ATOM      7  C   UNL     1       1.482  10.095  -1.715  0.00  0.00    +0.002 A 
ATOM      8  C   UNL     1       0.722  10.119  -0.576  0.00  0.00    +0.025 A 
ATOM      9  C   UNL     1      -0.309   9.210  -0.410  0.00  0.00    +0.055 A 
ATOM     10  N   UNL     1      -1.073   9.194   0.764  0.00  0.00    -0.284 N 
ATOM     11  C   UNL     1      -2.423   9.173   0.706  0.00  0.00    +0.219 C 
ATOM     12  O   UNL     1      -3.068   9.083   1.729  0.00  0.00    -0.275 OA
ATOM     13  C   UNL     1      -3.132   9.261  -0.620  0.00  0.00    +0.118 C 
ATOM     14  C   UNL     1      -3.033   7.926  -1.360  0.00  0.00    +0.087 C 
ATOM     15  C   UNL     1      -3.388   8.134  -2.834  0.00  0.00    +0.029 C 
ATOM     16  H   UNL     1      -0.628   9.198   1.627  0.00  0.00    +0.155 HD
ENDROOT
BRANCH   1  17
ATOM     17  C   UNL     1      -0.044   5.570  -0.911  0.00  0.00    +0.328 C 
BRANCH  17  18
ATOM     18  O   UNL     1      -0.077   4.143  -0.648  0.00  0.00    -0.452 OA
BRANCH  18  19
ATOM     19  C   UNL     1       1.110   3.516  -0.527  0.00  0.00    +0.340 C 
ATOM     20  O   UNL     1       2.143   4.145  -0.638  0.00  0.00    -0.245 OA
BRANCH  19  27
ATOM     21  C   UNL     1       3.651   2.237  -0.003  0.00  0.00    +0.044 C 
ATOM     22  C   UNL     1       2.375   1.436  -0.004  0.00  0.00    -0.036 A 
ATOM     23  C   UNL     1       2.411   0.079   0.245  0.00  0.00    +0.007 A 
ATOM     24  C   UNL     1       1.241  -0.659   0.245  0.00  0.00    +0.038 A 
ATOM     25  C   UNL     1       0.025  -0.043  -0.007  0.00  0.00    +0.124 A 
ATOM     26  C   UNL     1      -0.024   1.315  -0.258  0.00  0.00    +0.053 A 
ATOM     27  C   UNL     1       1.154   2.064  -0.258  0.00  0.00    +0.065 A 
ATOM     28  F   UNL     1      -1.113  -0.770  -0.006  0.00  0.00    -0.205 F 
ENDBRANCH  19  27
ENDBRANCH  18  19
ENDBRANCH  17  18
ENDBRANCH   1  17
TORSDOF 4
