REMARK  Name = ZINC66523674
REMARK  7 active torsions:
REMARK  status: ('A' for Active; 'I' for Inactive)
REMARK    1  A    between atoms: C_1  and  C_2
REMARK    2  A    between atoms: C_2  and  C_3
REMARK    3  A    between atoms: C_3  and  C_5
REMARK    4  A    between atoms: C_3  and  N_15
REMARK    5  A    between atoms: C_16  and  C_18
REMARK    6  A    between atoms: C_18  and  O_19
REMARK    7  A    between atoms: O_19  and  C_20
REMARK                            x       y       z     vdW  Elec       q    Type
REMARK                         _______ _______ _______ _____ _____    ______ ____
ROOT
ATOM      1  N   UNL     1      -0.008  -0.140   2.444  0.00  0.00    -0.303 N 
ATOM      2  C   UNL     1       0.164   1.077   2.997  0.00  0.00    +0.251 C 
ATOM      3  O   UNL     1       0.941   1.865   2.500  0.00  0.00    -0.272 OA
ATOM      4  H   UNL     1      -0.629  -0.770   2.842  0.00  0.00    +0.149 HD
ENDROOT
BRANCH   1   5
ATOM      5  C   UNL     1       0.742  -0.511   1.242  0.00  0.00    +0.139 C 
BRANCH   5   6
ATOM      6  C   UNL     1       0.870  -2.011   1.172  0.00  0.00    +0.129 A 
ATOM      7  N   UNL     1       2.041  -2.698   1.262  0.00  0.00    -0.340 N 
ATOM      8  H   UNL     1       2.924  -2.316   1.381  0.00  0.00    +0.167 HD
ATOM      9  C   UNL     1       1.738  -4.041   1.154  0.00  0.00    +0.066 A 
ATOM     10  C   UNL     1       2.491  -5.206   1.172  0.00  0.00    +0.028 A 
ATOM     11  C   UNL     1       1.865  -6.427   1.035  0.00  0.00    +0.002 A 
ATOM     12  C   UNL     1       0.488  -6.497   0.879  0.00  0.00    +0.002 A 
ATOM     13  C   UNL     1      -0.270  -5.361   0.859  0.00  0.00    +0.030 A 
ATOM     14  C   UNL     1       0.343  -4.112   0.997  0.00  0.00    +0.089 A 
ATOM     15  N   UNL     1      -0.124  -2.837   1.022  0.00  0.00    -0.231 NA
ENDBRANCH   5   6
BRANCH   5  17
ATOM     16  C   UNL     1      -0.019   1.526   0.010  0.00  0.00    +0.006 C 
ATOM     17  C   UNL     1       0.002  -0.004   0.002  0.00  0.00    +0.027 C 
ENDBRANCH   5  17
ENDBRANCH   1   5
BRANCH   2  18
ATOM     18  C   UNL     1      -0.608   1.458   4.234  0.00  0.00    +0.324 C 
BRANCH  18  19
ATOM     19  O   UNL     1      -0.254   2.786   4.626  0.00  0.00    -0.483 OA
BRANCH  19  20
ATOM     20  C   UNL     1      -0.866   3.287   5.732  0.00  0.00    +0.122 A 
ATOM     21  C   UNL     1      -1.782   2.513   6.428  0.00  0.00    +0.047 A 
ATOM     22  C   UNL     1      -2.404   3.020   7.552  0.00  0.00    +0.027 A 
ATOM     23  C   UNL     1      -2.111   4.307   7.985  0.00  0.00    +0.037 A 
ATOM     24  C   UNL     1      -1.194   5.081   7.287  0.00  0.00    -0.022 A 
ATOM     25  C   UNL     1      -0.569   4.570   6.167  0.00  0.00    +0.051 A 
ATOM     26  C   UNL     1      -0.877   6.476   7.760  0.00  0.00    +0.046 C 
ATOM     27  C   UNL     1      -2.130   7.106   8.368  0.00  0.00    +0.101 C 
ATOM     28  C   UNL     1      -2.762   6.152   9.346  0.00  0.00    +0.218 C 
ATOM     29  O   UNL     1      -3.297   6.584  10.345  0.00  0.00    -0.275 OA
ATOM     30  N   UNL     1      -2.739   4.825   9.124  0.00  0.00    -0.285 N 
ATOM     31  H   UNL     1      -3.161   4.223   9.757  0.00  0.00    +0.155 HD
ENDBRANCH  19  20
ENDBRANCH  18  19
ENDBRANCH   2  18
TORSDOF 6
