REMARK  Name = ZINC04773074
REMARK  4 active torsions:
REMARK  status: ('A' for Active; 'I' for Inactive)
REMARK    1  A    between atoms: C_8  and  N_11
REMARK    2  A    between atoms: N_11  and  O_18
REMARK    3  A    between atoms: N_14  and  C_15
REMARK    4  A    between atoms: C_15  and  C_16
REMARK                            x       y       z     vdW  Elec       q    Type
REMARK                         _______ _______ _______ _____ _____    ______ ____
ROOT
ATOM      1  C   UNL     1      -0.018   1.072  -0.011  0.00  0.00    +0.007 C 
ATOM      2  C   UNL     1      -0.726   1.568   1.251  0.00  0.00    -0.008 C 
ATOM      3  C   UNL     1      -0.742   3.098   1.259  0.00  0.00    +0.007 C 
ATOM      4  C   UNL     1      -1.486   3.607   0.023  0.00  0.00    -0.008 C 
ATOM      5  C   UNL     1      -0.777   3.111  -1.239  0.00  0.00    +0.007 C 
ATOM      6  C   UNL     1      -0.762   1.581  -1.247  0.00  0.00    -0.008 C 
ATOM      7  C   UNL     1      -2.199   1.057  -1.229  0.00  0.00    +0.032 C 
ATOM      8  C   UNL     1      -2.907   1.553   0.033  0.00  0.00    +0.066 C 
ATOM      9  C   UNL     1      -2.163   1.044   1.269  0.00  0.00    +0.032 C 
ATOM     10  C   UNL     1      -2.923   3.083   0.041  0.00  0.00    +0.032 C 
ENDROOT
BRANCH   8  11
ATOM     11  N   UNL     1      -4.283   1.050   0.050  0.00  0.00    -0.162 N 
ATOM     12  C   UNL     1      -5.102   1.362   1.074  0.00  0.00    +0.326 C 
ATOM     13  O   UNL     1      -4.729   2.134   1.937  0.00  0.00    -0.250 OA
ATOM     14  N   UNL     1      -6.333   0.818   1.142  0.00  0.00    -0.296 N 
ATOM     15  H   UNL     1      -6.604   0.147   0.496  0.00  0.00    +0.150 HD
BRANCH  11  16
ATOM     16  O   UNL     1      -4.753   0.237  -1.010  0.00  0.00    -0.291 OA
ATOM     17  H   UNL     1      -5.646  -0.108  -0.874  0.00  0.00    +0.242 HD
ENDBRANCH  11  16
BRANCH  14  18
ATOM     18  C   UNL     1      -7.263   1.241   2.192  0.00  0.00    +0.121 C 
BRANCH  18  19
ATOM     19  C   UNL     1      -8.580   0.476   2.045  0.00  0.00    +0.127 C 
ATOM     20 CL   UNL     1      -9.725   0.996   3.337  0.00  0.00    -0.124 Cl
ENDBRANCH  18  19
ENDBRANCH  14  18
ENDBRANCH   8  11
TORSDOF 4
