REMARK  Name = ZINC20559595
REMARK  7 active torsions:
REMARK  status: ('A' for Active; 'I' for Inactive)
REMARK    1  A    between atoms: C_5  and  N_7
REMARK    2  A    between atoms: C_8  and  C_10
REMARK    3  A    between atoms: C_10  and  C_11
REMARK    4  A    between atoms: N_18  and  C_19
REMARK    5  A    between atoms: C_19  and  C_21
REMARK    6  A    between atoms: C_19  and  C_28
REMARK    7  A    between atoms: C_24  and  O_27
REMARK                            x       y       z     vdW  Elec       q    Type
REMARK                         _______ _______ _______ _____ _____    ______ ____
ROOT
ATOM      1  C   UNL     1       3.684   2.648  -0.030  0.00  0.00    +0.150 C 
ATOM      2  C   UNL     1       2.500   3.606  -0.020  0.00  0.00    +0.252 C 
ATOM      3  O   UNL     1       2.627   4.815  -0.016  0.00  0.00    -0.272 OA
ATOM      4  N   UNL     1       1.335   3.014  -0.016  0.00  0.00    -0.158 NA
ATOM      5  C   UNL     1       1.167   1.701  -0.021  0.00  0.00    +0.148 C 
ATOM      6  S   UNL     1       2.777   1.050  -0.025  0.00  0.00    -0.080 S 
ATOM      7  N   UNL     1      -0.010   1.012  -0.017  0.00  0.00    -0.314 N 
ATOM      8  H   UNL     1      -0.003  -0.088  -0.017  0.00  0.00    +0.149 HD
ENDROOT
BRANCH   1   9
ATOM      9  C   UNL     1       4.540   2.803   1.229  0.00  0.00    +0.120 C 
BRANCH   9  11
ATOM     10  N   UNL     1       6.665   1.901   2.118  0.00  0.00    -0.283 N 
ATOM     11  C   UNL     1       5.761   1.927   1.118  0.00  0.00    +0.219 C 
ATOM     12  O   UNL     1       5.931   1.245   0.129  0.00  0.00    -0.275 OA
ATOM     13  H   UNL     1       6.549   2.572   2.981  0.00  0.00    +0.155 HD
BRANCH  10  18
ATOM     14  C   UNL     1       9.407  -0.152   0.778  0.00  0.00    +0.002 A 
ATOM     15  C   UNL     1       9.898  -0.725   1.937  0.00  0.00    +0.003 A 
ATOM     16  C   UNL     1       9.318  -0.430   3.157  0.00  0.00    +0.040 A 
ATOM     17  C   UNL     1       8.248   0.444   3.222  0.00  0.00    +0.144 A 
ATOM     18  C   UNL     1       7.750   1.018   2.057  0.00  0.00    +0.069 A 
ATOM     19  C   UNL     1       8.336   0.719   0.835  0.00  0.00    +0.026 A 
ATOM     20  F   UNL     1       7.685   0.737   4.414  0.00  0.00    -0.204 F 
ENDBRANCH  10  18
ENDBRANCH   9  11
ENDBRANCH   1   9
BRANCH   7  21
ATOM     21  C   UNL     1      -1.283   1.736  -0.013  0.00  0.00    +0.143 C 
BRANCH  21  22
ATOM     22  C   UNL     1      -1.660   2.098  -1.426  0.00  0.00    +0.106 A 
ATOM     23  C   UNL     1      -1.925   3.392  -1.761  0.00  0.00    +0.263 A 
ATOM     24  N   UNL     1      -2.261   3.700  -3.056  0.00  0.00    -0.275 N 
ATOM     25  H   UNL     1      -2.468   4.743  -3.337  0.00  0.00    +0.173 HD
ATOM     26  C   UNL     1      -2.339   2.732  -3.988  0.00  0.00    +0.329 A 
ATOM     27  O   UNL     1      -2.643   3.023  -5.128  0.00  0.00    -0.247 OA
ATOM     28  N   UNL     1      -2.086   1.448  -3.676  0.00  0.00    -0.275 N 
ATOM     29  H   UNL     1      -2.155   0.670  -4.450  0.00  0.00    +0.173 HD
ATOM     30  C   UNL     1      -1.748   1.104  -2.417  0.00  0.00    +0.263 A 
ATOM     31  O   UNL     1      -1.520  -0.061  -2.140  0.00  0.00    -0.267 OA
ATOM     32  O   UNL     1      -1.854   4.365  -0.828  0.00  0.00    -0.267 OA
ENDBRANCH  21  22
BRANCH  21  33
ATOM     33  C   UNL     1      -2.356   0.863   0.585  0.00  0.00    -0.022 A 
ATOM     34  C   UNL     1      -2.397  -0.485   0.282  0.00  0.00    +0.009 A 
ATOM     35  C   UNL     1      -3.376  -1.289   0.833  0.00  0.00    +0.046 A 
ATOM     36  C   UNL     1      -4.325  -0.740   1.683  0.00  0.00    +0.117 A 
ATOM     37  C   UNL     1      -4.285   0.615   1.981  0.00  0.00    +0.046 A 
ATOM     38  C   UNL     1      -3.301   1.413   1.432  0.00  0.00    +0.009 A 
BRANCH  36  39
ATOM     39  O   UNL     1      -5.293  -1.527   2.223  0.00  0.00    -0.507 OA
ATOM     40  H   UNL     1      -6.045  -1.091   2.896  0.00  0.00    +0.292 HD
ENDBRANCH  36  39
ENDBRANCH  21  33
ENDBRANCH   7  21
TORSDOF 7
