REMARK  Name = ZINC58101506
REMARK  6 active torsions:
REMARK  status: ('A' for Active; 'I' for Inactive)
REMARK    1  A    between atoms: C_2  and  C_3
REMARK    2  A    between atoms: C_3  and  N_4
REMARK    3  A    between atoms: C_5  and  C_7
REMARK    4  A    between atoms: C_12  and  N_13
REMARK    5  A    between atoms: C_14  and  C_16
REMARK    6  A    between atoms: C_16  and  N_17
REMARK                            x       y       z     vdW  Elec       q    Type
REMARK                         _______ _______ _______ _____ _____    ______ ____
ROOT
ATOM      1  N   UNL     1      -4.471  -4.263  -1.645  0.00  0.00    -0.284 N 
ATOM      2  C   UNL     1      -5.461  -5.176  -1.695  0.00  0.00    +0.235 C 
ATOM      3  O   UNL     1      -5.419  -6.072  -2.511  0.00  0.00    -0.274 OA
ATOM      4  H   UNL     1      -4.473  -3.583  -0.954  0.00  0.00    +0.155 HD
ENDROOT
BRANCH   1  10
ATOM      5  C   UNL     1      -2.981  -3.108  -3.167  0.00  0.00    +0.058 A 
ATOM      6  C   UNL     1      -1.947  -3.155  -4.105  0.00  0.00    +0.015 A 
ATOM      7  C   UNL     1      -1.392  -4.367  -4.455  0.00  0.00    +0.001 A 
ATOM      8  C   UNL     1      -1.855  -5.541  -3.883  0.00  0.00    +0.002 A 
ATOM      9  C   UNL     1      -2.877  -5.510  -2.955  0.00  0.00    +0.024 A 
ATOM     10  C   UNL     1      -3.444  -4.298  -2.585  0.00  0.00    +0.046 A 
BRANCH   5  12
ATOM     11  N   UNL     1      -3.054  -0.665  -3.256  0.00  0.00    -0.308 N 
ATOM     12  C   UNL     1      -3.579  -1.814  -2.787  0.00  0.00    +0.246 C 
ATOM     13  O   UNL     1      -4.545  -1.784  -2.049  0.00  0.00    -0.270 OA
ATOM     14  H   UNL     1      -2.284  -0.689  -3.845  0.00  0.00    +0.149 HD
BRANCH  11  15
ATOM     15  C   UNL     1      -3.648   0.620  -2.878  0.00  0.00    +0.131 C 
BRANCH  15  17
ATOM     16  C   UNL     1      -3.508   2.617  -4.276  0.00  0.00    +0.005 C 
ATOM     17  C   UNL     1      -2.881   1.740  -3.532  0.00  0.00    -0.016 C 
ENDBRANCH  15  17
ENDBRANCH  11  15
ENDBRANCH   5  12
ENDBRANCH   1  10
BRANCH   2  18
ATOM     18  C   UNL     1      -6.620  -5.084  -0.737  0.00  0.00    +0.214 C 
BRANCH  18  19
ATOM     19  N   UNL     1      -7.554  -6.183  -0.993  0.00  0.00    -0.215 N 
ATOM     20  C   UNL     1      -8.588  -6.115  -1.860  0.00  0.00    +0.247 C 
ATOM     21  O   UNL     1      -8.909  -5.171  -2.549  0.00  0.00    -0.273 OA
ATOM     22  C   UNL     1      -9.256  -7.465  -1.788  0.00  0.00    +0.113 C 
ATOM     23  C   UNL     1      -9.245  -8.159  -3.156  0.00  0.00    +0.035 C 
ATOM     24  C   UNL     1     -10.589  -8.931  -3.196  0.00  0.00    +0.003 C 
ATOM     25  C   UNL     1     -11.564  -7.962  -2.480  0.00  0.00    +0.003 C 
ATOM     26  C   UNL     1     -10.717  -7.339  -1.349  0.00  0.00    +0.035 C 
ATOM     27  N   UNL     1      -8.466  -8.214  -0.809  0.00  0.00    -0.285 N 
ATOM     28  C   UNL     1      -7.486  -7.383  -0.400  0.00  0.00    +0.310 C 
ATOM     29  O   UNL     1      -6.638  -7.686   0.416  0.00  0.00    -0.252 OA
ATOM     30  H   UNL     1      -8.616  -9.126  -0.515  0.00  0.00    +0.151 HD
ENDBRANCH  18  19
ENDBRANCH   2  18
TORSDOF 6
