REMARK  Name = ZINC01248984
REMARK  5 active torsions:
REMARK  status: ('A' for Active; 'I' for Inactive)
REMARK    1  A    between atoms: C_1  and  C_2
REMARK    2  A    between atoms: C_7  and  C_8
REMARK    3  A    between atoms: N_14  and  N_15
REMARK    4  A    between atoms: C_16  and  C_17
REMARK    5  A    between atoms: C_22  and  O_23
REMARK                            x       y       z     vdW  Elec       q    Type
REMARK                         _______ _______ _______ _____ _____    ______ ____
ROOT
ATOM      1  C   UNL     1       4.445   6.768   1.263  0.00  0.00    +0.184 A 
ATOM      2  N   UNL     1       5.583   7.354   1.010  0.00  0.00    -0.152 NA
ATOM      3  N   UNL     1       5.638   7.621  -0.364  0.00  0.00    -0.253 N 
ATOM      4  H   UNL     1       6.367   8.054  -0.835  0.00  0.00    +0.191 HD
ATOM      5  C   UNL     1       4.493   7.166  -0.913  0.00  0.00    +0.197 A 
ATOM      6  S   UNL     1       4.063   7.250  -2.568  0.00  0.00    -0.010 S 
ATOM      7  N   UNL     1       3.749   6.634   0.077  0.00  0.00    -0.188 N 
ENDROOT
BRANCH   1  14
ATOM      8  C   UNL     1       6.230   5.258   2.967  0.00  0.00    +0.044 C 
ATOM      9  C   UNL     1       4.832   5.590   3.424  0.00  0.00    -0.040 A 
ATOM     10  C   UNL     1       4.394   5.178   4.666  0.00  0.00    +0.004 A 
ATOM     11  C   UNL     1       3.111   5.478   5.084  0.00  0.00    +0.000 A 
ATOM     12  C   UNL     1       2.259   6.196   4.263  0.00  0.00    +0.001 A 
ATOM     13  C   UNL     1       2.687   6.618   3.022  0.00  0.00    +0.012 A 
ATOM     14  C   UNL     1       3.981   6.319   2.594  0.00  0.00    +0.024 A 
ENDBRANCH   1  14
BRANCH   7  15
ATOM     15  N   UNL     1       2.483   6.052  -0.070  0.00  0.00    -0.170 NA
ATOM     16  C   UNL     1       2.378   4.780  -0.314  0.00  0.00    +0.145 C 
BRANCH  16  17
ATOM     17  C   UNL     1       1.047   4.168  -0.469  0.00  0.00    +0.036 A 
ATOM     18  C   UNL     1       0.930   2.800  -0.731  0.00  0.00    +0.013 A 
ATOM     19  C   UNL     1      -0.319   2.233  -0.874  0.00  0.00    +0.001 A 
ATOM     20  C   UNL     1      -1.457   3.014  -0.765  0.00  0.00    +0.004 A 
ATOM     21  C   UNL     1      -1.355   4.366  -0.500  0.00  0.00    +0.046 A 
ATOM     22  C   UNL     1      -0.108   4.953  -0.354  0.00  0.00    +0.125 A 
BRANCH  22  23
ATOM     23  O   UNL     1      -0.006   6.283  -0.099  0.00  0.00    -0.506 OA
ATOM     24  H   UNL     1       0.049   6.832  -0.892  0.00  0.00    +0.292 HD
ENDBRANCH  22  23
ENDBRANCH  16  17
ENDBRANCH   7  15
TORSDOF 4
