REMARK  Name = ZINC61544261
REMARK  7 active torsions:
REMARK  status: ('A' for Active; 'I' for Inactive)
REMARK    1  A    between atoms: C_1  and  C_2
REMARK    2  A    between atoms: C_2  and  N_3
REMARK    3  A    between atoms: N_3  and  C_4
REMARK    4  A    between atoms: C_4  and  C_5
REMARK    5  A    between atoms: C_8  and  S_13
REMARK    6  A    between atoms: S_13  and  C_14
REMARK    7  A    between atoms: C_20  and  N_22
REMARK                            x       y       z     vdW  Elec       q    Type
REMARK                         _______ _______ _______ _____ _____    ______ ____
ROOT
ATOM      1  N   UNL     1       0.688  -0.476  -1.203  0.00  0.00    -0.300 N 
ATOM      2  C   UNL     1      -0.030  -0.710  -2.359  0.00  0.00    +0.223 A 
ATOM      3  N   UNL     1       0.591  -1.144  -3.451  0.00  0.00    -0.188 NA
ATOM      4  C   UNL     1      -0.104  -1.368  -4.561  0.00  0.00    +0.201 A 
ATOM      5  N   UNL     1      -1.417  -1.157  -4.576  0.00  0.00    -0.191 NA
ATOM      6  C   UNL     1      -2.032  -0.725  -3.488  0.00  0.00    +0.228 A 
ATOM      7  N   UNL     1      -1.345  -0.506  -2.379  0.00  0.00    -0.184 NA
ATOM      8 CL   UNL     1      -3.747  -0.452  -3.512  0.00  0.00    -0.041 Cl
ENDROOT
BRANCH   1  10
ATOM      9  C   UNL     1      -0.019   1.526   0.010  0.00  0.00    +0.024 C 
ATOM     10  C   UNL     1       0.002  -0.004   0.002  0.00  0.00    +0.104 C 
ENDBRANCH   1  10
BRANCH   1  11
ATOM     11  C   UNL     1       2.135  -0.701  -1.182  0.00  0.00    +0.104 C 
ATOM     12  C   UNL     1       2.421  -2.145  -0.763  0.00  0.00    +0.024 C 
ENDBRANCH   1  11
BRANCH   4  13
ATOM     13  S   UNL     1       0.715  -1.942  -6.012  0.00  0.00    -0.012 S 
BRANCH  13  14
ATOM     14  C   UNL     1      -0.579  -2.092  -7.199  0.00  0.00    +0.178 A 
ATOM     15  N   UNL     1      -0.283  -2.528  -8.455  0.00  0.00    -0.302 N 
ATOM     16  H   UNL     1       0.631  -2.752  -8.687  0.00  0.00    +0.171 HD
ATOM     17  C   UNL     1      -1.261  -2.650  -9.377  0.00  0.00    +0.254 A 
ATOM     18  O   UNL     1      -1.005  -3.040 -10.505  0.00  0.00    -0.268 OA
ATOM     19  C   UNL     1      -2.572  -2.321  -9.019  0.00  0.00    +0.113 A 
ATOM     20  C   UNL     1      -2.820  -1.881  -7.726  0.00  0.00    +0.124 A 
ATOM     21  N   UNL     1      -1.810  -1.785  -6.853  0.00  0.00    -0.208 NA
BRANCH  20  22
ATOM     22  N   UNL     1      -4.103  -1.548  -7.341  0.00  0.00    -0.343 N 
ATOM     23  H   UNL     1      -4.834  -1.622  -7.975  0.00  0.00    +0.144 HD
ATOM     24  H   UNL     1      -4.274  -1.241  -6.437  0.00  0.00    +0.144 HD
ENDBRANCH  20  22
ENDBRANCH  13  14
ENDBRANCH   4  13
TORSDOF 5
