REMARK  Name = ZINC50672881
REMARK  5 active torsions:
REMARK  status: ('A' for Active; 'I' for Inactive)
REMARK    1  A    between atoms: C_1  and  N_2
REMARK    2  A    between atoms: C_3  and  N_7
REMARK    3  A    between atoms: N_7  and  S_8
REMARK    4  A    between atoms: S_8  and  C_11
REMARK    5  A    between atoms: C_16  and  N_17
REMARK                            x       y       z     vdW  Elec       q    Type
REMARK                         _______ _______ _______ _____ _____    ______ ____
ROOT
ATOM      1  S   UNL     1       0.135  -1.469  -3.673  0.00  0.00    +0.077 S 
ATOM      2  O   UNL     1       0.245  -0.839  -4.942  0.00  0.00    -0.150 OA
ATOM      3  O   UNL     1       1.137  -2.339  -3.165  0.00  0.00    -0.150 OA
ENDROOT
BRANCH   1   4
ATOM      4  C   UNL     1      -1.367  -2.391  -3.698  0.00  0.00    +0.149 A 
ATOM      5  C   UNL     1      -1.379  -3.720  -3.314  0.00  0.00    +0.049 A 
ATOM      6  C   UNL     1      -2.585  -4.409  -3.349  0.00  0.00    +0.038 A 
ATOM      7  C   UNL     1      -3.728  -3.751  -3.762  0.00  0.00    +0.128 A 
ATOM      8  N   UNL     1      -3.685  -2.482  -4.123  0.00  0.00    -0.238 NA
ATOM      9  C   UNL     1      -2.556  -1.791  -4.097  0.00  0.00    +0.143 A 
ATOM     10 BR   UNL     1      -2.663  -6.227  -2.836  0.00  0.00    -0.049 Br
BRANCH   9  11
ATOM     11  N   UNL     1      -2.558  -0.454  -4.479  0.00  0.00    -0.342 N 
ATOM     12  H   UNL     1      -1.752   0.077  -4.391  0.00  0.00    +0.144 HD
ATOM     13  H   UNL     1      -3.367  -0.052  -4.835  0.00  0.00    +0.144 HD
ENDBRANCH   9  11
ENDBRANCH   1   4
BRANCH   1  14
ATOM     14  N   UNL     1      -0.052  -0.259  -2.558  0.00  0.00    -0.200 N 
ATOM     15  H   UNL     1      -0.056   0.668  -2.844  0.00  0.00    +0.175 HD
BRANCH  14  18
ATOM     16  C   UNL     1      -0.196   1.769  -0.301  0.00  0.00    +0.174 C 
ATOM     17  N   UNL     1      -0.270   0.310  -0.188  0.00  0.00    -0.252 N 
ATOM     18  C   UNL     1      -0.203  -0.572  -1.210  0.00  0.00    +0.136 A 
ATOM     19  C   UNL     1      -0.310  -1.823  -0.682  0.00  0.00    +0.066 A 
ATOM     20  C   UNL     1      -0.447  -1.691   0.703  0.00  0.00    +0.136 A 
ATOM     21  N   UNL     1      -0.416  -0.417   1.000  0.00  0.00    -0.178 NA
ENDBRANCH  14  18
ENDBRANCH   1  14
TORSDOF 4
