REMARK  Name = ZINC01051516
REMARK  8 active torsions:
REMARK  status: ('A' for Active; 'I' for Inactive)
REMARK    1  A    between atoms: C_1  and  C_2
REMARK    2  A    between atoms: C_2  and  O_3
REMARK    3  A    between atoms: O_3  and  C_4
REMARK    4  A    between atoms: C_4  and  C_6
REMARK    5  A    between atoms: C_7  and  C_23
REMARK    6  A    between atoms: C_9  and  N_22
REMARK    7  A    between atoms: C_10  and  C_20
REMARK    8  A    between atoms: C_11  and  C_13
REMARK                            x       y       z     vdW  Elec       q    Type
REMARK                         _______ _______ _______ _____ _____    ______ ____
ROOT
ATOM      1  C   UNL     1      -0.852   6.409   1.309  0.00  0.00    +0.088 C 
ATOM      2  C   UNL     1      -2.109   6.859   1.216  0.00  0.00    +0.133 C 
ATOM      3  O   UNL     1      -2.736   6.996   0.038  0.00  0.00    -0.444 OA
ATOM      4  C   UNL     1      -2.010   7.049  -1.093  0.00  0.00    +0.198 C 
ATOM      5  C   UNL     1      -0.731   6.604  -1.142  0.00  0.00    +0.098 C 
ATOM      6  C   UNL     1      -0.069   6.030   0.081  0.00  0.00    +0.105 C 
ENDROOT
BRANCH   6   7
ATOM      7  C   UNL     1      -0.016   4.529  -0.035  0.00  0.00    -0.034 A 
ATOM      8  C   UNL     1       1.204   3.877  -0.024  0.00  0.00    +0.006 A 
ATOM      9  C   UNL     1       1.253   2.500  -0.131  0.00  0.00    +0.020 A 
ATOM     10  C   UNL     1       0.082   1.774  -0.250  0.00  0.00    +0.041 A 
ATOM     11  C   UNL     1      -1.138   2.426  -0.267  0.00  0.00    +0.020 A 
ATOM     12  C   UNL     1      -1.187   3.803  -0.153  0.00  0.00    +0.006 A 
ATOM     13 CL   UNL     1       0.143   0.044  -0.385  0.00  0.00    -0.084 Cl
ENDBRANCH   6   7
BRANCH   4  14
ATOM     14  N   UNL     1      -2.580   7.569  -2.228  0.00  0.00    -0.328 N 
ATOM     15  H   UNL     1      -2.069   7.613  -3.051  0.00  0.00    +0.145 HD
ATOM     16  H   UNL     1      -3.495   7.891  -2.208  0.00  0.00    +0.145 HD
ENDBRANCH   4  14
BRANCH   1  17
ATOM     17  C   UNL     1      -0.248   6.288   2.585  0.00  0.00    +0.339 C 
ATOM     18  O   UNL     1       0.521   7.144   2.978  0.00  0.00    -0.245 OA
BRANCH  17  19
ATOM     19  O   UNL     1      -0.528   5.222   3.364  0.00  0.00    -0.462 OA
BRANCH  19  21
ATOM     20  C   UNL     1      -0.320   3.895   5.373  0.00  0.00    +0.048 C 
ATOM     21  C   UNL     1       0.116   5.164   4.638  0.00  0.00    +0.229 C 
ENDBRANCH  19  21
ENDBRANCH  17  19
ENDBRANCH   1  17
BRANCH   5  22
ATOM     22  C   UNL     1      -0.002   6.681  -2.372  0.00  0.00    +0.101 C 
ATOM     23  N   UNL     1       0.577   6.741  -3.348  0.00  0.00    -0.191 NA
ENDBRANCH   5  22
BRANCH   2  24
ATOM     24  C   UNL     1      -2.846   7.226   2.478  0.00  0.00    +0.183 C 
ATOM     25 CL   UNL     1      -2.678   8.995   2.780  0.00  0.00    -0.117 Cl
ENDBRANCH   2  24
TORSDOF 7
