REMARK  Name = ZINC03126108
REMARK  7 active torsions:
REMARK  status: ('A' for Active; 'I' for Inactive)
REMARK    1  A    between atoms: C_1  and  C_2
REMARK    2  A    between atoms: C_5  and  C_8
REMARK    3  A    between atoms: C_8  and  N_16
REMARK    4  A    between atoms: C_9  and  C_10
REMARK    5  A    between atoms: C_11  and  C_12
REMARK    6  A    between atoms: C_11  and  C_14
REMARK    7  A    between atoms: N_16  and  C_17
REMARK                            x       y       z     vdW  Elec       q    Type
REMARK                         _______ _______ _______ _____ _____    ______ ____
ROOT
ATOM      1  C   UNL     1       0.146  -4.193   0.026  0.00  0.00    +0.039 C 
ATOM      2  C   UNL     1       0.174  -4.826  -1.202  0.00  0.00    +0.026 C 
ENDROOT
BRANCH   1   7
ATOM      3  C   UNL     1       0.305   1.549   0.307  0.00  0.00    +0.044 C 
ATOM      4  C   UNL     1       0.263   0.045   0.234  0.00  0.00    -0.050 A 
ATOM      5  C   UNL     1       0.292  -0.585  -0.998  0.00  0.00    +0.004 A 
ATOM      6  C   UNL     1       0.255  -1.962  -1.073  0.00  0.00    +0.010 A 
ATOM      7  C   UNL     1       0.187  -2.721   0.099  0.00  0.00    -0.004 A 
ATOM      8  C   UNL     1       0.158  -2.077   1.339  0.00  0.00    +0.010 A 
ATOM      9  C   UNL     1       0.202  -0.700   1.399  0.00  0.00    +0.004 A 
ENDBRANCH   1   7
BRANCH   2  10
ATOM     10  C   UNL     1       0.245  -6.215  -1.268  0.00  0.00    +0.032 C 
ATOM     11  C   UNL     1       0.380  -6.848  -2.502  0.00  0.00    +0.128 C 
BRANCH  11  12
ATOM     12  C   UNL     1       0.335  -6.079  -3.710  0.00  0.00    +0.110 C 
ATOM     13  N   UNL     1       0.298  -5.469  -4.668  0.00  0.00    -0.190 NA
ENDBRANCH  11  12
BRANCH  11  14
ATOM     14  C   UNL     1       0.564  -8.266  -2.563  0.00  0.00    +0.110 C 
ATOM     15  N   UNL     1       0.710  -9.392  -2.611  0.00  0.00    -0.190 NA
ENDBRANCH  11  14
ENDBRANCH   2  10
BRANCH   1  16
ATOM     16  N   UNL     1       0.080  -4.936   1.181  0.00  0.00    -0.314 N 
ATOM     17  H   UNL     1       0.795  -5.553   1.403  0.00  0.00    +0.152 HD
BRANCH  16  18
ATOM     18  C   UNL     1      -1.018  -4.803   2.035  0.00  0.00    +0.031 A 
ATOM     19  C   UNL     1      -2.117  -4.049   1.644  0.00  0.00    +0.024 A 
ATOM     20  C   UNL     1      -3.200  -3.919   2.491  0.00  0.00    +0.022 A 
ATOM     21  C   UNL     1      -3.192  -4.540   3.728  0.00  0.00    +0.041 A 
ATOM     22  C   UNL     1      -2.098  -5.291   4.120  0.00  0.00    +0.022 A 
ATOM     23  C   UNL     1      -1.014  -5.429   3.276  0.00  0.00    +0.024 A 
ATOM     24 CL   UNL     1      -4.555  -4.374   4.789  0.00  0.00    -0.084 Cl
ENDBRANCH  16  18
ENDBRANCH   1  16
TORSDOF 6
