REMARK  Name = ZINC24581366
REMARK  9 active torsions:
REMARK  status: ('A' for Active; 'I' for Inactive)
REMARK    1  A    between atoms: C_3  and  C_8
REMARK    2  A    between atoms: N_10  and  C_11
REMARK    3  A    between atoms: C_11  and  C_12
REMARK    4  A    between atoms: N_14  and  N_15
REMARK    5  A    between atoms: C_16  and  C_18
REMARK    6  A    between atoms: C_18  and  C_19
REMARK    7  A    between atoms: C_19  and  C_20
REMARK    8  A    between atoms: C_20  and  O_21
REMARK    9  A    between atoms: O_21  and  C_22
REMARK                            x       y       z     vdW  Elec       q    Type
REMARK                         _______ _______ _______ _____ _____    ______ ____
ROOT
ATOM      1  C   UNL     1       6.772  -6.136  -0.100  0.00  0.00    +0.246 C 
ATOM      2  O   UNL     1       5.821  -6.889  -0.095  0.00  0.00    -0.273 OA
ATOM      3  N   UNL     1       6.576  -4.803  -0.090  0.00  0.00    -0.233 N 
ATOM      4  H   UNL     1       7.438  -4.120  -0.095  0.00  0.00    +0.173 HD
ENDROOT
BRANCH   3   5
ATOM      5  N   UNL     1       5.273  -4.286  -0.074  0.00  0.00    -0.234 N 
ATOM      6  C   UNL     1       5.077  -2.953  -0.065  0.00  0.00    +0.229 C 
ATOM      7  O   UNL     1       6.028  -2.200  -0.070  0.00  0.00    -0.274 OA
ATOM      8  H   UNL     1       4.411  -4.969  -0.070  0.00  0.00    +0.173 HD
BRANCH   6   9
ATOM      9  C   UNL     1       3.676  -2.397  -0.048  0.00  0.00    +0.100 C 
BRANCH   9  10
ATOM     10  C   UNL     1       3.734  -0.868  -0.040  0.00  0.00    +0.050 C 
BRANCH  10  11
ATOM     11  C   UNL     1       2.312  -0.304  -0.023  0.00  0.00    +0.229 C 
BRANCH  11  12
ATOM     12  O   UNL     1       2.366   1.123  -0.015  0.00  0.00    -0.490 OA
BRANCH  12  13
ATOM     13  C   UNL     1       1.179   1.786   0.000  0.00  0.00    +0.139 A 
ATOM     14  C   UNL     1      -0.013   1.076   0.008  0.00  0.00    +0.048 A 
ATOM     15  C   UNL     1      -1.218   1.751   0.017  0.00  0.00    +0.023 A 
ATOM     16  C   UNL     1      -1.238   3.134   0.031  0.00  0.00    +0.043 A 
ATOM     17  C   UNL     1      -0.051   3.845   0.023  0.00  0.00    +0.043 A 
ATOM     18  C   UNL     1       1.157   3.174   0.008  0.00  0.00    +0.084 A 
ATOM     19 CL   UNL     1       2.647   4.066  -0.002  0.00  0.00    -0.080 Cl
ATOM     20 CL   UNL     1      -2.754   3.979   0.049  0.00  0.00    -0.083 Cl
ENDBRANCH  12  13
ENDBRANCH  11  12
ENDBRANCH  10  11
ENDBRANCH   9  10
ENDBRANCH   6   9
ENDBRANCH   3   5
BRANCH   1  21
ATOM     21  C   UNL     1       8.172  -6.691  -0.117  0.00  0.00    +0.202 C 
BRANCH  21  24
ATOM     22  C   UNL     1       9.258  -8.873  -0.140  0.00  0.00    +0.245 C 
ATOM     23  O   UNL     1      10.333  -8.305  -0.147  0.00  0.00    -0.270 OA
ATOM     24  N   UNL     1       8.117  -8.155  -0.124  0.00  0.00    -0.303 N 
ATOM     25  H   UNL     1       7.144  -8.669  -0.118  0.00  0.00    +0.150 HD
BRANCH  22  28
ATOM     26  C   UNL     1       7.924 -12.384  -0.146  0.00  0.00    +0.002 A 
ATOM     27  C   UNL     1       7.970 -11.005  -0.134  0.00  0.00    +0.013 A 
ATOM     28  C   UNL     1       9.202 -10.350  -0.147  0.00  0.00    +0.038 A 
ATOM     29  C   UNL     1      10.382 -11.096  -0.163  0.00  0.00    +0.033 A 
ATOM     30  C   UNL     1      10.323 -12.475  -0.171  0.00  0.00    +0.042 A 
ATOM     31  C   UNL     1       9.096 -13.118  -0.162  0.00  0.00    +0.020 A 
ATOM     32 CL   UNL     1      11.789 -13.405  -0.190  0.00  0.00    -0.084 Cl
ENDBRANCH  22  28
ENDBRANCH  21  24
ENDBRANCH   1  21
TORSDOF 9
