REMARK  Name = ZINC36491251
REMARK  10 active torsions:
REMARK  status: ('A' for Active; 'I' for Inactive)
REMARK    1  A    between atoms: C_1  and  C_2
REMARK    2  A    between atoms: C_2  and  C_4
REMARK    3  A    between atoms: N_6  and  C_7
REMARK    4  A    between atoms: N_6  and  C_13
REMARK    5  A    between atoms: C_13  and  C_15
REMARK    6  A    between atoms: C_13  and  C_24
REMARK    7  A    between atoms: C_16  and  O_23
REMARK    8  A    between atoms: C_18  and  O_22
REMARK    9  A    between atoms: C_20  and  O_21
REMARK   10  A    between atoms: N_26  and  C_27
REMARK                            x       y       z     vdW  Elec       q    Type
REMARK                         _______ _______ _______ _____ _____    ______ ____
ROOT
ATOM      1  C   UNL     1      -2.840   1.099   0.067  0.00  0.00    +0.200 C 
ENDROOT
BRANCH   1   2
ATOM      2  C   UNL     1      -2.524   1.768  -1.246  0.00  0.00    +0.065 A 
ATOM      3  C   UNL     1      -1.433   1.350  -1.993  0.00  0.00    +0.129 A 
ATOM      4  C   UNL     1      -1.142   1.966  -3.201  0.00  0.00    +0.091 A 
ATOM      5  C   UNL     1      -1.943   2.999  -3.663  0.00  0.00    +0.124 A 
ATOM      6  C   UNL     1      -3.035   3.416  -2.917  0.00  0.00    +0.091 A 
ATOM      7  C   UNL     1      -3.329   2.798  -1.711  0.00  0.00    +0.129 A 
BRANCH   7   8
ATOM      8  O   UNL     1      -4.401   3.204  -0.982  0.00  0.00    -0.506 OA
ATOM      9  H   UNL     1      -4.204   3.908  -0.350  0.00  0.00    +0.292 HD
ENDBRANCH   7   8
BRANCH   5  10
ATOM     10  O   UNL     1      -1.658   3.603  -4.846  0.00  0.00    -0.507 OA
ATOM     11  H   UNL     1      -2.087   3.193  -5.610  0.00  0.00    +0.292 HD
ENDBRANCH   5  10
BRANCH   3  12
ATOM     12  O   UNL     1      -0.647   0.338  -1.540  0.00  0.00    -0.506 OA
ATOM     13  H   UNL     1      -0.938  -0.541  -1.820  0.00  0.00    +0.292 HD
ENDBRANCH   3  12
ENDBRANCH   1   2
BRANCH   1  14
ATOM     14  C   UNL     1      -1.613   1.105   0.941  0.00  0.00    +0.239 C 
ATOM     15  O   UNL     1      -1.064   0.061   1.224  0.00  0.00    -0.273 OA
ATOM     16  N   UNL     1      -1.125   2.271   1.409  0.00  0.00    -0.311 N 
ATOM     17  H   UNL     1      -1.563   3.106   1.183  0.00  0.00    +0.149 HD
BRANCH  16  18
ATOM     18  C   UNL     1       0.068   2.277   2.260  0.00  0.00    +0.073 C 
ATOM     19  C   UNL     1      -0.341   2.033   3.714  0.00  0.00    +0.022 C 
ATOM     20  C   UNL     1       0.905   2.040   4.602  0.00  0.00    +0.002 C 
ATOM     21  C   UNL     1       1.605   3.396   4.489  0.00  0.00    +0.000 C 
ATOM     22  C   UNL     1       2.014   3.639   3.035  0.00  0.00    +0.002 C 
ATOM     23  C   UNL     1       0.768   3.633   2.147  0.00  0.00    +0.022 C 
ENDBRANCH  16  18
ENDBRANCH   1  14
BRANCH   1  26
ATOM     24  C   UNL     1      -3.826  -1.001   0.812  0.00  0.00    +0.243 C 
ATOM     25  O   UNL     1      -4.088  -2.176   0.638  0.00  0.00    -0.270 OA
ATOM     26  N   UNL     1      -3.258  -0.283  -0.178  0.00  0.00    -0.279 N 
BRANCH  26  27
ATOM     27  C   UNL     1      -3.060  -0.886  -1.498  0.00  0.00    +0.077 C 
ATOM     28  C   UNL     1      -4.416  -1.083  -2.178  0.00  0.00    +0.022 C 
ATOM     29  C   UNL     1      -4.209  -1.713  -3.557  0.00  0.00    +0.002 C 
ATOM     30  C   UNL     1      -3.516  -3.067  -3.400  0.00  0.00    +0.000 C 
ATOM     31  C   UNL     1      -2.159  -2.870  -2.720  0.00  0.00    +0.002 C 
ATOM     32  C   UNL     1      -2.366  -2.241  -1.341  0.00  0.00    +0.022 C 
ENDBRANCH  26  27
BRANCH  24  34
ATOM     33  C   UNL     1      -4.120   1.140   2.220  0.00  0.00    +0.048 C 
ATOM     34  C   UNL     1      -4.129  -0.363   2.102  0.00  0.00    +0.004 C 
ATOM     35  C   UNL     1      -4.410  -1.111   3.165  0.00  0.00    +0.017 C 
ENDBRANCH  24  34
ENDBRANCH   1  26
TORSDOF 9
