REMARK  Name = ZINC03443442
REMARK  6 active torsions:
REMARK  status: ('A' for Active; 'I' for Inactive)
REMARK    1  A    between atoms: C_4  and  C_7
REMARK    2  A    between atoms: C_10  and  S_13
REMARK    3  A    between atoms: N_11  and  N_12
REMARK    4  A    between atoms: S_13  and  C_14
REMARK    5  A    between atoms: C_14  and  C_15
REMARK    6  A    between atoms: N_17  and  N_18
REMARK                            x       y       z     vdW  Elec       q    Type
REMARK                         _______ _______ _______ _____ _____    ______ ____
ROOT
ATOM      1  C   UNL     1      -0.768   0.533   1.343  0.00  0.00    +0.240 C 
ATOM      2  O   UNL     1      -1.781   1.200   1.377  0.00  0.00    -0.273 OA
ATOM      3  N   UNL     1      -0.290  -0.024   2.473  0.00  0.00    -0.223 N 
ATOM      4  H   UNL     1       0.629  -0.629   2.442  0.00  0.00    +0.174 HD
ENDROOT
BRANCH   3   5
ATOM      5  N   UNL     1      -0.963   0.166   3.687  0.00  0.00    -0.137 N 
ATOM      6  C   UNL     1      -1.716  -0.775   4.292  0.00  0.00    +0.263 C 
ATOM      7  O   UNL     1      -1.932  -1.904   3.904  0.00  0.00    -0.271 OA
ATOM      8  C   UNL     1      -2.234  -0.127   5.555  0.00  0.00    +0.114 C 
ATOM      9  C   UNL     1      -1.738  -0.884   6.782  0.00  0.00    +0.035 C 
ATOM     10  C   UNL     1      -2.250  -0.197   8.050  0.00  0.00    +0.003 C 
ATOM     11  C   UNL     1      -3.780  -0.168   8.032  0.00  0.00    +0.000 C 
ATOM     12  C   UNL     1      -4.261   0.615   6.809  0.00  0.00    +0.003 C 
ATOM     13  C   UNL     1      -3.758  -0.069   5.535  0.00  0.00    +0.035 C 
ATOM     14  N   UNL     1      -1.666   1.226   5.520  0.00  0.00    -0.284 N 
ATOM     15  C   UNL     1      -0.933   1.302   4.393  0.00  0.00    +0.326 C 
ATOM     16  O   UNL     1      -0.315   2.293   4.054  0.00  0.00    -0.251 OA
ATOM     17  H   UNL     1      -1.886   1.936   6.331  0.00  0.00    +0.151 HD
ENDBRANCH   3   5
BRANCH   1  18
ATOM     18  C   UNL     1      -0.044   0.329   0.037  0.00  0.00    +0.174 C 
BRANCH  18  19
ATOM     19  S   UNL     1      -0.927   1.196  -1.284  0.00  0.00    -0.075 S 
BRANCH  19  23
ATOM     20  C   UNL     1       0.971   0.648  -4.656  0.00  0.00    +0.182 A 
ATOM     21  N   UNL     1       1.706  -0.022  -3.799  0.00  0.00    -0.127 NA
ATOM     22  N   UNL     1       1.201   0.071  -2.621  0.00  0.00    -0.121 NA
ATOM     23  C   UNL     1       0.107   0.798  -2.655  0.00  0.00    +0.209 A 
ATOM     24  N   UNL     1      -0.076   1.194  -3.949  0.00  0.00    -0.224 N 
BRANCH  20  28
ATOM     25  C   UNL     1       1.689   1.056  -8.822  0.00  0.00    +0.000 A 
ATOM     26  C   UNL     1       0.823   1.926  -8.184  0.00  0.00    +0.001 A 
ATOM     27  C   UNL     1       0.585   1.799  -6.831  0.00  0.00    +0.011 A 
ATOM     28  C   UNL     1       1.221   0.790  -6.106  0.00  0.00    +0.021 A 
ATOM     29  C   UNL     1       2.098  -0.081  -6.755  0.00  0.00    +0.011 A 
ATOM     30  C   UNL     1       2.321   0.053  -8.109  0.00  0.00    +0.001 A 
ENDBRANCH  20  28
BRANCH  24  31
ATOM     31  N   UNL     1      -1.087   1.970  -4.440  0.00  0.00    -0.295 N 
ATOM     32  H   UNL     1      -1.869   2.347  -3.764  0.00  0.00    +0.163 HD
ATOM     33  H   UNL     1      -1.120   2.219  -5.511  0.00  0.00    +0.163 HD
ENDBRANCH  24  31
ENDBRANCH  19  23
ENDBRANCH  18  19
ENDBRANCH   1  18
TORSDOF 6
