REMARK  Name = ZINC09684287
REMARK  6 active torsions:
REMARK  status: ('A' for Active; 'I' for Inactive)
REMARK    1  A    between atoms: C_1  and  C_2
REMARK    2  A    between atoms: C_3  and  C_21
REMARK    3  A    between atoms: C_4  and  S_9
REMARK    4  A    between atoms: C_5  and  C_8
REMARK    5  A    between atoms: S_9  and  N_12
REMARK    6  A    between atoms: N_12  and  C_13
REMARK                            x       y       z     vdW  Elec       q    Type
REMARK                         _______ _______ _______ _____ _____    ______ ____
ROOT
ATOM      1  C   UNL     1      -0.018   1.503   0.010  0.00  0.00    +0.064 C 
ATOM      2  C   UNL     1       0.002  -0.004   0.002  0.00  0.00    +0.027 A 
ATOM      3  C   UNL     1       0.008  -0.798  -1.112  0.00  0.00    +0.084 A 
ATOM      4  C   UNL     1       0.029  -2.182  -0.625  0.00  0.00    +0.143 A 
ATOM      5  C   UNL     1       0.034  -2.110   0.718  0.00  0.00    +0.041 A 
ATOM      6  N   UNL     1       0.024  -0.798   1.090  0.00  0.00    -0.360 N 
ATOM      7  H   UNL     1       0.029  -0.481   2.007  0.00  0.00    +0.165 HD
ATOM      8  C   UNL     1       0.054  -3.288   1.658  0.00  0.00    +0.065 C 
ENDROOT
BRANCH   3   9
ATOM      9  C   UNL     1      -0.005  -0.354  -2.515  0.00  0.00    +0.250 C 
ATOM     10  O   UNL     1       1.044  -0.156  -3.100  0.00  0.00    -0.270 OA
ATOM     11  N   UNL     1      -1.177  -0.166  -3.152  0.00  0.00    -0.297 N 
ATOM     12  C   UNL     1      -2.512  -0.360  -2.566  0.00  0.00    +0.108 C 
ATOM     13  C   UNL     1      -3.546  -0.053  -3.670  0.00  0.00    +0.020 C 
ATOM     14  C   UNL     1      -2.731  -0.251  -4.975  0.00  0.00    +0.020 C 
ATOM     15  C   UNL     1      -1.335   0.275  -4.550  0.00  0.00    +0.108 C 
ENDBRANCH   3   9
BRANCH   4  16
ATOM     16  S   UNL     1       0.043  -3.646  -1.605  0.00  0.00    +0.094 S 
ATOM     17  O   UNL     1      -0.489  -4.683  -0.793  0.00  0.00    -0.148 OA
ATOM     18  O   UNL     1      -0.519  -3.298  -2.863  0.00  0.00    -0.148 OA
BRANCH  16  19
ATOM     19  N   UNL     1       1.629  -4.032  -1.886  0.00  0.00    -0.096 NA
BRANCH  19  20
ATOM     20  C   UNL     1       1.950  -5.161  -2.646  0.00  0.00    +0.093 A 
ATOM     21  C   UNL     1       0.940  -5.956  -3.171  0.00  0.00    +0.031 A 
ATOM     22  C   UNL     1       1.260  -7.071  -3.921  0.00  0.00    +0.040 A 
ATOM     23  C   UNL     1       2.586  -7.397  -4.150  0.00  0.00    +0.125 A 
ATOM     24  C   UNL     1       3.595  -6.606  -3.628  0.00  0.00    +0.060 A 
ATOM     25  C   UNL     1       3.281  -5.486  -2.882  0.00  0.00    +0.068 A 
ATOM     26 CL   UNL     1       4.546  -4.490  -2.234  0.00  0.00    -0.081 Cl
ATOM     27  F   UNL     1       2.896  -8.488  -4.884  0.00  0.00    -0.205 F 
ENDBRANCH  19  20
ENDBRANCH  16  19
ENDBRANCH   4  16
TORSDOF 4
