REMARK  Name = ZINC00671623
REMARK  12 active torsions:
REMARK  status: ('A' for Active; 'I' for Inactive)
REMARK    1  A    between atoms: C_1  and  C_2
REMARK    2  A    between atoms: C_2  and  O_3
REMARK    3  A    between atoms: O_3  and  C_4
REMARK    4  A    between atoms: C_6  and  C_16
REMARK    5  A    between atoms: C_8  and  O_13
REMARK    6  A    between atoms: C_9  and  O_10
REMARK    7  A    between atoms: O_10  and  C_11
REMARK    8  A    between atoms: C_11  and  C_12
REMARK    9  A    between atoms: O_13  and  C_14
REMARK   10  A    between atoms: C_14  and  C_15
REMARK   11  A    between atoms: N_18  and  C_19
REMARK   12  A    between atoms: C_20  and  C_30
REMARK                            x       y       z     vdW  Elec       q    Type
REMARK                         _______ _______ _______ _____ _____    ______ ____
ROOT
ATOM      1  C   UNL     1      -1.329   1.619   6.041  0.00  0.00    +0.249 C 
ATOM      2  O   UNL     1      -2.312   2.289   5.786  0.00  0.00    -0.270 OA
ATOM      3  N   UNL     1      -0.537   1.177   5.044  0.00  0.00    -0.275 N 
ATOM      4  H   UNL     1       0.246   0.643   5.248  0.00  0.00    +0.156 HD
ENDROOT
BRANCH   3   5
ATOM      5  C   UNL     1      -0.842   1.487   3.728  0.00  0.00    +0.085 A 
ATOM      6  C   UNL     1      -0.160   1.131   2.580  0.00  0.00    +0.068 A 
ATOM      7  C   UNL     1      -0.701   1.565   1.287  0.00  0.00    -0.023 A 
ATOM      8  C   UNL     1      -1.788   2.345   1.389  0.00  0.00    -0.004 A 
ATOM      9  S   UNL     1      -2.164   2.414   3.122  0.00  0.00    -0.077 S 
ATOM     10  C   UNL     1      -2.552   3.040   0.297  0.00  0.00    +0.043 C 
ATOM     11  C   UNL     1      -1.768   4.320  -0.045  0.00  0.00    +0.005 C 
ATOM     12  C   UNL     1      -0.319   3.927  -0.358  0.00  0.00    +0.000 C 
ATOM     13  C   UNL     1      -0.400   3.026  -1.571  0.00  0.00    +0.000 C 
ATOM     14  C   UNL     1      -0.723   1.577  -1.247  0.00  0.00    +0.005 C 
ATOM     15  C   UNL     1      -0.013   1.086   0.008  0.00  0.00    +0.037 C 
BRANCH   6  16
ATOM     16  C   UNL     1       1.073   0.340   2.652  0.00  0.00    +0.244 C 
ATOM     17  O   UNL     1       2.150   0.899   2.744  0.00  0.00    -0.270 OA
ATOM     18  N   UNL     1       1.013  -1.006   2.618  0.00  0.00    -0.325 N 
ATOM     19  H   UNL     1       0.154  -1.452   2.545  0.00  0.00    +0.145 HD
ATOM     20  H   UNL     1       1.828  -1.529   2.665  0.00  0.00    +0.145 HD
ENDBRANCH   6  16
ENDBRANCH   3   5
BRANCH   1  23
ATOM     21  C   UNL     1      -1.520   1.435   9.788  0.00  0.00    +0.166 A 
ATOM     22  C   UNL     1      -1.826   1.746   8.477  0.00  0.00    +0.062 A 
ATOM     23  C   UNL     1      -1.005   1.289   7.442  0.00  0.00    +0.044 A 
ATOM     24  C   UNL     1       0.120   0.514   7.737  0.00  0.00    +0.062 A 
ATOM     25  C   UNL     1       0.424   0.211   9.050  0.00  0.00    +0.166 A 
ATOM     26  C   UNL     1      -0.395   0.668  10.079  0.00  0.00    +0.204 A 
BRANCH  21  27
ATOM     27  O   UNL     1      -2.318   1.879  10.796  0.00  0.00    -0.488 OA
BRANCH  27  29
ATOM     28  C   UNL     1      -4.227   3.067  11.683  0.00  0.00    +0.048 C 
ATOM     29  C   UNL     1      -3.456   2.662  10.425  0.00  0.00    +0.226 C 
ENDBRANCH  27  29
ENDBRANCH  21  27
BRANCH  26  30
ATOM     30  O   UNL     1      -0.097   0.364  11.370  0.00  0.00    -0.485 OA
BRANCH  30  31
ATOM     31  C   UNL     1      -0.655  -0.841  11.898  0.00  0.00    +0.226 C 
ATOM     32  C   UNL     1      -0.212  -1.014  13.352  0.00  0.00    +0.048 C 
ENDBRANCH  30  31
ENDBRANCH  26  30
BRANCH  25  33
ATOM     33  O   UNL     1       1.523  -0.538   9.338  0.00  0.00    -0.488 OA
BRANCH  33  34
ATOM     34  C   UNL     1       2.319  -0.972   8.234  0.00  0.00    +0.226 C 
ATOM     35  C   UNL     1       3.501  -1.795   8.750  0.00  0.00    +0.048 C 
ENDBRANCH  33  34
ENDBRANCH  25  33
ENDBRANCH   1  23
TORSDOF 9
