REMARK  Name = ZINC60429581
REMARK  10 active torsions:
REMARK  status: ('A' for Active; 'I' for Inactive)
REMARK    1  A    between atoms: C_1  and  C_2
REMARK    2  A    between atoms: C_2  and  C_3
REMARK    3  A    between atoms: C_3  and  C_4
REMARK    4  A    between atoms: C_4  and  C_22
REMARK    5  A    between atoms: N_7  and  C_11
REMARK    6  A    between atoms: C_11  and  C_12
REMARK    7  A    between atoms: N_17  and  C_18
REMARK    8  A    between atoms: C_18  and  C_19
REMARK    9  A    between atoms: C_18  and  C_20
REMARK   10  A    between atoms: C_18  and  C_21
REMARK                            x       y       z     vdW  Elec       q    Type
REMARK                         _______ _______ _______ _____ _____    ______ ____
ROOT
ATOM      1  C   UNL     1       3.704  -3.919  -2.459  0.00  0.00    +0.214 C 
ENDROOT
BRANCH   1   5
ATOM      2  C   UNL     1       0.739  -2.027  -1.265  0.00  0.00    +0.110 C 
ATOM      3  C   UNL     1       1.636  -2.542  -2.373  0.00  0.00    +0.247 C 
ATOM      4  O   UNL     1       1.504  -2.363  -3.565  0.00  0.00    -0.273 OA
ATOM      5  N   UNL     1       2.611  -3.241  -1.758  0.00  0.00    -0.215 N 
ATOM      6  C   UNL     1       2.456  -3.239  -0.429  0.00  0.00    +0.310 C 
ATOM      7  O   UNL     1       3.210  -3.802   0.339  0.00  0.00    -0.252 OA
ATOM      8  N   UNL     1       1.372  -2.544  -0.039  0.00  0.00    -0.285 N 
ATOM      9  C   UNL     1      -0.679  -2.583  -1.414  0.00  0.00    +0.041 C 
ATOM     10  H   UNL     1       1.067  -2.409   0.872  0.00  0.00    +0.151 HD
BRANCH   2  11
ATOM     11  C   UNL     1       0.718  -0.497  -1.257  0.00  0.00    +0.035 C 
BRANCH  11  13
ATOM     12  C   UNL     1      -0.019   1.526   0.010  0.00  0.00    +0.004 C 
ATOM     13  C   UNL     1       0.002  -0.004   0.002  0.00  0.00    -0.001 C 
ENDBRANCH  11  13
ENDBRANCH   2  11
ENDBRANCH   1   5
BRANCH   1  14
ATOM     14  C   UNL     1       4.867  -2.974  -2.610  0.00  0.00    +0.238 C 
ATOM     15  O   UNL     1       4.790  -1.844  -2.175  0.00  0.00    -0.274 OA
ATOM     16  N   UNL     1       5.993  -3.383  -3.228  0.00  0.00    -0.239 N 
ATOM     17  C   UNL     1       7.033  -2.537  -3.363  0.00  0.00    +0.306 C 
ATOM     18  O   UNL     1       6.956  -1.405  -2.928  0.00  0.00    -0.252 OA
ATOM     19  N   UNL     1       8.159  -2.946  -3.981  0.00  0.00    -0.294 N 
ATOM     20  H   UNL     1       6.054  -4.287  -3.575  0.00  0.00    +0.159 HD
ATOM     21  H   UNL     1       8.220  -3.850  -4.328  0.00  0.00    +0.151 HD
BRANCH  19  22
ATOM     22  C   UNL     1       9.290  -2.027  -4.128  0.00  0.00    +0.028 C 
ATOM     23  C   UNL     1       9.768  -1.582  -2.744  0.00  0.00    +0.031 C 
ATOM     24  C   UNL     1      10.432  -2.735  -4.859  0.00  0.00    +0.031 C 
ATOM     25  C   UNL     1       8.850  -0.802  -4.933  0.00  0.00    +0.031 C 
ENDBRANCH  19  22
ENDBRANCH   1  14
TORSDOF 5
