REMARK  Name = ZINC37558557
REMARK  2 active torsions:
REMARK  status: ('A' for Active; 'I' for Inactive)
REMARK    1  A    between atoms: N_11  and  S_12
REMARK    2  A    between atoms: S_12  and  C_15
REMARK                            x       y       z     vdW  Elec       q    Type
REMARK                         _______ _______ _______ _____ _____    ______ ____
ROOT
ATOM      1  C   UNL     1      -0.036   1.088   0.351  0.00  0.00    +0.002 A 
ATOM      2  C   UNL     1       1.109   1.863   0.311  0.00  0.00    +0.002 A 
ATOM      3  C   UNL     1       2.351   1.263   0.201  0.00  0.00    +0.026 A 
ATOM      4  C   UNL     1       2.443  -0.115   0.129  0.00  0.00    +0.073 A 
ATOM      5  C   UNL     1       1.289  -0.899   0.165  0.00  0.00    +0.056 A 
ATOM      6  C   UNL     1       0.050  -0.290   0.278  0.00  0.00    +0.025 A 
ATOM      7  N   UNL     1       1.397  -2.292   0.079  0.00  0.00    -0.283 N 
ATOM      8  C   UNL     1       2.586  -2.901   0.250  0.00  0.00    +0.236 C 
ATOM      9  O   UNL     1       2.666  -4.105   0.129  0.00  0.00    -0.274 OA
ATOM     10  C   UNL     1       3.819  -2.103   0.590  0.00  0.00    +0.227 C 
ATOM     11  N   UNL     1       3.687  -0.753   0.023  0.00  0.00    -0.192 N 
ATOM     12  H   UNL     1       0.607  -2.825  -0.105  0.00  0.00    +0.155 HD
ENDROOT
BRANCH  11  13
ATOM     13  S   UNL     1       4.968  -0.009  -0.718  0.00  0.00    +0.080 S 
ATOM     14  O   UNL     1       5.902  -1.031  -1.037  0.00  0.00    -0.150 OA
ATOM     15  O   UNL     1       4.421   0.858  -1.702  0.00  0.00    -0.150 OA
BRANCH  13  16
ATOM     16  C   UNL     1       5.740   1.020   0.486  0.00  0.00    +0.167 A 
ATOM     17  C   UNL     1       5.806   2.371   0.455  0.00  0.00    +0.135 A 
ATOM     18  N   UNL     1       6.477   2.778   1.553  0.00  0.00    -0.281 N 
ATOM     19  H   UNL     1       6.675   3.697   1.792  0.00  0.00    +0.188 HD
ATOM     20  N   UNL     1       6.837   1.642   2.288  0.00  0.00    -0.157 NA
ATOM     21  C   UNL     1       6.391   0.584   1.652  0.00  0.00    +0.165 A 
ATOM     22  N   UNL     1       6.539  -0.746   2.062  0.00  0.00    -0.340 N 
ATOM     23  H   UNL     1       6.241  -1.467   1.486  0.00  0.00    +0.144 HD
ATOM     24  H   UNL     1       6.939  -0.946   2.923  0.00  0.00    +0.144 HD
ENDBRANCH  13  16
ENDBRANCH  11  13
TORSDOF 2
