REMARK  Name = ZINC12803919
REMARK  10 active torsions:
REMARK  status: ('A' for Active; 'I' for Inactive)
REMARK    1  A    between atoms: C_1  and  C_2
REMARK    2  A    between atoms: C_3  and  C_13
REMARK    3  A    between atoms: C_4  and  C_12
REMARK    4  A    between atoms: C_13  and  C_14
REMARK    5  A    between atoms: C_14  and  C_15
REMARK    6  A    between atoms: C_15  and  O_17
REMARK    7  A    between atoms: O_17  and  C_18
REMARK    8  A    between atoms: C_18  and  C_20
REMARK    9  A    between atoms: C_18  and  C_21
REMARK   10  A    between atoms: N_23  and  C_24
REMARK                            x       y       z     vdW  Elec       q    Type
REMARK                         _______ _______ _______ _____ _____    ______ ____
ROOT
ATOM      1  C   UNL     1       1.237  -2.703  -1.466  0.00  0.00    +0.125 C 
ENDROOT
BRANCH   1   2
ATOM      2  C   UNL     1       1.260  -4.210  -1.474  0.00  0.00    +0.308 C 
ATOM      3  O   UNL     1       1.279  -4.819  -0.431  0.00  0.00    -0.251 OA
BRANCH   2   4
ATOM      4  O   UNL     1       1.258  -4.875  -2.640  0.00  0.00    -0.452 OA
BRANCH   4   5
ATOM      5  C   UNL     1       1.281  -6.325  -2.571  0.00  0.00    +0.258 C 
ATOM      6  C   UNL     1      -0.153  -6.856  -2.533  0.00  0.00    +0.062 C 
BRANCH   5   7
ATOM      7  C   UNL     1       1.988  -6.874  -3.784  0.00  0.00    +0.254 C 
ATOM      8  O   UNL     1       2.430  -6.118  -4.623  0.00  0.00    -0.272 OA
ATOM      9  N   UNL     1       2.131  -8.206  -3.935  0.00  0.00    -0.309 N 
ATOM     10  H   UNL     1       1.778  -8.811  -3.264  0.00  0.00    +0.149 HD
BRANCH   9  11
ATOM     11  C   UNL     1       2.818  -8.739  -5.114  0.00  0.00    +0.073 C 
ATOM     12  C   UNL     1       1.825  -8.861  -6.272  0.00  0.00    +0.022 C 
ATOM     13  C   UNL     1       2.543  -9.419  -7.502  0.00  0.00    +0.002 C 
ATOM     14  C   UNL     1       3.118 -10.799  -7.176  0.00  0.00    +0.000 C 
ATOM     15  C   UNL     1       4.111 -10.677  -6.018  0.00  0.00    +0.002 C 
ATOM     16  C   UNL     1       3.393 -10.119  -4.787  0.00  0.00    +0.022 C 
ENDBRANCH   9  11
ENDBRANCH   5   7
ENDBRANCH   4   5
ENDBRANCH   2   4
ENDBRANCH   1   2
BRANCH   1  17
ATOM     17  C   UNL     1       1.243  -2.200  -0.021  0.00  0.00    +0.050 C 
BRANCH  17  20
ATOM     18  C   UNL     1      -1.295  -0.772   0.011  0.00  0.00    +0.066 C 
ATOM     19  C   UNL     1       0.002  -0.004   0.002  0.00  0.00    +0.047 A 
ATOM     20  C   UNL     1       1.220  -0.693  -0.013  0.00  0.00    -0.005 A 
ATOM     21  C   UNL     1       2.381   0.012  -0.021  0.00  0.00    +0.048 A 
ATOM     22  N   UNL     1       2.329   1.369  -0.013  0.00  0.00    -0.199 N 
ATOM     23  C   UNL     1       1.123   2.012   0.002  0.00  0.00    +0.255 A 
ATOM     24  N   UNL     1      -0.016   1.310   0.009  0.00  0.00    -0.216 NA
ATOM     25  N   UNL     1       1.370   3.318   0.007  0.00  0.00    -0.176 NA
ATOM     26  C   UNL     1       2.685   3.526  -0.005  0.00  0.00    +0.234 A 
ATOM     27  N   UNL     1       3.312   2.367  -0.017  0.00  0.00    -0.128 NA
ATOM     28  N   UNL     1       3.301   4.774  -0.004  0.00  0.00    -0.326 N 
ATOM     29  C   UNL     1       3.709  -0.702  -0.038  0.00  0.00    +0.066 C 
ATOM     30  H   UNL     1       4.269   4.837  -0.013  0.00  0.00    +0.145 HD
ATOM     31  H   UNL     1       2.763   5.581   0.006  0.00  0.00    +0.145 HD
ENDBRANCH  17  20
ENDBRANCH   1  17
TORSDOF 7
