REMARK  Name = ZINC36993291
REMARK  6 active torsions:
REMARK  status: ('A' for Active; 'I' for Inactive)
REMARK    1  A    between atoms: C_1  and  C_2
REMARK    2  A    between atoms: C_2  and  C_3
REMARK    3  A    between atoms: C_3  and  C_4
REMARK    4  A    between atoms: C_4  and  C_6
REMARK    5  A    between atoms: C_4  and  N_7
REMARK    6  A    between atoms: N_7  and  C_8
REMARK                            x       y       z     vdW  Elec       q    Type
REMARK                         _______ _______ _______ _____ _____    ______ ____
ROOT
ATOM      1  C   UNL     1      -0.930  -3.819   0.875  0.00  0.00    +0.049 A 
ATOM      2  C   UNL     1       0.048  -4.601   0.272  0.00  0.00    +0.072 A 
ATOM      3  C   UNL     1      -0.276  -5.856  -0.210  0.00  0.00    +0.144 A 
ATOM      4  C   UNL     1      -1.580  -6.333  -0.089  0.00  0.00    +0.077 A 
ATOM      5  C   UNL     1      -2.553  -5.553   0.513  0.00  0.00    +0.048 A 
ATOM      6  C   UNL     1      -2.227  -4.300   1.000  0.00  0.00    +0.064 A 
ATOM      7 CL   UNL     1      -3.444  -3.323   1.762  0.00  0.00    -0.082 Cl
ATOM      8  N   UNL     1      -1.892  -7.610  -0.586  0.00  0.00    -0.280 N 
ATOM      9  C   UNL     1      -0.886  -8.463  -0.875  0.00  0.00    +0.255 C 
ATOM     10  O   UNL     1      -1.130  -9.559  -1.334  0.00  0.00    -0.272 OA
ATOM     11  C   UNL     1       0.542  -8.048  -0.626  0.00  0.00    +0.325 C 
ATOM     12  O   UNL     1       0.669  -6.635  -0.803  0.00  0.00    -0.481 OA
ATOM     13  H   UNL     1      -2.816  -7.874  -0.719  0.00  0.00    +0.155 HD
ENDROOT
BRANCH   1  14
ATOM     14  N   UNL     1      -0.605  -2.548   1.364  0.00  0.00    -0.340 N 
ATOM     15  H   UNL     1      -1.286  -2.004   1.789  0.00  0.00    +0.146 HD
BRANCH  14  16
ATOM     16  C   UNL     1       0.763  -2.041   1.233  0.00  0.00    +0.067 C 
ATOM     17  C   UNL     1       1.608  -2.546   2.404  0.00  0.00    +0.028 C 
BRANCH  16  18
ATOM     18  C   UNL     1       0.742  -0.511   1.242  0.00  0.00    +0.021 C 
BRANCH  18  20
ATOM     19  C   UNL     1      -0.019   1.526   0.010  0.00  0.00    +0.004 C 
ATOM     20  C   UNL     1       0.002  -0.004   0.002  0.00  0.00    -0.002 C 
ENDBRANCH  18  20
ENDBRANCH  16  18
ENDBRANCH  14  16
ENDBRANCH   1  14
TORSDOF 4
