REMARK  Name = ZINC54681408
REMARK  3 active torsions:
REMARK  status: ('A' for Active; 'I' for Inactive)
REMARK    1  A    between atoms: C_10  and  C_16
REMARK    2  A    between atoms: C_20  and  O_22
REMARK    3  A    between atoms: O_22  and  C_23
REMARK                            x       y       z     vdW  Elec       q    Type
REMARK                         _______ _______ _______ _____ _____    ______ ____
ROOT
ATOM      1  C   UNL     1       0.579   1.536  -1.017  0.00  0.00    +0.002 A 
ATOM      2  C   UNL     1       1.783   2.199  -0.831  0.00  0.00    +0.002 A 
ATOM      3  C   UNL     1       2.944   1.490  -0.606  0.00  0.00    +0.028 A 
ATOM      4  C   UNL     1       2.912   0.103  -0.563  0.00  0.00    +0.072 A 
ATOM      5  C   UNL     1       1.693  -0.573  -0.753  0.00  0.00    +0.091 A 
ATOM      6  C   UNL     1       0.527   0.160  -0.979  0.00  0.00    +0.030 A 
ATOM      7  N   UNL     1       1.954  -1.907  -0.666  0.00  0.00    -0.214 NA
ATOM      8  C   UNL     1       3.222  -2.089  -0.442  0.00  0.00    +0.205 A 
ATOM      9  N   UNL     1       3.860  -0.875  -0.361  0.00  0.00    -0.288 N 
ATOM     10  C   UNL     1       5.295  -0.727  -0.095  0.00  0.00    +0.209 C 
ATOM     11  N   UNL     1       5.925  -2.046  -0.286  0.00  0.00    -0.294 N 
ATOM     12  C   UNL     1       5.229  -3.166   0.147  0.00  0.00    +0.159 C 
ATOM     13  N   UNL     1       3.912  -3.290  -0.296  0.00  0.00    -0.259 N 
ATOM     14  N   UNL     1       5.777  -4.055   0.926  0.00  0.00    -0.375 N 
ATOM     15  H   UNL     1       6.798  -2.129  -0.701  0.00  0.00    +0.151 HD
ATOM     16  H   UNL     1       6.695  -3.943   1.219  0.00  0.00    +0.158 HD
ATOM     17  H   UNL     1       3.506  -4.150  -0.489  0.00  0.00    +0.158 HD
ATOM     18  H   UNL     1       5.267  -4.828   1.213  0.00  0.00    +0.158 HD
ENDROOT
BRANCH  10  19
ATOM     19  C   UNL     1       5.505  -0.259   1.323  0.00  0.00    -0.003 A 
ATOM     20  C   UNL     1       5.450  -1.166   2.365  0.00  0.00    +0.007 A 
ATOM     21  C   UNL     1       5.643  -0.740   3.666  0.00  0.00    +0.004 A 
ATOM     22  C   UNL     1       5.891   0.594   3.928  0.00  0.00    +0.045 A 
ATOM     23  C   UNL     1       5.947   1.505   2.884  0.00  0.00    +0.121 A 
ATOM     24  C   UNL     1       5.759   1.075   1.579  0.00  0.00    +0.053 A 
BRANCH  23  25
ATOM     25  O   UNL     1       6.190   2.818   3.139  0.00  0.00    -0.489 OA
BRANCH  25  26
ATOM     26  C   UNL     1       6.500   3.170   4.489  0.00  0.00    +0.173 C 
ATOM     27  C   UNL     1       5.200   3.435   5.277  0.00  0.00    +0.044 C 
ATOM     28  C   UNL     1       5.559   4.613   6.217  0.00  0.00    +0.004 C 
ATOM     29  C   UNL     1       6.472   5.494   5.327  0.00  0.00    +0.004 C 
ATOM     30  C   UNL     1       7.308   4.479   4.521  0.00  0.00    +0.044 C 
ENDBRANCH  25  26
ENDBRANCH  23  25
ENDBRANCH  10  19
TORSDOF 3
