REMARK  Name = ZINC39669786
REMARK  12 active torsions:
REMARK  status: ('A' for Active; 'I' for Inactive)
REMARK    1  A    between atoms: C_1  and  C_2
REMARK    2  A    between atoms: C_2  and  C_3
REMARK    3  A    between atoms: C_2  and  C_4
REMARK    4  A    between atoms: C_4  and  C_6
REMARK    5  A    between atoms: C_4  and  O_32
REMARK    6  A    between atoms: C_10  and  C_19
REMARK    7  A    between atoms: N_21  and  C_22
REMARK    8  A    between atoms: C_22  and  C_23
REMARK    9  A    between atoms: C_23  and  C_24
REMARK   10  A    between atoms: C_23  and  C_25
REMARK   11  A    between atoms: C_23  and  N_26
REMARK   12  A    between atoms: O_32  and  C_33
REMARK                            x       y       z     vdW  Elec       q    Type
REMARK                         _______ _______ _______ _____ _____    ______ ____
ROOT
ATOM      1  C   UNL     1      -3.939   0.673  -1.372  0.00  0.00    +0.257 C 
ATOM      2  O   UNL     1      -4.690   0.053  -2.095  0.00  0.00    -0.272 OA
ATOM      3  N   UNL     1      -3.933   2.020  -1.402  0.00  0.00    -0.297 N 
ATOM      4  C   UNL     1      -3.038   2.941  -0.661  0.00  0.00    +0.121 C 
ATOM      5  C   UNL     1      -2.721   4.070  -1.667  0.00  0.00    +0.100 C 
ATOM      6  C   UNL     1      -3.894   4.050  -2.662  0.00  0.00    -0.004 C 
ATOM      7  C   UNL     1      -4.814   2.916  -2.188  0.00  0.00    +0.115 C 
ATOM      8  C   UNL     1      -3.387   3.756  -4.071  0.00  0.00    -0.010 C 
ATOM      9  C   UNL     1      -4.563   3.798  -5.050  0.00  0.00    -0.082 C 
ATOM     10  N   UNL     1      -5.195   5.121  -5.003  0.00  0.00    +0.379 N 
ATOM     11  C   UNL     1      -5.762   5.358  -3.670  0.00  0.00    -0.082 C 
ATOM     12  C   UNL     1      -4.637   5.382  -2.631  0.00  0.00    -0.010 C 
ATOM     13  H   UNL     1      -4.505   5.830  -5.204  0.00  0.00    -0.086 HD
ATOM     14  H   UNL     1      -5.930   5.167  -5.692  0.00  0.00    -0.086 HD
ENDROOT
BRANCH   5  15
ATOM     15  C   UNL     1      -2.654   5.399  -0.959  0.00  0.00    +0.218 C 
ATOM     16  O   UNL     1      -3.266   5.568   0.074  0.00  0.00    -0.275 OA
ATOM     17  N   UNL     1      -1.913   6.400  -1.475  0.00  0.00    -0.313 N 
ATOM     18  H   UNL     1      -1.423   6.265  -2.301  0.00  0.00    +0.149 HD
BRANCH  17  19
ATOM     19  C   UNL     1      -1.847   7.692  -0.787  0.00  0.00    +0.126 C 
BRANCH  19  20
ATOM     20  C   UNL     1      -1.048   8.682  -1.637  0.00  0.00    +0.032 C 
ATOM     21  C   UNL     1      -1.768   8.907  -2.969  0.00  0.00    +0.029 C 
ATOM     22  C   UNL     1      -0.928  10.013  -0.892  0.00  0.00    +0.029 C 
BRANCH  20  23
ATOM     23  N   UNL     1       0.293   8.139  -1.891  0.00  0.00    -0.291 NA
ATOM     24  C   UNL     1       0.959   7.771  -0.633  0.00  0.00    +0.113 C 
ATOM     25  C   UNL     1       2.326   7.156  -0.947  0.00  0.00    +0.175 C 
ATOM     26  O   UNL     1       3.095   8.085  -1.715  0.00  0.00    -0.377 OA
ATOM     27  C   UNL     1       2.477   8.466  -2.947  0.00  0.00    +0.175 C 
ATOM     28  C   UNL     1       1.111   9.093  -2.654  0.00  0.00    +0.113 C 
ENDBRANCH  20  23
ENDBRANCH  19  20
ENDBRANCH  17  19
ENDBRANCH   5  15
BRANCH   1  29
ATOM     29  C   UNL     1      -3.014  -0.065  -0.439  0.00  0.00    +0.261 C 
BRANCH  29  31
ATOM     30  C   UNL     1      -0.999   0.883  -1.573  0.00  0.00    +0.011 C 
ATOM     31  C   UNL     1      -1.716  -0.408  -1.173  0.00  0.00    +0.033 C 
ATOM     32  C   UNL     1      -0.812  -1.230  -0.253  0.00  0.00    +0.011 C 
ENDBRANCH  29  31
BRANCH  29  33
ATOM     33  O   UNL     1      -3.643  -1.269   0.004  0.00  0.00    -0.479 OA
BRANCH  33  34
ATOM     34  C   UNL     1      -3.389  -1.665   1.279  0.00  0.00    +0.122 A 
ATOM     35  C   UNL     1      -2.572  -0.897   2.096  0.00  0.00    +0.045 A 
ATOM     36  C   UNL     1      -2.316  -1.302   3.391  0.00  0.00    +0.004 A 
ATOM     37  C   UNL     1      -2.872  -2.473   3.874  0.00  0.00    +0.000 A 
ATOM     38  C   UNL     1      -3.687  -3.240   3.062  0.00  0.00    +0.004 A 
ATOM     39  C   UNL     1      -3.951  -2.836   1.767  0.00  0.00    +0.045 A 
ENDBRANCH  33  34
ENDBRANCH  29  33
ENDBRANCH   1  29
TORSDOF 8
