REMARK  Name = ZINC12279012
REMARK  8 active torsions:
REMARK  status: ('A' for Active; 'I' for Inactive)
REMARK    1  A    between atoms: C_1  and  C_2
REMARK    2  A    between atoms: C_7  and  C_8
REMARK    3  A    between atoms: C_8  and  N_69
REMARK    4  A    between atoms: C_14  and  C_17
REMARK    5  A    between atoms: C_17  and  N_18
REMARK    6  A    between atoms: C_19  and  C_21
REMARK    7  A    between atoms: C_21  and  N_22
REMARK    8  A    between atoms: C_31  and  C_33
REMARK                            x       y       z     vdW  Elec       q    Type
REMARK                         _______ _______ _______ _____ _____    ______ ____
ROOT
ATOM      1  C   UNL     1      -3.596  -0.471   1.095  0.00  0.00    -0.076 C 
ATOM      2  C   UNL     1      -3.713  -1.991   0.957  0.00  0.00    +0.016 C 
ATOM      3  C   UNL     1      -4.689  -2.321  -0.173  0.00  0.00    +0.067 C 
ATOM      4  C   UNL     1      -4.760  -3.849  -0.362  0.00  0.00    +0.037 C 
ATOM      5  C   UNL     1      -6.049  -4.218   0.422  0.00  0.00    +0.036 C 
ATOM      6  C   UNL     1      -6.921  -2.964   0.162  0.00  0.00    +0.136 C 
ATOM      7  O   UNL     1      -6.001  -1.860   0.161  0.00  0.00    -0.369 OA
ATOM      8  C   UNL     1      -4.219  -1.667  -1.473  0.00  0.00    +0.016 C 
ATOM      9  C   UNL     1      -4.085  -0.157  -1.259  0.00  0.00    -0.076 C 
ATOM     10  N   UNL     1      -3.103   0.089  -0.182  0.00  0.00    +0.383 N 
ATOM     11  H   UNL     1      -2.218  -0.370  -0.427  0.00  0.00    -0.081 HD
ENDROOT
BRANCH  10  12
ATOM     12  C   UNL     1      -2.865   1.540  -0.037  0.00  0.00    -0.043 C 
BRANCH  12  19
ATOM     13  C   UNL     1      -0.013   1.086   0.008  0.00  0.00    +0.044 C 
ATOM     14  C   UNL     1      -0.718   1.572   1.248  0.00  0.00    -0.049 A 
ATOM     15  C   UNL     1       0.001   1.806   2.405  0.00  0.00    +0.003 A 
ATOM     16  C   UNL     1      -0.646   2.252   3.542  0.00  0.00    +0.000 A 
ATOM     17  C   UNL     1      -2.012   2.464   3.522  0.00  0.00    +0.000 A 
ATOM     18  C   UNL     1      -2.731   2.230   2.365  0.00  0.00    +0.002 A 
ATOM     19  C   UNL     1      -2.083   1.789   1.226  0.00  0.00    -0.061 A 
ENDBRANCH  12  19
ENDBRANCH  10  12
BRANCH   6  20
ATOM     20  C   UNL     1      -7.954  -2.794   1.278  0.00  0.00    +0.135 C 
BRANCH  20  21
ATOM     21  N   UNL     1      -8.801  -1.635   0.988  0.00  0.00    -0.311 N 
ATOM     22  C   UNL     1      -9.787  -1.290   1.839  0.00  0.00    +0.235 C 
ATOM     23  O   UNL     1      -9.973  -1.940   2.846  0.00  0.00    -0.274 OA
ATOM     24  H   UNL     1      -8.652  -1.115   0.183  0.00  0.00    +0.149 HD
BRANCH  22  25
ATOM     25  C   UNL     1     -10.659  -0.098   1.540  0.00  0.00    +0.243 C 
BRANCH  25  26
ATOM     26  N   UNL     1     -11.647   0.065   2.609  0.00  0.00    -0.220 N 
ATOM     27  C   UNL     1     -11.339   0.828   3.678  0.00  0.00    +0.275 A 
ATOM     28  O   UNL     1     -10.254   1.376   3.757  0.00  0.00    -0.266 OA
ATOM     29  C   UNL     1     -12.338   0.990   4.742  0.00  0.00    +0.050 A 
ATOM     30  C   UNL     1     -12.094   1.767   5.873  0.00  0.00    +0.014 A 
ATOM     31  C   UNL     1     -13.068   1.878   6.841  0.00  0.00    +0.001 A 
ATOM     32  C   UNL     1     -14.285   1.224   6.700  0.00  0.00    +0.001 A 
ATOM     33  C   UNL     1     -14.547   0.457   5.599  0.00  0.00    +0.010 A 
ATOM     34  C   UNL     1     -13.578   0.326   4.602  0.00  0.00    +0.010 A 
ATOM     35  C   UNL     1     -13.807  -0.482   3.404  0.00  0.00    +0.066 A 
ATOM     36  N   UNL     1     -12.880  -0.578   2.498  0.00  0.00    -0.172 NA
ATOM     37  C   UNL     1     -15.118  -1.203   3.221  0.00  0.00    +0.068 C 
ENDBRANCH  25  26
ENDBRANCH  22  25
ENDBRANCH  20  21
ENDBRANCH   6  20
TORSDOF 6
