REMARK  Name = ZINC05921470
REMARK  6 active torsions:
REMARK  status: ('A' for Active; 'I' for Inactive)
REMARK    1  A    between atoms: C_1  and  C_2
REMARK    2  A    between atoms: C_3  and  C_14
REMARK    3  A    between atoms: C_5  and  N_11
REMARK    4  A    between atoms: C_7  and  N_8
REMARK    5  A    between atoms: N_16  and  C_17
REMARK    6  A    between atoms: C_22  and  C_25
REMARK                            x       y       z     vdW  Elec       q    Type
REMARK                         _______ _______ _______ _____ _____    ______ ____
ROOT
ATOM      1  C   UNL     1      -0.618   1.431  -0.066  0.00  0.00    +0.047 C 
ATOM      2  C   UNL     1      -0.285  -0.038  -0.035  0.00  0.00    -0.008 A 
ATOM      3  C   UNL     1      -0.360  -0.798  -1.203  0.00  0.00    +0.044 A 
ATOM      4  C   UNL     1      -0.049  -2.158  -1.166  0.00  0.00    +0.046 A 
ATOM      5  C   UNL     1       0.330  -2.743   0.025  0.00  0.00    +0.129 A 
ATOM      6  C   UNL     1       0.403  -1.984   1.179  0.00  0.00    +0.065 A 
ATOM      7  C   UNL     1       0.101  -0.634   1.148  0.00  0.00    +0.132 A 
ENDROOT
BRANCH   3   8
ATOM      8  C   UNL     1      -0.768  -0.165  -2.475  0.00  0.00    +0.245 C 
ATOM      9  O   UNL     1      -0.932   1.039  -2.530  0.00  0.00    -0.270 OA
ATOM     10  N   UNL     1      -0.959  -0.921  -3.574  0.00  0.00    -0.308 N 
ATOM     11  H   UNL     1      -0.829  -1.881  -3.530  0.00  0.00    +0.149 HD
BRANCH  10  12
ATOM     12  C   UNL     1      -1.363  -0.294  -4.835  0.00  0.00    +0.073 C 
ATOM     13  C   UNL     1      -2.885  -0.134  -4.860  0.00  0.00    +0.022 C 
ATOM     14  C   UNL     1      -3.307   0.521  -6.177  0.00  0.00    +0.002 C 
ATOM     15  C   UNL     1      -2.867  -0.359  -7.348  0.00  0.00    +0.003 C 
ATOM     16  C   UNL     1      -1.346  -0.518  -7.323  0.00  0.00    -0.012 C 
ATOM     17  C   UNL     1      -0.923  -1.174  -6.007  0.00  0.00    +0.025 C 
ATOM     18  C   UNL     1      -0.906  -1.398  -8.495  0.00  0.00    +0.007 C 
ENDBRANCH  10  12
ENDBRANCH   3   8
BRANCH   7  19
ATOM     19  N   UNL     1       0.187   0.171   2.387  0.00  0.00    +0.057 N 
ATOM     20  O   UNL     1       0.394  -0.371   3.447  0.00  0.00    -0.126 OA
ATOM     21  O   UNL     1       0.051   1.371   2.338  0.00  0.00    -0.126 OA
ENDBRANCH   7  19
BRANCH   5  22
ATOM     22  N   UNL     1       0.660  -4.185   0.067  0.00  0.00    +0.057 N 
ATOM     23  O   UNL     1       0.597  -4.849  -0.941  0.00  0.00    -0.126 OA
ATOM     24  O   UNL     1       0.993  -4.699   1.109  0.00  0.00    -0.126 OA
ENDBRANCH   5  22
TORSDOF 4
