REMARK  Name = ZINC12537055
REMARK  10 active torsions:
REMARK  status: ('A' for Active; 'I' for Inactive)
REMARK    1  A    between atoms: C_1  and  C_2
REMARK    2  A    between atoms: C_2  and  O_3
REMARK    3  A    between atoms: O_3  and  C_4
REMARK    4  A    between atoms: C_4  and  C_6
REMARK    5  A    between atoms: C_7  and  C_33
REMARK    6  A    between atoms: N_8  and  C_23
REMARK    7  A    between atoms: C_12  and  C_14
REMARK    8  A    between atoms: C_17  and  O_21
REMARK    9  A    between atoms: C_18  and  O_20
REMARK   10  A    between atoms: O_21  and  C_22
REMARK                            x       y       z     vdW  Elec       q    Type
REMARK                         _______ _______ _______ _____ _____    ______ ____
ROOT
ATOM      1  C   UNL     1       4.742  -2.736   0.140  0.00  0.00    +0.078 C 
ATOM      2  C   UNL     1       3.596  -2.026   0.051  0.00  0.00    +0.027 C 
ATOM      3  N   UNL     1       3.618  -0.675  -0.149  0.00  0.00    -0.255 N 
ATOM      4  C   UNL     1       4.745   0.039  -0.275  0.00  0.00    +0.142 C 
ATOM      5  S   UNL     1       4.630   1.728  -0.530  0.00  0.00    -0.018 S 
ATOM      6  N   UNL     1       5.965  -0.529  -0.203  0.00  0.00    -0.315 N 
ATOM      7  C   UNL     1       6.050  -1.983   0.010  0.00  0.00    +0.141 C 
ATOM      8  C   UNL     1       2.272  -2.735   0.175  0.00  0.00    +0.062 C 
ATOM      9  H   UNL     1       6.768   0.008  -0.294  0.00  0.00    +0.149 HD
ENDROOT
BRANCH   3  10
ATOM     10  C   UNL     1       2.394   0.003  -0.231  0.00  0.00    +0.044 A 
ATOM     11  C   UNL     1       1.765   0.154  -1.460  0.00  0.00    +0.027 A 
ATOM     12  C   UNL     1       0.559   0.822  -1.542  0.00  0.00    +0.051 A 
ATOM     13  C   UNL     1      -0.028   1.343  -0.398  0.00  0.00    +0.162 A 
ATOM     14  C   UNL     1       0.597   1.190   0.834  0.00  0.00    +0.164 A 
ATOM     15  C   UNL     1       1.809   0.521   0.915  0.00  0.00    +0.073 A 
ATOM     16  O   UNL     1       0.032   1.687   1.968  0.00  0.00    -0.485 OA
ATOM     17  C   UNL     1      -0.992   2.674   1.798  0.00  0.00    +0.270 C 
ATOM     18  C   UNL     1      -1.957   2.183   0.711  0.00  0.00    +0.270 C 
ATOM     19  O   UNL     1      -1.214   2.006  -0.500  0.00  0.00    -0.485 OA
ENDBRANCH   3  10
BRANCH   7  20
ATOM     20  C   UNL     1       6.816  -2.578  -1.144  0.00  0.00    -0.019 A 
ATOM     21  C   UNL     1       6.494  -2.224  -2.441  0.00  0.00    +0.009 A 
ATOM     22  C   UNL     1       7.198  -2.762  -3.502  0.00  0.00    +0.050 A 
ATOM     23  C   UNL     1       8.220  -3.668  -3.268  0.00  0.00    +0.161 A 
ATOM     24  C   UNL     1       8.540  -4.029  -1.962  0.00  0.00    +0.159 A 
ATOM     25  C   UNL     1       7.835  -3.481  -0.903  0.00  0.00    +0.055 A 
BRANCH  24  26
ATOM     26  O   UNL     1       9.542  -4.917  -1.727  0.00  0.00    -0.503 OA
ATOM     27  H   UNL     1       9.252  -5.840  -1.702  0.00  0.00    +0.292 HD
ENDBRANCH  24  26
BRANCH  23  28
ATOM     28  O   UNL     1       8.909  -4.203  -4.311  0.00  0.00    -0.491 OA
ATOM     29  C   UNL     1       8.525  -3.787  -5.623  0.00  0.00    +0.277 C 
ENDBRANCH  23  28
ENDBRANCH   7  20
BRANCH   1  30
ATOM     30  C   UNL     1       4.720  -4.135   0.346  0.00  0.00    +0.339 C 
ATOM     31  O   UNL     1       3.658  -4.719   0.447  0.00  0.00    -0.245 OA
BRANCH  30  32
ATOM     32  O   UNL     1       5.879  -4.822   0.431  0.00  0.00    -0.462 OA
BRANCH  32  34
ATOM     33  C   UNL     1       7.187  -6.835   0.710  0.00  0.00    +0.048 C 
ATOM     34  C   UNL     1       5.782  -6.233   0.640  0.00  0.00    +0.229 C 
ENDBRANCH  32  34
ENDBRANCH  30  32
ENDBRANCH   1  30
TORSDOF 7
