REMARK  Name = ZINC01029483
REMARK  4 active torsions:
REMARK  status: ('A' for Active; 'I' for Inactive)
REMARK    1  A    between atoms: C_5  and  C_7
REMARK    2  A    between atoms: C_12  and  O_21
REMARK    3  A    between atoms: C_16  and  N_20
REMARK    4  A    between atoms: C_17  and  C_18
REMARK                            x       y       z     vdW  Elec       q    Type
REMARK                         _______ _______ _______ _____ _____    ______ ____
ROOT
ATOM      1  C   UNL     1      -1.323   2.130   0.032  0.00  0.00    +0.099 C 
ATOM      2  C   UNL     1      -0.017   1.382   0.010  0.00  0.00    +0.008 A 
ATOM      3  C   UNL     1       1.172   2.090   0.002  0.00  0.00    +0.012 A 
ATOM      4  C   UNL     1       2.380   1.421  -0.012  0.00  0.00    +0.046 A 
ATOM      5  C   UNL     1       2.405   0.034  -0.020  0.00  0.00    +0.120 A 
ATOM      6  C   UNL     1       1.216  -0.678  -0.013  0.00  0.00    +0.092 A 
ATOM      7  C   UNL     1       0.002  -0.004   0.002  0.00  0.00    +0.138 A 
ATOM      8  O   UNL     1      -1.152  -0.715   0.009  0.00  0.00    -0.441 OA
ATOM      9  C   UNL     1      -2.304  -0.129  -0.357  0.00  0.00    +0.199 C 
ATOM     10  C   UNL     1      -2.450   1.218  -0.370  0.00  0.00    +0.098 C 
ENDROOT
BRANCH   1  15
ATOM     11  C   UNL     1      -1.894   2.271   3.762  0.00  0.00    +0.000 A 
ATOM     12  C   UNL     1      -2.027   3.631   3.970  0.00  0.00    +0.001 A 
ATOM     13  C   UNL     1      -1.932   4.506   2.904  0.00  0.00    +0.014 A 
ATOM     14  C   UNL     1      -1.704   4.020   1.629  0.00  0.00    +0.017 A 
ATOM     15  C   UNL     1      -1.571   2.659   1.421  0.00  0.00    -0.022 A 
ATOM     16  C   UNL     1      -1.672   1.785   2.487  0.00  0.00    +0.005 A 
ATOM     17  I   UNL     1      -1.559   5.345   0.013  0.00  0.00    -0.044 I 
ENDBRANCH   1  15
BRANCH   9  18
ATOM     18  N   UNL     1      -3.364  -0.917  -0.730  0.00  0.00    -0.328 N 
ATOM     19  H   UNL     1      -3.275  -1.883  -0.725  0.00  0.00    +0.145 HD
ATOM     20  H   UNL     1      -4.202  -0.508  -0.997  0.00  0.00    +0.145 HD
ENDBRANCH   9  18
BRANCH  10  21
ATOM     21  C   UNL     1      -3.703   1.783  -0.772  0.00  0.00    +0.101 C 
ATOM     22  N   UNL     1      -4.696   2.232  -1.090  0.00  0.00    -0.191 NA
ENDBRANCH  10  21
BRANCH   5  23
ATOM     23  O   UNL     1       3.593  -0.626  -0.034  0.00  0.00    -0.507 OA
ATOM     24  H   UNL     1       3.929  -0.812  -0.922  0.00  0.00    +0.292 HD
ENDBRANCH   5  23
TORSDOF 4
