REMARK  Name = ZINC16046264
REMARK  11 active torsions:
REMARK  status: ('A' for Active; 'I' for Inactive)
REMARK    1  A    between atoms: C_1  and  C_2
REMARK    2  A    between atoms: C_2  and  C_3
REMARK    3  A    between atoms: C_2  and  C_4
REMARK    4  A    between atoms: C_4  and  N_5
REMARK    5  A    between atoms: N_5  and  C_6
REMARK    6  A    between atoms: C_7  and  N_22
REMARK    7  A    between atoms: N_8  and  C_15
REMARK    8  A    between atoms: C_15  and  C_16
REMARK    9  A    between atoms: C_23  and  C_25
REMARK   10  A    between atoms: C_25  and  N_26
REMARK   11  A    between atoms: N_26  and  C_27
REMARK                            x       y       z     vdW  Elec       q    Type
REMARK                         _______ _______ _______ _____ _____    ______ ____
ROOT
ATOM      1  C   UNL     1       1.261   3.503  -0.091  0.00  0.00    +0.140 A 
ATOM      2  C   UNL     1       0.329   3.918   0.839  0.00  0.00    +0.128 A 
ATOM      3  N   UNL     1      -0.980   3.518   0.702  0.00  0.00    -0.276 N 
ATOM      4  C   UNL     1      -1.349   2.736  -0.329  0.00  0.00    +0.331 A 
ATOM      5  O   UNL     1      -2.512   2.398  -0.434  0.00  0.00    -0.246 OA
ATOM      6  N   UNL     1      -0.454   2.318  -1.242  0.00  0.00    -0.273 N 
ATOM      7  H   UNL     1      -0.753   1.732  -1.994  0.00  0.00    +0.173 HD
ATOM      8  C   UNL     1       0.840   2.681  -1.154  0.00  0.00    +0.277 A 
ATOM      9  O   UNL     1       1.643   2.300  -1.990  0.00  0.00    -0.266 OA
ENDROOT
BRANCH   1  10
ATOM     10  N   UNL     1       2.611   3.896   0.021  0.00  0.00    -0.263 N 
ATOM     11  C   UNL     1       2.939   5.204  -0.032  0.00  0.00    +0.237 C 
ATOM     12  O   UNL     1       2.068   6.047  -0.082  0.00  0.00    -0.274 OA
BRANCH  10  13
ATOM     13  C   UNL     1       3.656   2.885   0.195  0.00  0.00    +0.117 C 
BRANCH  13  15
ATOM     14  C   UNL     1       2.615   1.950   2.264  0.00  0.00    +0.009 C 
ATOM     15  C   UNL     1       3.864   2.618   1.687  0.00  0.00    +0.001 C 
ATOM     16  C   UNL     1       5.070   1.695   1.876  0.00  0.00    +0.009 C 
ENDBRANCH  13  15
ENDBRANCH  10  13
BRANCH  11  17
ATOM     17  C   UNL     1       4.388   5.618  -0.029  0.00  0.00    +0.198 C 
BRANCH  17  18
ATOM     18  N   UNL     1       4.479   7.079   0.029  0.00  0.00    -0.334 N 
ATOM     19  H   UNL     1       3.671   7.614   0.059  0.00  0.00    +0.147 HD
BRANCH  18  20
ATOM     20  C   UNL     1       5.730   7.701   0.042  0.00  0.00    +0.046 A 
ATOM     21  C   UNL     1       6.889   6.936   0.005  0.00  0.00    +0.024 A 
ATOM     22  C   UNL     1       8.124   7.555   0.013  0.00  0.00    +0.002 A 
ATOM     23  C   UNL     1       8.208   8.934   0.068  0.00  0.00    +0.002 A 
ATOM     24  C   UNL     1       7.057   9.699   0.111  0.00  0.00    +0.022 A 
ATOM     25  C   UNL     1       5.818   9.087   0.098  0.00  0.00    +0.062 A 
ATOM     26 CL   UNL     1       4.373  10.049   0.152  0.00  0.00    -0.082 Cl
ENDBRANCH  18  20
ENDBRANCH  17  18
ENDBRANCH  11  17
ENDBRANCH   1  10
BRANCH   2  27
ATOM     27  N   UNL     1       0.705   4.720   1.889  0.00  0.00    -0.343 N 
ATOM     28  H   UNL     1       1.615   5.052   1.944  0.00  0.00    +0.144 HD
ATOM     29  H   UNL     1       0.061   4.954   2.575  0.00  0.00    +0.144 HD
ENDBRANCH   2  27
BRANCH   3  30
ATOM     30  C   UNL     1      -1.979   3.951   1.682  0.00  0.00    +0.163 C 
BRANCH  30  31
ATOM     31  C   UNL     1      -2.592   5.252   1.233  0.00  0.00    -0.028 A 
ATOM     32  C   UNL     1      -2.031   6.453   1.628  0.00  0.00    +0.005 A 
ATOM     33  C   UNL     1      -2.591   7.646   1.212  0.00  0.00    +0.000 A 
ATOM     34  C   UNL     1      -3.717   7.640   0.411  0.00  0.00    +0.000 A 
ATOM     35  C   UNL     1      -4.281   6.440   0.021  0.00  0.00    +0.000 A 
ATOM     36  C   UNL     1      -3.718   5.246   0.432  0.00  0.00    +0.005 A 
ENDBRANCH  30  31
ENDBRANCH   3  30
TORSDOF 9
