REMARK  Name = ZINC39228445
REMARK  3 active torsions:
REMARK  status: ('A' for Active; 'I' for Inactive)
REMARK    1  A    between atoms: C_15  and  C_17
REMARK    2  A    between atoms: C_23  and  C_25
REMARK    3  A    between atoms: N_27  and  C_28
REMARK                            x       y       z     vdW  Elec       q    Type
REMARK                         _______ _______ _______ _____ _____    ______ ____
ROOT
ATOM      1  C   UNL     1      -8.182   1.116   1.860  0.00  0.00    +0.087 C 
ATOM      2  C   UNL     1      -8.810   0.175   0.829  0.00  0.00    +0.013 C 
ATOM      3  C   UNL     1      -9.908   0.917   0.064  0.00  0.00    +0.001 C 
ATOM      4  C   UNL     1     -10.983   1.389   1.045  0.00  0.00    +0.001 C 
ATOM      5  C   UNL     1     -10.356   2.329   2.076  0.00  0.00    +0.013 C 
ATOM      6  C   UNL     1      -9.258   1.589   2.841  0.00  0.00    +0.087 C 
ENDROOT
BRANCH   1  21
ATOM      7  C   UNL     1      -0.116   1.783  -0.295  0.00  0.00    +0.001 A 
ATOM      8  C   UNL     1      -0.053   0.397  -0.331  0.00  0.00    +0.002 A 
ATOM      9  C   UNL     1      -1.204  -0.359  -0.303  0.00  0.00    +0.026 A 
ATOM     10  C   UNL     1      -2.443   0.270  -0.238  0.00  0.00    +0.047 A 
ATOM     11  N   UNL     1      -3.740  -0.195  -0.197  0.00  0.00    -0.356 N 
ATOM     12  C   UNL     1      -4.608   0.857  -0.138  0.00  0.00    +0.038 A 
ATOM     13  H   UNL     1      -3.997  -1.130  -0.208  0.00  0.00    +0.166 HD
ATOM     14  C   UNL     1      -6.119   0.784  -0.087  0.00  0.00    +0.161 C 
ATOM     15  N   UNL     1      -6.614   2.133   0.239  0.00  0.00    -0.295 N 
ATOM     16  C   UNL     1      -6.020   3.283  -0.459  0.00  0.00    +0.113 C 
ATOM     17  C   UNL     1      -4.539   3.388  -0.075  0.00  0.00    +0.056 C 
ATOM     18  C   UNL     1      -3.921   2.015  -0.136  0.00  0.00    -0.016 A 
ATOM     19  C   UNL     1      -2.502   1.677  -0.202  0.00  0.00    +0.003 A 
ATOM     20  C   UNL     1      -1.322   2.422  -0.226  0.00  0.00    +0.010 A 
ATOM     21  C   UNL     1      -7.587   2.308   1.155  0.00  0.00    +0.220 C 
ATOM     22  O   UNL     1      -7.984   3.425   1.412  0.00  0.00    -0.275 OA
ENDBRANCH   1  21
BRANCH   6  23
ATOM     23  C   UNL     1      -8.639   2.515   3.856  0.00  0.00    +0.217 C 
ATOM     24  O   UNL     1      -7.456   2.773   3.800  0.00  0.00    -0.275 OA
ATOM     25  N   UNL     1      -9.402   3.058   4.825  0.00  0.00    -0.304 N 
ATOM     26  H   UNL     1     -10.349   2.852   4.870  0.00  0.00    +0.149 HD
BRANCH  25  27
ATOM     27  C   UNL     1      -8.801   3.959   5.812  0.00  0.00    +0.159 C 
ATOM     28  C   UNL     1      -9.741   4.108   7.011  0.00  0.00    +0.032 C 
ATOM     29  C   UNL     1     -11.191   4.072   6.566  0.00  0.00    +0.004 C 
ATOM     30  C   UNL     1     -11.603   5.263   5.720  0.00  0.00    +0.019 C 
ATOM     31  C   UNL     1     -10.884   5.247   4.370  0.00  0.00    +0.104 C 
ATOM     32  N   UNL     1      -9.582   5.916   4.522  0.00  0.00    -0.314 N 
ATOM     33  C   UNL     1      -8.588   5.323   5.191  0.00  0.00    +0.233 C 
ATOM     34  O   UNL     1      -7.516   5.879   5.308  0.00  0.00    -0.274 OA
ATOM     35  H   UNL     1      -9.442   6.793   4.131  0.00  0.00    +0.149 HD
ENDBRANCH  25  27
ENDBRANCH   6  23
TORSDOF 3
