REMARK  Name = ZINC08673093
REMARK  10 active torsions:
REMARK  status: ('A' for Active; 'I' for Inactive)
REMARK    1  A    between atoms: C_1  and  C_2
REMARK    2  A    between atoms: C_2  and  C_3
REMARK    3  A    between atoms: C_3  and  C_5
REMARK    4  A    between atoms: C_3  and  N_6
REMARK    5  A    between atoms: N_6  and  C_7
REMARK    6  A    between atoms: C_15  and  C_17
REMARK    7  A    between atoms: C_17  and  O_18
REMARK    8  A    between atoms: O_18  and  C_19
REMARK    9  A    between atoms: C_19  and  C_21
REMARK   10  A    between atoms: C_21  and  C_22
REMARK                            x       y       z     vdW  Elec       q    Type
REMARK                         _______ _______ _______ _____ _____    ______ ____
ROOT
ATOM      1  O   UNL     1       3.163  -1.887   1.925  0.00  0.00    -0.455 OA
ENDROOT
BRANCH   1   2
ATOM      2  C   UNL     1       2.721  -2.627   2.955  0.00  0.00    +0.313 C 
ATOM      3  O   UNL     1       1.562  -2.964   3.002  0.00  0.00    -0.250 OA
BRANCH   2   4
ATOM      4  C   UNL     1       3.670  -3.035   4.051  0.00  0.00    +0.178 C 
BRANCH   4   5
ATOM      5  C   UNL     1       2.929  -3.852   5.078  0.00  0.00    +0.080 A 
ATOM      6  C   UNL     1       3.635  -4.365   6.253  0.00  0.00    +0.011 A 
ATOM      7  C   UNL     1       4.994  -4.121   6.461  0.00  0.00    +0.010 A 
ATOM      8  C   UNL     1       5.608  -4.622   7.574  0.00  0.00    +0.001 A 
ATOM      9  C   UNL     1       4.900  -5.372   8.504  0.00  0.00    +0.001 A 
ATOM     10  C   UNL     1       3.559  -5.630   8.325  0.00  0.00    +0.014 A 
ATOM     11  C   UNL     1       2.910  -5.128   7.197  0.00  0.00    +0.050 A 
ATOM     12  C   UNL     1       1.483  -5.367   6.949  0.00  0.00    +0.272 A 
ATOM     13  N   UNL     1       0.923  -4.851   5.835  0.00  0.00    -0.242 N 
ATOM     14  N   UNL     1       1.662  -4.097   4.923  0.00  0.00    -0.175 NA
ATOM     15  O   UNL     1       0.817  -6.019   7.733  0.00  0.00    -0.266 OA
ATOM     16  H   UNL     1      -0.020  -5.005   5.666  0.00  0.00    +0.192 HD
ENDBRANCH   4   5
ENDBRANCH   2   4
ENDBRANCH   1   2
BRANCH   1  17
ATOM     17  C   UNL     1       2.209  -1.536   0.921  0.00  0.00    +0.327 C 
BRANCH  17  19
ATOM     18  N   UNL     1       2.153  -0.182  -1.148  0.00  0.00    -0.291 N 
ATOM     19  C   UNL     1       2.882  -0.713  -0.146  0.00  0.00    +0.254 C 
ATOM     20  O   UNL     1       4.080  -0.528  -0.104  0.00  0.00    -0.272 OA
BRANCH  18  21
ATOM     21  C   UNL     1       2.788   0.705  -2.126  0.00  0.00    +0.099 C 
ATOM     22  C   UNL     1       3.940  -0.035  -2.827  0.00  0.00    +0.046 C 
ATOM     23  C   UNL     1       4.811   0.972  -3.616  0.00  0.00    +0.168 C 
ATOM     24  S   UNL     1       4.589   2.530  -2.664  0.00  0.00    -0.029 S 
ATOM     25  O   UNL     1       5.812   2.857  -2.019  0.00  0.00    -0.174 OA
ATOM     26  O   UNL     1       3.958   3.494  -3.497  0.00  0.00    -0.174 OA
ATOM     27  C   UNL     1       3.382   1.947  -1.401  0.00  0.00    +0.188 C 
ENDBRANCH  18  21
BRANCH  18  28
ATOM     28  C   UNL     1       0.726  -0.492  -1.259  0.00  0.00    +0.073 C 
ATOM     29  C   UNL     1      -0.079   0.810  -1.279  0.00  0.00    +0.028 C 
BRANCH  28  31
ATOM     30  C   UNL     1       1.161  -2.632  -2.473  0.00  0.00    +0.005 C 
ATOM     31  C   UNL     1       0.471  -1.268  -2.553  0.00  0.00    +0.019 C 
ENDBRANCH  28  31
ENDBRANCH  18  28
ENDBRANCH  17  19
ENDBRANCH   1  17
TORSDOF 8
