REMARK  Name = ZINC14009805
REMARK  7 active torsions:
REMARK  status: ('A' for Active; 'I' for Inactive)
REMARK    1  A    between atoms: C_1  and  C_2
REMARK    2  A    between atoms: C_2  and  C_3
REMARK    3  A    between atoms: C_3  and  N_4
REMARK    4  A    between atoms: C_5  and  C_7
REMARK    5  A    between atoms: C_12  and  N_13
REMARK    6  A    between atoms: C_14  and  C_16
REMARK    7  A    between atoms: C_21  and  N_22
REMARK                            x       y       z     vdW  Elec       q    Type
REMARK                         _______ _______ _______ _____ _____    ______ ____
ROOT
ATOM      1  C   UNL     1      -2.586   0.828  -0.264  0.00  0.00    +0.058 A 
ATOM      2  C   UNL     1      -2.609  -0.562  -0.405  0.00  0.00    +0.015 A 
ATOM      3  C   UNL     1      -3.801  -1.244  -0.299  0.00  0.00    +0.001 A 
ATOM      4  C   UNL     1      -4.980  -0.558  -0.053  0.00  0.00    +0.002 A 
ATOM      5  C   UNL     1      -4.974   0.814   0.088  0.00  0.00    +0.024 A 
ATOM      6  C   UNL     1      -3.780   1.518  -0.009  0.00  0.00    +0.046 A 
ENDROOT
BRANCH   1   8
ATOM      7  N   UNL     1      -0.151   0.889  -0.486  0.00  0.00    -0.311 N 
ATOM      8  C   UNL     1      -1.313   1.564  -0.376  0.00  0.00    +0.246 C 
ATOM      9  O   UNL     1      -1.311   2.780  -0.369  0.00  0.00    -0.270 OA
ATOM     10  H   UNL     1      -0.153  -0.081  -0.492  0.00  0.00    +0.149 HD
BRANCH   7  11
ATOM     11  C   UNL     1       1.112   1.621  -0.604  0.00  0.00    +0.104 C 
BRANCH  11  13
ATOM     12  C   UNL     1       3.588   1.389  -0.844  0.00  0.00    +0.005 C 
ATOM     13  C   UNL     1       2.268   0.625  -0.721  0.00  0.00    +0.015 C 
ENDBRANCH  11  13
ENDBRANCH   7  11
ENDBRANCH   1   8
BRANCH   6  14
ATOM     14  N   UNL     1      -3.771   2.902   0.139  0.00  0.00    -0.281 N 
ATOM     15  C   UNL     1      -4.854   3.625  -0.209  0.00  0.00    +0.250 C 
ATOM     16  O   UNL     1      -5.867   3.063  -0.575  0.00  0.00    -0.270 OA
ATOM     17  H   UNL     1      -2.984   3.346   0.492  0.00  0.00    +0.155 HD
BRANCH  15  18
ATOM     18  C   UNL     1      -4.809   5.101  -0.145  0.00  0.00    +0.067 A 
ATOM     19  C   UNL     1      -3.815   5.803  -0.830  0.00  0.00    +0.015 A 
ATOM     20  C   UNL     1      -3.782   7.180  -0.769  0.00  0.00    +0.001 A 
ATOM     21  C   UNL     1      -4.725   7.866  -0.023  0.00  0.00    +0.002 A 
ATOM     22  C   UNL     1      -5.709   7.176   0.662  0.00  0.00    +0.033 A 
ATOM     23  C   UNL     1      -5.757   5.799   0.606  0.00  0.00    +0.138 A 
BRANCH  23  24
ATOM     24  N   UNL     1      -6.810   5.062   1.340  0.00  0.00    +0.057 N 
ATOM     25  O   UNL     1      -7.714   5.673   1.883  0.00  0.00    -0.126 OA
ATOM     26  O   UNL     1      -6.774   3.846   1.400  0.00  0.00    -0.126 OA
ENDBRANCH  23  24
ENDBRANCH  15  18
ENDBRANCH   6  14
TORSDOF 6
