REMARK  Name = ZINC63372676
REMARK  11 active torsions:
REMARK  status: ('A' for Active; 'I' for Inactive)
REMARK    1  A    between atoms: C_1  and  C_2
REMARK    2  A    between atoms: C_2  and  O_3
REMARK    3  A    between atoms: O_3  and  C_4
REMARK    4  A    between atoms: C_5  and  C_12
REMARK    5  A    between atoms: C_9  and  O_10
REMARK    6  A    between atoms: O_10  and  C_11
REMARK    7  A    between atoms: N_19  and  C_34
REMARK    8  A    between atoms: C_22  and  C_33
REMARK    9  A    between atoms: C_34  and  C_35
REMARK   10  A    between atoms: C_35  and  C_36
REMARK   11  A    between atoms: C_36  and  N_37
REMARK                            x       y       z     vdW  Elec       q    Type
REMARK                         _______ _______ _______ _____ _____    ______ ____
ROOT
ATOM      1  C   UNL     1      -1.086  -1.826   3.021  0.00  0.00    +0.069 C 
ATOM      2  C   UNL     1      -2.253  -2.176   2.095  0.00  0.00    +0.121 C 
ATOM      3  N   UNL     1      -2.888  -3.443   2.414  0.00  0.00    -0.283 N 
ATOM      4  C   UNL     1      -3.725  -3.978   1.464  0.00  0.00    +0.234 C 
ATOM      5  O   UNL     1      -3.822  -3.493   0.357  0.00  0.00    -0.274 OA
ATOM      6  C   UNL     1      -4.521  -5.202   1.866  0.00  0.00    +0.203 C 
ATOM      7  N   UNL     1      -5.059  -4.987   3.222  0.00  0.00    -0.291 N 
ATOM      8  C   UNL     1      -4.186  -4.500   4.155  0.00  0.00    +0.242 C 
ATOM      9  O   UNL     1      -4.506  -4.319   5.311  0.00  0.00    -0.273 OA
ATOM     10  C   UNL     1      -2.799  -4.205   3.647  0.00  0.00    +0.135 C 
ATOM     11  C   UNL     1      -1.859  -3.702   4.697  0.00  0.00    +0.139 C 
ATOM     12  C   UNL     1      -1.507  -2.249   4.406  0.00  0.00    -0.027 C 
ATOM     13  C   UNL     1      -1.679  -1.582   5.537  0.00  0.00    -0.000 A 
ATOM     14  C   UNL     1      -1.409  -0.183   5.906  0.00  0.00    +0.010 A 
ATOM     15  C   UNL     1      -1.735   0.176   7.176  0.00  0.00    +0.001 A 
ATOM     16  C   UNL     1      -2.296  -0.706   8.105  0.00  0.00    +0.002 A 
ATOM     17  C   UNL     1      -2.570  -2.011   7.855  0.00  0.00    +0.026 A 
ATOM     18  C   UNL     1      -2.263  -2.509   6.556  0.00  0.00    +0.043 A 
ATOM     19  N   UNL     1      -2.405  -3.695   6.053  0.00  0.00    -0.375 N 
ATOM     20  C   UNL     1      -2.229  -5.565   3.237  0.00  0.00    +0.044 C 
ATOM     21  H   UNL     1      -2.804  -4.452   6.510  0.00  0.00    +0.160 HD
ENDROOT
BRANCH   1  23
ATOM     22  C   UNL     1       1.258  -1.889   2.137  0.00  0.00    +0.166 A 
ATOM     23  C   UNL     1       0.151  -2.580   2.603  0.00  0.00    +0.007 A 
ATOM     24  C   UNL     1       0.180  -3.959   2.684  0.00  0.00    +0.008 A 
ATOM     25  C   UNL     1       1.314  -4.653   2.303  0.00  0.00    +0.004 A 
ATOM     26  C   UNL     1       2.422  -3.971   1.837  0.00  0.00    +0.049 A 
ATOM     27  C   UNL     1       2.397  -2.588   1.747  0.00  0.00    +0.162 A 
BRANCH  27  28
ATOM     28  O   UNL     1       3.484  -1.915   1.284  0.00  0.00    -0.491 OA
ATOM     29  C   UNL     1       4.617  -2.698   0.902  0.00  0.00    +0.277 C 
ENDBRANCH  27  28
BRANCH  22  30
ATOM     30  O   UNL     1       1.231  -0.532   2.056  0.00  0.00    -0.488 OA
BRANCH  30  32
ATOM     31  C   UNL     1       0.803   1.562   0.927  0.00  0.00    +0.048 C 
ATOM     32  C   UNL     1       0.762   0.035   0.831  0.00  0.00    +0.226 C 
ENDBRANCH  30  32
ENDBRANCH  22  30
ENDBRANCH   1  23
BRANCH   7  33
ATOM     33  C   UNL     1      -6.457  -5.278   3.552  0.00  0.00    +0.110 C 
BRANCH  33  34
ATOM     34  C   UNL     1      -6.577  -6.728   4.027  0.00  0.00    +0.040 C 
BRANCH  34  35
ATOM     35  C   UNL     1      -8.036  -7.033   4.371  0.00  0.00    +0.124 C 
BRANCH  35  36
ATOM     36  N   UNL     1      -8.151  -8.421   4.825  0.00  0.00    -0.338 N 
ATOM     37  C   UNL     1      -8.386  -9.516   4.038  0.00  0.00    +0.104 A 
ATOM     38  C   UNL     1      -8.415 -10.585   4.857  0.00  0.00    +0.101 A 
ATOM     39  N   UNL     1      -8.203 -10.154   6.109  0.00  0.00    -0.352 N 
ATOM     40  C   UNL     1      -8.039  -8.860   6.097  0.00  0.00    +0.173 A 
ATOM     41  H   UNL     1      -8.172 -10.717   6.899  0.00  0.00    +0.166 HD
ENDBRANCH  35  36
ENDBRANCH  34  35
ENDBRANCH  33  34
ENDBRANCH   7  33
TORSDOF 8
