REMARK  Name = ZINC53096658
REMARK  4 active torsions:
REMARK  status: ('A' for Active; 'I' for Inactive)
REMARK    1  A    between atoms: C_4  and  N_7
REMARK    2  A    between atoms: N_7  and  C_8
REMARK    3  A    between atoms: C_8  and  C_14
REMARK    4  A    between atoms: C_14  and  O_15
REMARK                            x       y       z     vdW  Elec       q    Type
REMARK                         _______ _______ _______ _____ _____    ______ ____
ROOT
ATOM      1  C   UNL     1       3.489  -2.075  -0.097  0.00  0.00    +0.056 C 
ATOM      2  C   UNL     1       2.642  -2.495   1.106  0.00  0.00    +0.028 C 
ATOM      3  C   UNL     1       3.345  -2.073   2.398  0.00  0.00    +0.002 C 
ATOM      4  C   UNL     1       4.715  -2.750   2.477  0.00  0.00    +0.000 C 
ATOM      5  C   UNL     1       5.562  -2.330   1.274  0.00  0.00    +0.002 C 
ATOM      6  C   UNL     1       4.858  -2.752  -0.018  0.00  0.00    +0.028 C 
ENDROOT
BRANCH   1   7
ATOM      7  N   UNL     1       3.662  -0.620  -0.088  0.00  0.00    -0.320 N 
ATOM      8  H   UNL     1       3.328  -0.097   0.658  0.00  0.00    +0.148 HD
BRANCH   7  12
ATOM      9  C   UNL     1       5.555   1.175  -3.207  0.00  0.00    +0.130 A 
ATOM     10  C   UNL     1       4.963   1.931  -2.213  0.00  0.00    +0.132 A 
ATOM     11  N   UNL     1       4.350   1.335  -1.204  0.00  0.00    -0.237 NA
ATOM     12  C   UNL     1       4.304   0.010  -1.147  0.00  0.00    +0.137 A 
ATOM     13  C   UNL     1       4.902  -0.748  -2.151  0.00  0.00    +0.154 A 
ATOM     14  N   UNL     1       5.512  -0.145  -3.154  0.00  0.00    -0.258 NA
ENDBRANCH   7  12
ENDBRANCH   1   7
BRANCH   1  15
ATOM     15  C   UNL     1       2.785  -2.497  -1.388  0.00  0.00    +0.181 C 
BRANCH  15  16
ATOM     16  O   UNL     1       1.562  -1.769  -1.524  0.00  0.00    -0.393 OA
ATOM     17  H   UNL     1       1.062  -1.986  -2.323  0.00  0.00    +0.209 HD
ENDBRANCH  15  16
ENDBRANCH   1  15
TORSDOF 4
