REMARK  Name = ZINC25450984
REMARK  6 active torsions:
REMARK  status: ('A' for Active; 'I' for Inactive)
REMARK    1  A    between atoms: C_1  and  C_2
REMARK    2  A    between atoms: C_10  and  C_11
REMARK    3  A    between atoms: N_13  and  N_14
REMARK    4  A    between atoms: C_15  and  C_17
REMARK    5  A    between atoms: C_19  and  C_29
REMARK    6  A    between atoms: C_25  and  C_26
REMARK                            x       y       z     vdW  Elec       q    Type
REMARK                         _______ _______ _______ _____ _____    ______ ____
ROOT
ATOM      1  C   UNL     1       3.634   1.780   0.088  0.00  0.00    +0.115 A 
ATOM      2  C   UNL     1       4.833   1.129   0.075  0.00  0.00    +0.060 A 
ATOM      3  C   UNL     1       6.027   1.881   0.175  0.00  0.00    +0.076 A 
ATOM      4  N   UNL     1       5.975   3.198   0.281  0.00  0.00    -0.227 NA
ATOM      5  C   UNL     1       4.810   3.840   0.295  0.00  0.00    +0.171 A 
ATOM      6  N   UNL     1       3.623   3.155   0.195  0.00  0.00    -0.278 N 
ATOM      7  C   UNL     1       2.620   4.069   0.242  0.00  0.00    +0.206 A 
ATOM      8  N   UNL     1       3.121   5.267   0.356  0.00  0.00    -0.229 NA
ATOM      9  C   UNL     1       4.465   5.197   0.395  0.00  0.00    +0.169 A 
ENDROOT
BRANCH   3  10
ATOM     10  C   UNL     1       7.337   1.192   0.162  0.00  0.00    +0.000 A 
ATOM     11  C   UNL     1       7.396  -0.198   0.057  0.00  0.00    +0.010 A 
ATOM     12  C   UNL     1       8.621  -0.834   0.039  0.00  0.00    +0.001 A 
ATOM     13  C   UNL     1       9.788  -0.097   0.138  0.00  0.00    +0.000 A 
ATOM     14  C   UNL     1       9.735   1.281   0.248  0.00  0.00    +0.001 A 
ATOM     15  C   UNL     1       8.517   1.929   0.261  0.00  0.00    +0.010 A 
ENDBRANCH   3  10
BRANCH   9  16
ATOM     16  C   UNL     1       5.393   6.324   0.518  0.00  0.00    +0.264 C 
ATOM     17  O   UNL     1       6.594   6.124   0.542  0.00  0.00    -0.269 OA
ATOM     18  N   UNL     1       4.917   7.582   0.605  0.00  0.00    -0.324 N 
ATOM     19  H   UNL     1       5.614   8.428   0.698  0.00  0.00    +0.145 HD
ATOM     20  H   UNL     1       3.832   7.763   0.583  0.00  0.00    +0.145 HD
ENDBRANCH   9  16
BRANCH   1  22
ATOM     21  N   UNL     1       2.387  -0.323  -0.017  0.00  0.00    -0.229 N 
ATOM     22  C   UNL     1       2.369   1.025  -0.015  0.00  0.00    +0.277 C 
ATOM     23  O   UNL     1       1.311   1.619  -0.098  0.00  0.00    -0.267 OA
ATOM     24  H   UNL     1       3.346  -0.860  -0.026  0.00  0.00    +0.173 HD
BRANCH  21  27
ATOM     25  C   UNL     1       1.201  -2.387  -0.004  0.00  0.00    +0.296 C 
ATOM     26  O   UNL     1       2.262  -2.981  -0.014  0.00  0.00    -0.265 OA
ATOM     27  N   UNL     1       1.183  -1.039  -0.008  0.00  0.00    -0.228 N 
ATOM     28  H   UNL     1       0.223  -0.502  -0.003  0.00  0.00    +0.173 HD
BRANCH  25  38
ATOM     29  C   UNL     1       0.966  -5.488  -0.006  0.00  0.00    +0.048 C 
ATOM     30  C   UNL     1      -0.166  -4.493   0.011  0.00  0.00    +0.008 A 
ATOM     31  C   UNL     1      -1.598  -4.790   0.033  0.00  0.00    +0.024 A 
ATOM     32  C   UNL     1      -2.348  -5.968   0.045  0.00  0.00    +0.012 A 
ATOM     33  C   UNL     1      -3.712  -5.902   0.059  0.00  0.00    +0.001 A 
ATOM     34  C   UNL     1      -4.357  -4.672   0.062  0.00  0.00    +0.004 A 
ATOM     35  C   UNL     1      -3.636  -3.499   0.051  0.00  0.00    +0.047 A 
ATOM     36  C   UNL     1      -2.246  -3.540   0.036  0.00  0.00    +0.136 A 
ATOM     37  O   UNL     1      -1.294  -2.587   0.023  0.00  0.00    -0.450 OA
ATOM     38  C   UNL     1      -0.062  -3.139   0.012  0.00  0.00    +0.195 A 
ENDBRANCH  25  38
ENDBRANCH  21  27
ENDBRANCH   1  22
TORSDOF 5
