REMARK  Name = ZINC39022394
REMARK  7 active torsions:
REMARK  status: ('A' for Active; 'I' for Inactive)
REMARK    1  A    between atoms: C_1  and  C_2
REMARK    2  A    between atoms: C_2  and  C_3
REMARK    3  A    between atoms: C_3  and  C_4
REMARK    4  A    between atoms: C_9  and  C_11
REMARK    5  A    between atoms: C_14  and  C_17
REMARK    6  A    between atoms: C_20  and  C_24
REMARK    7  A    between atoms: C_22  and  O_23
REMARK                            x       y       z     vdW  Elec       q    Type
REMARK                         _______ _______ _______ _____ _____    ______ ____
ROOT
ATOM      1  C   UNL     1      -1.330  -8.386  -0.255  0.00  0.00    +0.123 C 
ATOM      2  N   UNL     1      -1.325  -8.806  -1.478  0.00  0.00    -0.186 NA
ATOM      3  N   UNL     1      -1.308 -10.194  -1.601  0.00  0.00    -0.261 N 
ATOM      4  C   UNL     1      -1.302 -10.792  -0.257  0.00  0.00    +0.129 C 
ATOM      5  C   UNL     1      -1.310  -9.571   0.684  0.00  0.00    +0.091 C 
ATOM      6  H   UNL     1      -1.302 -10.686  -2.437  0.00  0.00    +0.169 HD
ENDROOT
BRANCH   1  12
ATOM      7  C   UNL     1      -1.413  -2.041   0.005  0.00  0.00    +0.104 A 
ATOM      8  N   UNL     1      -1.398  -2.893   1.010  0.00  0.00    -0.145 NA
ATOM      9  N   UNL     1      -1.382  -4.141   0.832  0.00  0.00    -0.126 NA
ATOM     10  C   UNL     1      -1.380  -4.675  -0.382  0.00  0.00    +0.188 A 
ATOM     11  N   UNL     1      -1.364  -6.008  -0.773  0.00  0.00    -0.258 N 
ATOM     12  C   UNL     1      -1.347  -6.983   0.157  0.00  0.00    +0.265 C 
ATOM     13  O   UNL     1      -1.346  -6.695   1.340  0.00  0.00    -0.268 OA
ATOM     14  S   UNL     1      -1.410  -3.184  -1.373  0.00  0.00    -0.035 S 
ATOM     15  H   UNL     1      -1.365  -6.237  -1.716  0.00  0.00    +0.157 HD
BRANCH   7  16
ATOM     16  C   UNL     1      -1.433  -0.534   0.013  0.00  0.00    +0.064 C 
BRANCH  16  18
ATOM     17  C   UNL     1      -0.019   1.526   0.010  0.00  0.00    +0.004 C 
ATOM     18  C   UNL     1       0.002  -0.004   0.002  0.00  0.00    +0.003 C 
ENDBRANCH  16  18
ENDBRANCH   7  16
ENDBRANCH   1  12
BRANCH   4  19
ATOM     19  C   UNL     1      -2.530 -11.640  -0.049  0.00  0.00    +0.016 A 
ATOM     20  C   UNL     1      -3.630 -11.479  -0.870  0.00  0.00    +0.009 A 
ATOM     21  C   UNL     1      -4.756 -12.256  -0.679  0.00  0.00    +0.004 A 
ATOM     22  C   UNL     1      -4.786 -13.199   0.333  0.00  0.00    -0.047 A 
ATOM     23  C   UNL     1      -3.689 -13.365   1.155  0.00  0.00    +0.049 A 
ATOM     24  C   UNL     1      -2.555 -12.589   0.963  0.00  0.00    +0.122 A 
ATOM     25  C   UNL     1      -6.016 -14.045   0.538  0.00  0.00    +0.044 C 
BRANCH  24  26
ATOM     26  O   UNL     1      -1.472 -12.754   1.768  0.00  0.00    -0.506 OA
ATOM     27  H   UNL     1      -1.482 -12.198   2.558  0.00  0.00    +0.292 HD
ENDBRANCH  24  26
ENDBRANCH   4  19
TORSDOF 5
