REMARK  Name = ZINC21792649
REMARK  3 active torsions:
REMARK  status: ('A' for Active; 'I' for Inactive)
REMARK    1  A    between atoms: C_4  and  C_7
REMARK    2  A    between atoms: C_5  and  N_6
REMARK    3  A    between atoms: C_9  and  C_12
REMARK                            x       y       z     vdW  Elec       q    Type
REMARK                         _______ _______ _______ _____ _____    ______ ____
ROOT
ATOM      1  C   UNL     1      -1.287   3.027   0.030  0.00  0.00    +0.031 A 
ATOM      2  C   UNL     1      -2.497   3.638   0.035  0.00  0.00    +0.048 A 
ATOM      3  S   UNL     1      -3.616   2.315   0.033  0.00  0.00    -0.090 S 
ATOM      4  C   UNL     1      -2.445   0.969   0.019  0.00  0.00    +0.097 A 
ATOM      5  C   UNL     1      -1.229   1.647   0.017  0.00  0.00    +0.044 A 
ENDROOT
BRANCH   4   6
ATOM      6  C   UNL     1      -2.696  -0.471   0.011  0.00  0.00    +0.267 A 
ATOM      7  N   UNL     1      -3.881  -1.071   0.013  0.00  0.00    -0.191 NA
ATOM      8  C   UNL     1      -3.617  -2.385   0.004  0.00  0.00    +0.175 A 
ATOM      9  N   UNL     1      -2.324  -2.530  -0.004  0.00  0.00    -0.061 NA
ATOM     10  O   UNL     1      -1.773  -1.449  -0.006  0.00  0.00    -0.332 OA
BRANCH   8  11
ATOM     11  C   UNL     1      -4.636  -3.496   0.003  0.00  0.00    +0.060 C 
ATOM     12  C   UNL     1      -4.123  -4.925   0.194  0.00  0.00    +0.012 C 
ATOM     13  C   UNL     1      -4.619  -4.468  -1.179  0.00  0.00    +0.012 C 
ENDBRANCH   8  11
ENDBRANCH   4   6
BRANCH   5  14
ATOM     14  N   UNL     1      -0.011   0.966   0.007  0.00  0.00    -0.357 N 
ATOM     15  H   UNL     1       0.004  -0.134  -0.004  0.00  0.00    +0.142 HD
ATOM     16  H   UNL     1       0.934   1.529   0.011  0.00  0.00    +0.142 HD
ENDBRANCH   5  14
TORSDOF 3
