REMARK  Name = ZINC09100431
REMARK  5 active torsions:
REMARK  status: ('A' for Active; 'I' for Inactive)
REMARK    1  A    between atoms: C_3  and  N_8
REMARK    2  A    between atoms: C_10  and  C_15
REMARK    3  A    between atoms: C_15  and  N_16
REMARK    4  A    between atoms: C_17  and  C_19
REMARK    5  A    between atoms: C_20  and  C_21
REMARK                            x       y       z     vdW  Elec       q    Type
REMARK                         _______ _______ _______ _____ _____    ______ ____
ROOT
ATOM      1  N   UNL     1       5.931  -1.589   1.913  0.00  0.00    -0.308 N 
ATOM      2  C   UNL     1       7.018  -1.558   2.709  0.00  0.00    +0.237 C 
ATOM      3  O   UNL     1       6.932  -1.113   3.839  0.00  0.00    -0.271 OA
ATOM      4  H   UNL     1       5.999  -1.944   1.013  0.00  0.00    +0.149 HD
ENDROOT
BRANCH   2   5
ATOM      5  C   UNL     1       8.301  -2.058   2.216  0.00  0.00    +0.068 C 
ATOM      6  C   UNL     1       9.417  -1.902   2.958  0.00  0.00    +0.013 C 
BRANCH   6   7
ATOM      7  C   UNL     1       9.398  -1.027   4.139  0.00  0.00    -0.021 A 
ATOM      8  C   UNL     1       8.777   0.225   4.075  0.00  0.00    +0.012 A 
ATOM      9  C   UNL     1       8.755   1.040   5.185  0.00  0.00    +0.050 A 
ATOM     10  C   UNL     1       9.358   0.629   6.367  0.00  0.00    +0.166 A 
ATOM     11  C   UNL     1       9.984  -0.617   6.437  0.00  0.00    +0.167 A 
ATOM     12  C   UNL     1      10.005  -1.442   5.330  0.00  0.00    +0.057 A 
ATOM     13  O   UNL     1      10.492  -0.779   7.694  0.00  0.00    -0.453 OA
ATOM     14  C   UNL     1       9.817   0.198   8.509  0.00  0.00    +0.466 C 
ATOM     15  O   UNL     1       9.475   1.243   7.579  0.00  0.00    -0.453 OA
ENDBRANCH   6   7
ENDBRANCH   2   5
BRANCH   1  16
ATOM     16  C   UNL     1       4.646  -1.088   2.408  0.00  0.00    +0.150 C 
BRANCH  16  19
ATOM     17  N   UNL     1       1.312  -1.734   1.763  0.00  0.00    -0.234 N 
ATOM     18  C   UNL     1       2.255  -0.605   1.764  0.00  0.00    +0.163 C 
ATOM     19  C   UNL     1       3.586  -1.238   1.315  0.00  0.00    +0.213 C 
ATOM     20  O   UNL     1       3.257  -2.643   1.111  0.00  0.00    -0.444 OA
ATOM     21  C   UNL     1       1.964  -2.843   1.388  0.00  0.00    +0.408 C 
ATOM     22  O   UNL     1       1.428  -3.930   1.304  0.00  0.00    -0.226 OA
BRANCH  17  25
ATOM     23  C   UNL     1      -2.171  -2.731   2.397  0.00  0.00    +0.003 A 
ATOM     24  C   UNL     1      -0.832  -2.805   2.065  0.00  0.00    +0.024 A 
ATOM     25  C   UNL     1      -0.043  -1.662   2.105  0.00  0.00    +0.041 A 
ATOM     26  C   UNL     1      -0.602  -0.449   2.484  0.00  0.00    +0.043 A 
ATOM     27  C   UNL     1      -1.941  -0.382   2.821  0.00  0.00    +0.043 A 
ATOM     28  C   UNL     1      -2.724  -1.523   2.779  0.00  0.00    +0.020 A 
ATOM     29 CL   UNL     1      -2.642   1.134   3.295  0.00  0.00    -0.083 Cl
ENDBRANCH  17  25
ENDBRANCH  16  19
ENDBRANCH   1  16
TORSDOF 5
