REMARK  Name = ZINC64811616
REMARK  7 active torsions:
REMARK  status: ('A' for Active; 'I' for Inactive)
REMARK    1  A    between atoms: C_1  and  C_2
REMARK    2  A    between atoms: C_2  and  C_3
REMARK    3  A    between atoms: C_5  and  C_26
REMARK    4  A    between atoms: C_6  and  N_8
REMARK    5  A    between atoms: C_9  and  C_11
REMARK    6  A    between atoms: N_21  and  C_24
REMARK    7  A    between atoms: C_24  and  C_25
REMARK                            x       y       z     vdW  Elec       q    Type
REMARK                         _______ _______ _______ _____ _____    ______ ____
ROOT
ATOM      1  C   UNL     1      -6.405  -2.378   3.153  0.00  0.00    +0.039 A 
ATOM      2  C   UNL     1      -7.467  -2.772   2.333  0.00  0.00    +0.014 A 
ATOM      3  C   UNL     1      -8.641  -3.207   2.883  0.00  0.00    +0.016 A 
ATOM      4  C   UNL     1      -8.781  -3.257   4.268  0.00  0.00    +0.063 A 
ATOM      5  C   UNL     1      -7.721  -2.863   5.102  0.00  0.00    +0.056 A 
ATOM      6  C   UNL     1      -6.531  -2.429   4.540  0.00  0.00    +0.039 A 
ATOM      7  N   UNL     1      -7.893  -2.926   6.478  0.00  0.00    -0.307 N 
ATOM      8  H   UNL     1      -7.169  -2.657   7.065  0.00  0.00    +0.170 HD
ATOM      9  C   UNL     1      -9.053  -3.355   7.004  0.00  0.00    +0.330 A 
ATOM     10  O   UNL     1      -9.163  -3.394   8.214  0.00  0.00    -0.246 OA
ATOM     11  N   UNL     1     -10.094  -3.742   6.252  0.00  0.00    -0.261 N 
ATOM     12  C   UNL     1     -10.031  -3.720   4.903  0.00  0.00    +0.264 A 
ATOM     13  O   UNL     1     -10.979  -4.073   4.229  0.00  0.00    -0.267 OA
ENDROOT
BRANCH   1  15
ATOM     14  N   UNL     1      -5.016  -1.859   1.203  0.00  0.00    -0.275 N 
ATOM     15  C   UNL     1      -5.140  -1.909   2.545  0.00  0.00    +0.249 C 
ATOM     16  O   UNL     1      -4.214  -1.570   3.254  0.00  0.00    -0.270 OA
ATOM     17  H   UNL     1      -5.755  -2.129   0.637  0.00  0.00    +0.156 HD
BRANCH  14  21
ATOM     18  C   UNL     1      -1.412  -0.526   0.013  0.00  0.00    -0.007 A 
ATOM     19  C   UNL     1      -2.204  -0.814  -1.037  0.00  0.00    +0.032 A 
ATOM     20  C   UNL     1      -3.524  -1.303  -0.714  0.00  0.00    +0.080 A 
ATOM     21  C   UNL     1      -3.830  -1.420   0.633  0.00  0.00    +0.090 A 
ATOM     22  S   UNL     1      -2.434  -0.916   1.416  0.00  0.00    -0.077 S 
BRANCH  18  24
ATOM     23  C   UNL     1      -0.019   1.526   0.010  0.00  0.00    +0.009 C 
ATOM     24  C   UNL     1       0.002  -0.004   0.002  0.00  0.00    +0.039 C 
ENDBRANCH  18  24
BRANCH  20  25
ATOM     25  C   UNL     1      -4.470  -1.647  -1.733  0.00  0.00    +0.102 C 
ATOM     26  N   UNL     1      -5.219  -1.921  -2.541  0.00  0.00    -0.191 NA
ENDBRANCH  20  25
ENDBRANCH  14  21
ENDBRANCH   1  15
BRANCH  11  27
ATOM     27  C   UNL     1     -11.324  -4.197   6.906  0.00  0.00    +0.126 C 
ATOM     28  C   UNL     1     -12.253  -3.002   7.133  0.00  0.00    +0.027 C 
ENDBRANCH  11  27
TORSDOF 5
