REMARK  Name = ZINC59489575
REMARK  9 active torsions:
REMARK  status: ('A' for Active; 'I' for Inactive)
REMARK    1  A    between atoms: C_1  and  C_2
REMARK    2  A    between atoms: C_7  and  O_8
REMARK    3  A    between atoms: O_8  and  C_9
REMARK    4  A    between atoms: C_9  and  C_10
REMARK    5  A    between atoms: C_13  and  S_16
REMARK    6  A    between atoms: N_14  and  C_15
REMARK    7  A    between atoms: S_16  and  C_17
REMARK    8  A    between atoms: C_17  and  C_18
REMARK    9  A    between atoms: C_26  and  N_28
REMARK                            x       y       z     vdW  Elec       q    Type
REMARK                         _______ _______ _______ _____ _____    ______ ____
ROOT
ATOM      1  C   UNL     1       0.047   0.090   4.775  0.00  0.00    +0.172 A 
ATOM      2  N   UNL     1       1.096   0.575   5.377  0.00  0.00    -0.130 NA
ATOM      3  N   UNL     1       0.736   1.314   6.365  0.00  0.00    -0.122 NA
ATOM      4  C   UNL     1      -0.574   1.341   6.447  0.00  0.00    +0.192 A 
ATOM      5  N   UNL     1      -1.055   0.565   5.432  0.00  0.00    -0.306 N 
ATOM      6  C   UNL     1      -2.459   0.294   5.114  0.00  0.00    +0.153 C 
ENDROOT
BRANCH   1   7
ATOM      7  C   UNL     1       0.048  -0.820   3.574  0.00  0.00    +0.305 C 
BRANCH   7   8
ATOM      8  O   UNL     1       0.025  -0.033   2.381  0.00  0.00    -0.484 OA
BRANCH   8  15
ATOM      9  C   UNL     1      -0.018   1.503   0.010  0.00  0.00    +0.047 C 
ATOM     10  C   UNL     1       0.002  -0.004   0.002  0.00  0.00    -0.009 A 
ATOM     11  C   UNL     1       0.006  -0.689  -1.198  0.00  0.00    +0.007 A 
ATOM     12  C   UNL     1       0.024  -2.071  -1.206  0.00  0.00    +0.000 A 
ATOM     13  C   UNL     1       0.039  -2.772  -0.014  0.00  0.00    +0.004 A 
ATOM     14  C   UNL     1       0.036  -2.092   1.188  0.00  0.00    +0.046 A 
ATOM     15  C   UNL     1       0.023  -0.705   1.199  0.00  0.00    +0.124 A 
ENDBRANCH   8  15
ENDBRANCH   7   8
ENDBRANCH   1   7
BRANCH   4  16
ATOM     16  S   UNL     1      -1.531   2.218   7.638  0.00  0.00    -0.081 S 
BRANCH  16  17
ATOM     17  C   UNL     1      -0.292   3.040   8.678  0.00  0.00    +0.114 C 
BRANCH  17  18
ATOM     18  C   UNL     1      -0.986   3.836   9.752  0.00  0.00    -0.012 A 
ATOM     19  C   UNL     1      -1.383   5.116   9.668  0.00  0.00    +0.088 A 
ATOM     20  N   UNL     1      -1.976   5.499  10.840  0.00  0.00    -0.360 N 
ATOM     21  H   UNL     1      -2.343   6.379  11.017  0.00  0.00    +0.165 HD
ATOM     22  C   UNL     1      -1.976   4.448  11.730  0.00  0.00    +0.049 A 
ATOM     23  C   UNL     1      -1.362   3.359  11.085  0.00  0.00    +0.004 A 
ATOM     24  C   UNL     1      -1.226   2.141  11.754  0.00  0.00    +0.012 A 
ATOM     25  C   UNL     1      -1.694   2.012  13.031  0.00  0.00    +0.033 A 
ATOM     26  C   UNL     1      -2.304   3.082  13.670  0.00  0.00    +0.128 A 
ATOM     27  C   UNL     1      -2.442   4.295  13.031  0.00  0.00    +0.059 A 
BRANCH  26  28
ATOM     28  N   UNL     1      -2.804   2.921  15.053  0.00  0.00    +0.056 N 
ATOM     29  O   UNL     1      -2.681   1.861  15.621  0.00  0.00    -0.126 OA
ATOM     30  O   UNL     1      -3.337   3.849  15.615  0.00  0.00    -0.126 OA
ENDBRANCH  26  28
ENDBRANCH  17  18
ENDBRANCH  16  17
ENDBRANCH   4  16
TORSDOF 7
