REMARK  Name = ZINC20177921
REMARK  3 active torsions:
REMARK  status: ('A' for Active; 'I' for Inactive)
REMARK    1  A    between atoms: C_1  and  C_2
REMARK    2  A    between atoms: C_6  and  C_22
REMARK    3  A    between atoms: C_7  and  N_8
REMARK                            x       y       z     vdW  Elec       q    Type
REMARK                         _______ _______ _______ _____ _____    ______ ____
ROOT
ATOM      1  N   UNL     1      -0.198  -0.035   2.420  0.00  0.00    -0.284 N 
ATOM      2  C   UNL     1      -0.392  -0.738   3.587  0.00  0.00    +0.207 A 
ATOM      3  N   UNL     1      -0.565  -2.032   3.518  0.00  0.00    -0.215 NA
ATOM      4  C   UNL     1      -0.762  -2.794   4.622  0.00  0.00    +0.078 A 
ATOM      5  C   UNL     1      -0.943  -4.175   4.529  0.00  0.00    +0.028 A 
ATOM      6  C   UNL     1      -1.141  -4.918   5.672  0.00  0.00    +0.002 A 
ATOM      7  C   UNL     1      -1.161  -4.310   6.919  0.00  0.00    +0.001 A 
ATOM      8  C   UNL     1      -0.985  -2.948   7.037  0.00  0.00    +0.014 A 
ATOM      9  C   UNL     1      -0.783  -2.179   5.895  0.00  0.00    +0.045 A 
ATOM     10  C   UNL     1      -0.590  -0.725   5.958  0.00  0.00    +0.173 A 
ATOM     11  N   UNL     1      -0.392  -0.053   4.773  0.00  0.00    -0.253 N 
ATOM     12  C   UNL     1      -0.235   1.255   5.117  0.00  0.00    +0.232 A 
ATOM     13  N   UNL     1      -0.330   1.331   6.419  0.00  0.00    -0.137 NA
ATOM     14  N   UNL     1      -0.548   0.165   6.919  0.00  0.00    -0.129 NA
ATOM     15  H   UNL     1      -0.018   0.917   2.452  0.00  0.00    +0.155 HD
ENDROOT
BRANCH   1  22
ATOM     16  C   UNL     1       1.936  -1.786   1.727  0.00  0.00    +0.045 C 
ATOM     17  C   UNL     1       0.762  -1.558   0.810  0.00  0.00    -0.029 A 
ATOM     18  C   UNL     1       0.696  -2.212  -0.404  0.00  0.00    +0.005 A 
ATOM     19  C   UNL     1      -0.382  -2.004  -1.246  0.00  0.00    +0.001 A 
ATOM     20  C   UNL     1      -1.397  -1.141  -0.874  0.00  0.00    +0.005 A 
ATOM     21  C   UNL     1      -1.337  -0.484   0.339  0.00  0.00    -0.029 A 
ATOM     22  C   UNL     1      -0.259  -0.695   1.189  0.00  0.00    +0.039 A 
ATOM     23  C   UNL     1      -2.443   0.456   0.743  0.00  0.00    +0.045 C 
ENDBRANCH   1  22
TORSDOF 1
