REMARK  Name = ZINC65461026
REMARK  9 active torsions:
REMARK  status: ('A' for Active; 'I' for Inactive)
REMARK    1  A    between atoms: C_1  and  C_2
REMARK    2  A    between atoms: C_5  and  O_9
REMARK    3  A    between atoms: C_6  and  C_8
REMARK    4  A    between atoms: O_9  and  C_10
REMARK    5  A    between atoms: C_10  and  C_11
REMARK    6  A    between atoms: C_11  and  C_13
REMARK    7  A    between atoms: C_11  and  O_27
REMARK    8  A    between atoms: C_20  and  C_25
REMARK    9  A    between atoms: C_20  and  C_26
REMARK                            x       y       z     vdW  Elec       q    Type
REMARK                         _______ _______ _______ _____ _____    ______ ____
ROOT
ATOM      1  C   UNL     1      -0.043  -6.966  -2.446  0.00  0.00    +0.140 A 
ATOM      2  N   UNL     1      -0.988  -6.762  -3.311  0.00  0.00    -0.225 NA
ATOM      3  C   UNL     1      -0.772  -7.546  -4.410  0.00  0.00    +0.146 A 
ATOM      4  H   UNL     1       1.621  -8.215  -2.510  0.00  0.00    +0.167 HD
ATOM      5  C   UNL     1       0.358  -8.262  -4.173  0.00  0.00    +0.049 A 
ATOM      6  N   UNL     1       0.821  -7.884  -2.946  0.00  0.00    -0.343 N 
ATOM      7  C   UNL     1       1.005  -9.287  -5.050  0.00  0.00    +0.063 C 
ATOM      8  C   UNL     1       0.829  -9.002  -6.518  0.00  0.00    -0.014 C 
ATOM      9  C   UNL     1      -0.563  -9.267  -7.023  0.00  0.00    +0.111 C 
ATOM     10  N   UNL     1      -1.522  -8.246  -6.693  0.00  0.00    -0.310 N 
ATOM     11  C   UNL     1      -1.634  -7.544  -5.590  0.00  0.00    +0.264 C 
ATOM     12  O   UNL     1      -2.587  -6.789  -5.543  0.00  0.00    -0.268 OA
ATOM     13  C   UNL     1       1.809  -9.874  -7.306  0.00  0.00    +0.013 C 
ATOM     14  C   UNL     1       1.172  -7.533  -6.776  0.00  0.00    +0.013 C 
ATOM     15  H   UNL     1      -2.176  -8.050  -7.382  0.00  0.00    +0.149 HD
ENDROOT
BRANCH   1  16
ATOM     16  C   UNL     1       0.079  -6.289  -1.105  0.00  0.00    +0.217 C 
BRANCH  16  17
ATOM     17  O   UNL     1       1.308  -6.674  -0.487  0.00  0.00    -0.381 OA
ATOM     18  H   UNL     1       2.096  -6.440  -0.997  0.00  0.00    +0.211 HD
ENDBRANCH  16  17
BRANCH  16  19
ATOM     19  C   UNL     1       0.058  -4.771  -1.298  0.00  0.00    +0.268 C 
BRANCH  19  20
ATOM     20  O   UNL     1       0.057  -4.129  -0.021  0.00  0.00    -0.489 OA
BRANCH  20  25
ATOM     21  C   UNL     1      -0.018   1.503   0.010  0.00  0.00    +0.044 C 
ATOM     22  C   UNL     1       0.002  -0.004   0.002  0.00  0.00    -0.050 A 
ATOM     23  C   UNL     1       0.006  -0.688  -1.200  0.00  0.00    +0.007 A 
ATOM     24  C   UNL     1       0.024  -2.069  -1.210  0.00  0.00    +0.046 A 
ATOM     25  C   UNL     1       0.039  -2.770  -0.013  0.00  0.00    +0.124 A 
ATOM     26  C   UNL     1       0.036  -2.082   1.191  0.00  0.00    -0.009 A 
ATOM     27  C   UNL     1       0.023  -0.701   1.196  0.00  0.00    +0.010 A 
ATOM     28  C   UNL     1       0.052  -2.841   2.493  0.00  0.00    +0.047 C 
ENDBRANCH  20  25
ENDBRANCH  19  20
ENDBRANCH  16  19
ENDBRANCH   1  16
TORSDOF 5
