REMARK  Name = ZINC37542521
REMARK  4 active torsions:
REMARK  status: ('A' for Active; 'I' for Inactive)
REMARK    1  A    between atoms: C_5  and  C_6
REMARK    2  A    between atoms: N_8  and  C_9
REMARK    3  A    between atoms: N_8  and  C_13
REMARK    4  A    between atoms: C_9  and  C_10
REMARK                            x       y       z     vdW  Elec       q    Type
REMARK                         _______ _______ _______ _____ _____    ______ ____
ROOT
ATOM      1  C   UNL     1      -1.188  -0.924   0.244  0.00  0.00    +0.283 C 
ATOM      2  O   UNL     1      -2.309  -0.459   0.326  0.00  0.00    -0.267 OA
ATOM      3  N   UNL     1      -1.017  -2.215  -0.102  0.00  0.00    -0.283 N 
ENDROOT
BRANCH   3   4
ATOM      4  C   UNL     1      -2.176  -3.037  -0.461  0.00  0.00    +0.073 C 
ATOM      5  C   UNL     1      -2.890  -2.416  -1.665  0.00  0.00    +0.003 C 
ATOM      6  C   UNL     1      -4.143  -3.233  -1.985  0.00  0.00    -0.081 C 
ATOM      7  N   UNL     1      -5.043  -3.231  -0.825  0.00  0.00    +0.379 N 
ATOM      8  C   UNL     1      -4.391  -3.889   0.313  0.00  0.00    -0.081 C 
ATOM      9  C   UNL     1      -3.147  -3.097   0.721  0.00  0.00    +0.003 C 
ATOM     10  H   UNL     1      -5.268  -2.279  -0.578  0.00  0.00    -0.086 HD
ATOM     11  H   UNL     1      -5.891  -3.725  -1.058  0.00  0.00    -0.086 HD
ENDBRANCH   3   4
BRANCH   1  16
ATOM     12  C   UNL     1      -0.044   1.266   0.758  0.00  0.00    +0.056 A 
ATOM     13  C   UNL     1       1.285   1.659   0.974  0.00  0.00    +0.058 A 
ATOM     14  C   UNL     1       2.052   0.550   0.863  0.00  0.00    +0.171 A 
ATOM     15  O   UNL     1       1.260  -0.496   0.591  0.00  0.00    -0.444 OA
ATOM     16  C   UNL     1      -0.022  -0.080   0.522  0.00  0.00    +0.191 A 
ATOM     17 BR   UNL     1       3.932   0.486   1.060  0.00  0.00    -0.008 Br
ENDBRANCH   1  16
BRANCH   3  18
ATOM     18  C   UNL     1       0.327  -2.798  -0.118  0.00  0.00    +0.203 C 
BRANCH  18  19
ATOM     19  C   UNL     1       0.704  -3.232   1.275  0.00  0.00    +0.228 C 
ATOM     20  O   UNL     1      -0.074  -3.070   2.192  0.00  0.00    -0.274 OA
ATOM     21  N   UNL     1       1.905  -3.799   1.502  0.00  0.00    -0.328 N 
ATOM     22  H   UNL     1       2.527  -3.928   0.769  0.00  0.00    +0.145 HD
ATOM     23  H   UNL     1       2.148  -4.078   2.399  0.00  0.00    +0.145 HD
ENDBRANCH  18  19
ENDBRANCH   3  18
TORSDOF 4
