REMARK  Name = ZINC40881053
REMARK  4 active torsions:
REMARK  status: ('A' for Active; 'I' for Inactive)
REMARK    1  A    between atoms: C_7  and  C_19
REMARK    2  A    between atoms: C_9  and  O_11
REMARK    3  A    between atoms: O_11  and  C_12
REMARK    4  A    between atoms: C_19  and  O_20
REMARK                            x       y       z     vdW  Elec       q    Type
REMARK                         _______ _______ _______ _____ _____    ______ ____
ROOT
ATOM      1  C   UNL     1       0.018   1.370   0.434  0.00  0.00    +0.001 A 
ATOM      2  C   UNL     1       1.207   2.094   0.420  0.00  0.00    +0.002 A 
ATOM      3  C   UNL     1       2.410   1.466   0.319  0.00  0.00    +0.028 A 
ATOM      4  C   UNL     1       2.460   0.064   0.228  0.00  0.00    +0.075 A 
ATOM      5  C   UNL     1       1.249  -0.670   0.242  0.00  0.00    +0.006 A 
ATOM      6  C   UNL     1       0.026   0.011   0.347  0.00  0.00    +0.010 A 
ATOM      7  C   UNL     1       1.299  -2.075   0.150  0.00  0.00    -0.008 A 
ATOM      8  C   UNL     1       2.520  -2.673   0.050  0.00  0.00    +0.074 A 
ATOM      9  C   UNL     1       3.681  -1.891   0.042  0.00  0.00    +0.221 A 
ATOM     10  N   UNL     1       3.629  -0.579   0.128  0.00  0.00    -0.213 NA
ENDROOT
BRANCH   9  11
ATOM     11  O   UNL     1       4.888  -2.499  -0.058  0.00  0.00    -0.437 OA
BRANCH  11  12
ATOM     12  C   UNL     1       5.992  -1.714  -0.169  0.00  0.00    +0.149 A 
ATOM     13  C   UNL     1       6.498  -1.400  -1.421  0.00  0.00    +0.048 A 
ATOM     14  C   UNL     1       7.620  -0.601  -1.532  0.00  0.00    +0.004 A 
ATOM     15  C   UNL     1       8.239  -0.114  -0.395  0.00  0.00    +0.002 A 
ATOM     16  C   UNL     1       7.737  -0.425   0.856  0.00  0.00    +0.024 A 
ATOM     17  C   UNL     1       6.611  -1.219   0.972  0.00  0.00    +0.083 A 
ATOM     18 CL   UNL     1       5.977  -1.604   2.541  0.00  0.00    -0.080 Cl
ENDBRANCH  11  12
ENDBRANCH   9  11
BRANCH   7  19
ATOM     19  C   UNL     1       0.035  -2.896   0.162  0.00  0.00    +0.191 C 
BRANCH  19  20
ATOM     20  O   UNL     1       0.366  -4.282   0.057  0.00  0.00    -0.390 OA
ATOM     21  H   UNL     1      -0.401  -4.871   0.058  0.00  0.00    +0.210 HD
ENDBRANCH  19  20
ENDBRANCH   7  19
TORSDOF 4
