REMARK  Name = ZINC00850085
REMARK  6 active torsions:
REMARK  status: ('A' for Active; 'I' for Inactive)
REMARK    1  A    between atoms: C_1  and  N_2
REMARK    2  A    between atoms: N_11  and  C_23
REMARK    3  A    between atoms: C_12  and  S_14
REMARK    4  A    between atoms: S_14  and  C_15
REMARK    5  A    between atoms: C_15  and  C_16
REMARK    6  A    between atoms: C_23  and  C_24
REMARK                            x       y       z     vdW  Elec       q    Type
REMARK                         _______ _______ _______ _____ _____    ______ ____
ROOT
ATOM      1  C   UNL     1      -0.018   1.461   0.010  0.00  0.00    +0.155 C 
ATOM      2  N   UNL     1       0.002  -0.004   0.002  0.00  0.00    -0.280 N 
ATOM      3  C   UNL     1      -1.189  -0.713   0.004  0.00  0.00    +0.169 A 
ATOM      4  C   UNL     1      -1.141  -2.103  -0.004  0.00  0.00    +0.153 A 
ATOM      5  C   UNL     1       0.108  -2.747  -0.013  0.00  0.00    +0.280 A 
ATOM      6  O   UNL     1       0.174  -3.964  -0.021  0.00  0.00    -0.265 OA
ATOM      7  N   UNL     1       1.234  -2.004  -0.015  0.00  0.00    -0.273 N 
ATOM      8  H   UNL     1       2.098  -2.445  -0.022  0.00  0.00    +0.173 HD
ATOM      9  C   UNL     1       1.177  -0.661  -0.013  0.00  0.00    +0.331 A 
ATOM     10  O   UNL     1       2.213  -0.023  -0.020  0.00  0.00    -0.246 OA
ATOM     11  N   UNL     1      -2.460  -2.539   0.000  0.00  0.00    -0.304 N 
ATOM     12  C   UNL     1      -3.241  -1.426   0.010  0.00  0.00    +0.172 A 
ATOM     13  N   UNL     1      -2.473  -0.354   0.012  0.00  0.00    -0.204 NA
ENDROOT
BRANCH  12  14
ATOM     14  S   UNL     1      -5.003  -1.417   0.018  0.00  0.00    -0.083 S 
BRANCH  14  15
ATOM     15  C   UNL     1      -5.433   0.345   0.030  0.00  0.00    +0.114 C 
BRANCH  15  16
ATOM     16  C   UNL     1      -6.932   0.496   0.038  0.00  0.00    -0.019 A 
ATOM     17  C   UNL     1      -7.626   0.566  -1.155  0.00  0.00    +0.006 A 
ATOM     18  C   UNL     1      -9.002   0.705  -1.148  0.00  0.00    +0.000 A 
ATOM     19  C   UNL     1      -9.684   0.773   0.052  0.00  0.00    +0.001 A 
ATOM     20  C   UNL     1      -8.991   0.704   1.246  0.00  0.00    +0.020 A 
ATOM     21  C   UNL     1      -7.615   0.559   1.240  0.00  0.00    +0.045 A 
ATOM     22 CL   UNL     1      -6.744   0.465   2.739  0.00  0.00    -0.083 Cl
ENDBRANCH  15  16
ENDBRANCH  14  15
ENDBRANCH  12  14
BRANCH  11  23
ATOM     23  C   UNL     1      -2.920  -3.930  -0.005  0.00  0.00    +0.220 C 
BRANCH  23  24
ATOM     24  C   UNL     1      -3.071  -4.415   1.414  0.00  0.00    +0.230 C 
ATOM     25  O   UNL     1      -2.819  -3.672   2.338  0.00  0.00    -0.274 OA
ATOM     26  N   UNL     1      -3.487  -5.674   1.655  0.00  0.00    -0.328 N 
ATOM     27  H   UNL     1      -3.688  -6.268   0.915  0.00  0.00    +0.145 HD
ATOM     28  H   UNL     1      -3.584  -5.986   2.568  0.00  0.00    +0.145 HD
ENDBRANCH  23  24
ENDBRANCH  11  23
TORSDOF 5
