REMARK  Name = ZINC12499441
REMARK  9 active torsions:
REMARK  status: ('A' for Active; 'I' for Inactive)
REMARK    1  A    between atoms: C_1  and  C_2
REMARK    2  A    between atoms: C_3  and  C_28
REMARK    3  A    between atoms: C_5  and  N_10
REMARK    4  A    between atoms: C_6  and  C_7
REMARK    5  A    between atoms: N_10  and  C_11
REMARK    6  A    between atoms: C_11  and  N_13
REMARK    7  A    between atoms: C_14  and  C_16
REMARK    8  A    between atoms: C_16  and  O_17
REMARK    9  A    between atoms: O_17  and  C_18
REMARK                            x       y       z     vdW  Elec       q    Type
REMARK                         _______ _______ _______ _____ _____    ______ ____
ROOT
ATOM      1  C   UNL     1       1.141   2.071   0.002  0.00  0.00    +0.141 C 
ATOM      2  S   UNL     1       2.635   1.235  -0.017  0.00  0.00    -0.018 S 
ENDROOT
BRANCH   1   3
ATOM      3  N   UNL     1       1.123   3.419   0.010  0.00  0.00    -0.265 N 
ATOM      4  C   UNL     1       2.281   4.108   0.002  0.00  0.00    +0.256 C 
ATOM      5  O   UNL     1       3.339   3.517  -0.011  0.00  0.00    -0.272 OA
ATOM      6  H   UNL     1       0.276   3.892   0.020  0.00  0.00    +0.157 HD
BRANCH   4   7
ATOM      7  C   UNL     1       2.260   5.615   0.011  0.00  0.00    +0.325 C 
BRANCH   7   8
ATOM      8  O   UNL     1       3.601   6.110   0.001  0.00  0.00    -0.482 OA
BRANCH   8   9
ATOM      9  C   UNL     1       3.761   7.458   0.006  0.00  0.00    +0.129 A 
ATOM     10  C   UNL     1       2.669   8.280   0.021  0.00  0.00    +0.046 A 
ATOM     11  C   UNL     1       2.816   9.665   0.027  0.00  0.00    +0.004 A 
ATOM     12  C   UNL     1       4.050  10.240   0.018  0.00  0.00    +0.009 A 
ATOM     13  C   UNL     1       5.198   9.430   0.003  0.00  0.00    -0.014 A 
ATOM     14  C   UNL     1       5.054   8.020   0.003  0.00  0.00    +0.024 A 
ATOM     15  C   UNL     1       6.200   7.210  -0.017  0.00  0.00    +0.012 A 
ATOM     16  C   UNL     1       7.433   7.788  -0.027  0.00  0.00    +0.001 A 
ATOM     17  C   UNL     1       7.576   9.174  -0.021  0.00  0.00    +0.001 A 
ATOM     18  C   UNL     1       6.487   9.990  -0.006  0.00  0.00    +0.008 A 
ENDBRANCH   8   9
ENDBRANCH   7   8
ENDBRANCH   4   7
ENDBRANCH   1   3
BRANCH   1  19
ATOM     19  N   UNL     1      -0.017   1.381   0.010  0.00  0.00    -0.291 N 
ATOM     20  H   UNL     1      -0.863   1.855   0.016  0.00  0.00    +0.154 HD
BRANCH  19  25
ATOM     21  C   UNL     1      -1.850  -3.337   0.002  0.00  0.00    +0.045 C 
ATOM     22  C   UNL     1      -0.764  -2.292  -0.003  0.00  0.00    -0.027 A 
ATOM     23  C   UNL     1       0.537  -2.633  -0.017  0.00  0.00    -0.008 A 
ATOM     24  S   UNL     1       1.373  -1.061  -0.024  0.00  0.00    -0.078 S 
ATOM     25  C   UNL     1       0.002  -0.004   0.002  0.00  0.00    +0.084 A 
ATOM     26  C   UNL     1      -1.075  -0.882   0.008  0.00  0.00    +0.068 A 
ATOM     27  C   UNL     1       1.141  -4.014  -0.030  0.00  0.00    +0.052 C 
BRANCH  26  28
ATOM     28  C   UNL     1      -2.460  -0.401   0.024  0.00  0.00    +0.244 C 
ATOM     29  O   UNL     1      -3.045  -0.196  -1.023  0.00  0.00    -0.270 OA
ATOM     30  N   UNL     1      -3.085  -0.186   1.198  0.00  0.00    -0.325 N 
ATOM     31  H   UNL     1      -2.618  -0.350   2.033  0.00  0.00    +0.145 HD
ATOM     32  H   UNL     1      -4.001   0.133   1.209  0.00  0.00    +0.145 HD
ENDBRANCH  26  28
ENDBRANCH  19  25
ENDBRANCH   1  19
TORSDOF 7
