REMARK  Name = ZINC64208416
REMARK  4 active torsions:
REMARK  status: ('A' for Active; 'I' for Inactive)
REMARK    1  A    between atoms: C_1  and  N_2
REMARK    2  A    between atoms: C_5  and  S_9
REMARK    3  A    between atoms: S_9  and  C_10
REMARK    4  A    between atoms: C_13  and  C_16
REMARK                            x       y       z     vdW  Elec       q    Type
REMARK                         _______ _______ _______ _____ _____    ______ ____
ROOT
ATOM      1  S   UNL     1      -1.334  -4.817  -0.018  0.00  0.00    -0.032 S 
ENDROOT
BRANCH   1   6
ATOM      2  C   UNL     1      -0.018   1.461   0.010  0.00  0.00    +0.151 C 
ATOM      3  N   UNL     1       0.002  -0.004   0.002  0.00  0.00    -0.253 N 
ATOM      4  C   UNL     1      -1.131  -0.793   0.003  0.00  0.00    +0.143 A 
ATOM      5  C   UNL     1      -0.768  -2.136  -0.006  0.00  0.00    +0.041 A 
ATOM      6  C   UNL     1      -1.755  -3.106  -0.006  0.00  0.00    +0.114 A 
ATOM      7  N   UNL     1      -3.033  -2.719   0.002  0.00  0.00    -0.228 NA
ATOM      8  C   UNL     1      -3.345  -1.439   0.010  0.00  0.00    +0.224 A 
ATOM      9  N   UNL     1      -2.431  -0.490   0.011  0.00  0.00    -0.219 NA
ATOM     10  C   UNL     1       0.739  -2.172  -0.013  0.00  0.00    +0.143 C 
ATOM     11  N   UNL     1       1.141  -0.752  -0.013  0.00  0.00    -0.235 NA
ATOM     12  H   UNL     1       1.706  -0.534  -0.821  0.00  0.00    +0.145 HD
ENDBRANCH   1   6
BRANCH   1  13
ATOM     13  C   UNL     1      -2.893  -5.639  -0.015  0.00  0.00    +0.173 A 
ATOM     14  N   UNL     1      -3.078  -6.988  -0.016  0.00  0.00    -0.333 N 
ATOM     15  H   UNL     1      -2.385  -7.667  -0.019  0.00  0.00    +0.168 HD
ATOM     16  C   UNL     1      -4.444  -7.206  -0.013  0.00  0.00    +0.067 A 
ATOM     17  C   UNL     1      -5.033  -5.980  -0.010  0.00  0.00    +0.139 A 
ATOM     18  N   UNL     1      -4.068  -5.053  -0.005  0.00  0.00    -0.229 NA
BRANCH  16  19
ATOM     19  C   UNL     1      -5.130  -8.515  -0.013  0.00  0.00    -0.000 A 
ATOM     20  C   UNL     1      -4.386  -9.696  -0.012  0.00  0.00    +0.010 A 
ATOM     21  C   UNL     1      -5.033 -10.915  -0.012  0.00  0.00    +0.001 A 
ATOM     22  C   UNL     1      -6.415 -10.968  -0.014  0.00  0.00    +0.000 A 
ATOM     23  C   UNL     1      -7.159  -9.801  -0.017  0.00  0.00    +0.001 A 
ATOM     24  C   UNL     1      -6.525  -8.576  -0.009  0.00  0.00    +0.010 A 
ENDBRANCH  16  19
ENDBRANCH   1  13
TORSDOF 3
