REMARK  Name = ZINC07091888
REMARK  8 active torsions:
REMARK  status: ('A' for Active; 'I' for Inactive)
REMARK    1  A    between atoms: C_1  and  C_2
REMARK    2  A    between atoms: C_4  and  N_11
REMARK    3  A    between atoms: C_5  and  O_9
REMARK    4  A    between atoms: O_9  and  C_10
REMARK    5  A    between atoms: N_11  and  C_12
REMARK    6  A    between atoms: C_12  and  C_14
REMARK    7  A    between atoms: C_12  and  C_15
REMARK    8  A    between atoms: N_20  and  C_21
REMARK                            x       y       z     vdW  Elec       q    Type
REMARK                         _______ _______ _______ _____ _____    ______ ____
ROOT
ATOM      1  C   UNL     1       5.979   1.246   1.291  0.00  0.00    +0.154 C 
ATOM      2  C   UNL     1       6.011   2.646   1.908  0.00  0.00    +0.038 C 
ENDROOT
BRANCH   1   3
ATOM      3  C   UNL     1       4.565   0.725   1.301  0.00  0.00    +0.240 C 
ATOM      4  O   UNL     1       4.300  -0.295   1.901  0.00  0.00    -0.273 OA
ATOM      5  N   UNL     1       3.596   1.392   0.645  0.00  0.00    -0.239 N 
ATOM      6  C   UNL     1       2.331   0.926   0.654  0.00  0.00    +0.306 C 
ATOM      7  O   UNL     1       2.065  -0.097   1.255  0.00  0.00    -0.252 OA
ATOM      8  N   UNL     1       1.362   1.593  -0.002  0.00  0.00    -0.296 N 
ATOM      9  H   UNL     1       3.808   2.208   0.165  0.00  0.00    +0.159 HD
ATOM     10  H   UNL     1       1.574   2.409  -0.482  0.00  0.00    +0.151 HD
BRANCH   8  11
ATOM     11  C   UNL     1      -0.013   1.086   0.008  0.00  0.00    +0.074 C 
ATOM     12  C   UNL     1      -0.729   1.579   1.267  0.00  0.00    +0.022 C 
ATOM     13  C   UNL     1      -2.164   1.050   1.278  0.00  0.00    +0.002 C 
ATOM     14  C   UNL     1      -2.904   1.556   0.038  0.00  0.00    +0.000 C 
ATOM     15  C   UNL     1      -2.188   1.063  -1.221  0.00  0.00    +0.002 C 
ATOM     16  C   UNL     1      -0.753   1.593  -1.232  0.00  0.00    +0.022 C 
ENDBRANCH   8  11
ENDBRANCH   1   3
BRANCH   1  17
ATOM     17  N   UNL     1       6.836   0.350   2.070  0.00  0.00    -0.330 N 
ATOM     18  H   UNL     1       6.452  -0.202   2.769  0.00  0.00    +0.147 HD
BRANCH  17  22
ATOM     19  C   UNL     1      10.714   1.872  -0.541  0.00  0.00    +0.045 C 
ATOM     20  C   UNL     1      10.117   1.015   0.545  0.00  0.00    -0.030 A 
ATOM     21  C   UNL     1       8.759   1.073   0.802  0.00  0.00    +0.031 A 
ATOM     22  C   UNL     1       8.210   0.289   1.805  0.00  0.00    +0.070 A 
ATOM     23  C   UNL     1       9.027  -0.563   2.545  0.00  0.00    +0.142 A 
ATOM     24  C   UNL     1      10.384  -0.620   2.279  0.00  0.00    +0.067 A 
ATOM     25  C   UNL     1      10.928   0.169   1.280  0.00  0.00    +0.047 A 
ATOM     26 CL   UNL     1      12.630   0.097   0.949  0.00  0.00    -0.083 Cl
BRANCH  23  27
ATOM     27  O   UNL     1       8.492  -1.338   3.527  0.00  0.00    -0.493 OA
ATOM     28  C   UNL     1       9.389  -2.188   4.245  0.00  0.00    +0.277 C 
ENDBRANCH  23  27
ENDBRANCH  17  22
ENDBRANCH   1  17
TORSDOF 5
