REMARK  Name = ZINC67389573
REMARK  11 active torsions:
REMARK  status: ('A' for Active; 'I' for Inactive)
REMARK    1  A    between atoms: C_1  and  C_2
REMARK    2  A    between atoms: N_8  and  C_9
REMARK    3  A    between atoms: C_9  and  C_11
REMARK    4  A    between atoms: C_9  and  C_12
REMARK    5  A    between atoms: C_12  and  N_13
REMARK    6  A    between atoms: N_16  and  C_17
REMARK    7  A    between atoms: C_17  and  C_19
REMARK    8  A    between atoms: C_17  and  C_20
REMARK    9  A    between atoms: C_24  and  S_26
REMARK   10  A    between atoms: S_26  and  N_29
REMARK   11  A    between atoms: N_29  and  C_30
REMARK                            x       y       z     vdW  Elec       q    Type
REMARK                         _______ _______ _______ _____ _____    ______ ____
ROOT
ATOM      1  N   UNL     1      -0.781   1.937   0.764  0.00  0.00    -0.301 N 
ATOM      2  C   UNL     1      -1.054   3.210   0.417  0.00  0.00    +0.300 C 
ATOM      3  O   UNL     1      -0.599   4.129   1.071  0.00  0.00    -0.253 OA
ATOM      4  N   UNL     1      -1.831   3.465  -0.654  0.00  0.00    -0.293 N 
ATOM      5  H   UNL     1      -1.083   1.206   0.203  0.00  0.00    +0.150 HD
ATOM      6  H   UNL     1      -2.253   2.734  -1.132  0.00  0.00    +0.151 HD
ENDROOT
BRANCH   4   7
ATOM      7  C   UNL     1      -2.038   4.846  -1.096  0.00  0.00    +0.102 C 
ATOM      8  C   UNL     1      -0.889   5.266  -2.014  0.00  0.00    +0.033 C 
BRANCH   7   9
ATOM      9  C   UNL     1      -3.341   4.943  -1.847  0.00  0.00    -0.026 A 
ATOM     10  C   UNL     1      -3.717   3.933  -2.713  0.00  0.00    +0.005 A 
ATOM     11  C   UNL     1      -4.912   4.021  -3.401  0.00  0.00    +0.002 A 
ATOM     12  C   UNL     1      -5.732   5.120  -3.224  0.00  0.00    +0.028 A 
ATOM     13  C   UNL     1      -5.357   6.129  -2.357  0.00  0.00    +0.106 A 
ATOM     14  C   UNL     1      -4.164   6.039  -1.665  0.00  0.00    +0.034 A 
BRANCH  13  15
ATOM     15  S   UNL     1      -6.403   7.530  -2.131  0.00  0.00    +0.058 S 
ATOM     16  O   UNL     1      -5.570   8.590  -1.683  0.00  0.00    -0.153 OA
ATOM     17  O   UNL     1      -7.203   7.632  -3.301  0.00  0.00    -0.153 OA
BRANCH  15  18
ATOM     18  N   UNL     1      -7.432   7.176  -0.883  0.00  0.00    -0.193 NA
ATOM     19  C   UNL     1      -6.904   6.980   0.469  0.00  0.00    +0.127 C 
ATOM     20  H   UNL     1      -8.385   7.099  -1.048  0.00  0.00    +0.148 HD
ENDBRANCH  15  18
ENDBRANCH  13  15
ENDBRANCH   7   9
ENDBRANCH   4   7
BRANCH   1  21
ATOM     21  C   UNL     1      -0.028   1.656   1.990  0.00  0.00    +0.090 C 
BRANCH  21  22
ATOM     22  C   UNL     1       0.041   0.144   2.211  0.00  0.00    -0.054 C 
ATOM     23  C   UNL     1       0.906  -0.153   3.437  0.00  0.00    -0.012 C 
BRANCH  22  30
ATOM     24  C   UNL     1      -0.827  -2.416   1.452  0.00  0.00    -0.013 C 
ATOM     25  C   UNL     1       0.610  -1.955   1.201  0.00  0.00    -0.071 C 
ATOM     26  C   UNL     1       1.149  -2.630  -0.061  0.00  0.00    -0.016 C 
ATOM     27  C   UNL     1       2.588  -2.165  -0.307  0.00  0.00    -0.003 C 
ATOM     28  C   UNL     1       2.609  -0.637  -0.412  0.00  0.00    -0.019 C 
ATOM     29  C   UNL     1       2.016  -0.036   0.864  0.00  0.00    -0.078 C 
ATOM     30  N   UNL     1       0.632  -0.497   1.028  0.00  0.00    +0.384 N 
ATOM     31  H   UNL     1       0.096  -0.249   0.210  0.00  0.00    -0.081 HD
ENDBRANCH  22  30
ENDBRANCH  21  22
ENDBRANCH   1  21
TORSDOF 7
