REMARK  Name = ZINC04734142
REMARK  6 active torsions:
REMARK  status: ('A' for Active; 'I' for Inactive)
REMARK    1  A    between atoms: C_1  and  C_2
REMARK    2  A    between atoms: C_2  and  C_3
REMARK    3  A    between atoms: C_7  and  C_24
REMARK    4  A    between atoms: C_8  and  N_9
REMARK    5  A    between atoms: N_9  and  C_10
REMARK    6  A    between atoms: C_11  and  C_19
REMARK                            x       y       z     vdW  Elec       q    Type
REMARK                         _______ _______ _______ _____ _____    ______ ____
ROOT
ATOM      1  C   UNL     1      -1.944  -0.775  -3.575  0.00  0.00    +0.137 A 
ATOM      2  C   UNL     1      -1.439  -0.486  -4.827  0.00  0.00    +0.120 A 
ATOM      3  N   UNL     1      -2.307  -0.956  -5.744  0.00  0.00    -0.208 NA
ATOM      4  C   UNL     1      -3.330  -1.524  -5.128  0.00  0.00    +0.237 A 
ATOM      5  N   UNL     1      -3.127  -1.432  -3.770  0.00  0.00    -0.271 N 
ATOM      6  C   UNL     1      -4.048  -1.954  -2.903  0.00  0.00    +0.097 A 
ATOM      7  C   UNL     1      -5.151  -2.562  -3.402  0.00  0.00    +0.038 A 
ATOM      8  C   UNL     1      -5.324  -2.642  -4.792  0.00  0.00    +0.116 A 
ATOM      9  N   UNL     1      -4.432  -2.126  -5.604  0.00  0.00    -0.220 NA
ENDROOT
BRANCH   2  10
ATOM     10  C   UNL     1      -0.171   0.215  -5.111  0.00  0.00    +0.041 A 
ATOM     11  C   UNL     1       0.713   0.019  -6.140  0.00  0.00    +0.018 A 
ATOM     12  C   UNL     1       1.844   0.805  -6.199  0.00  0.00    +0.008 A 
ATOM     13  C   UNL     1       2.049   1.744  -5.242  0.00  0.00    +0.046 A 
ATOM     14  S   UNL     1       0.607   1.544  -4.207  0.00  0.00    -0.095 S 
ENDBRANCH   2  10
BRANCH   1  15
ATOM     15  N   UNL     1      -1.357  -0.463  -2.348  0.00  0.00    -0.298 N 
ATOM     16  H   UNL     1      -0.474  -0.061  -2.320  0.00  0.00    +0.154 HD
BRANCH  15  22
ATOM     17  C   UNL     1      -2.026  -2.010  -0.621  0.00  0.00    -0.026 A 
ATOM     18  C   UNL     1      -2.698  -2.268   0.558  0.00  0.00    +0.005 A 
ATOM     19  C   UNL     1      -3.388  -1.256   1.199  0.00  0.00    +0.001 A 
ATOM     20  C   UNL     1      -3.408   0.019   0.663  0.00  0.00    +0.005 A 
ATOM     21  C   UNL     1      -2.739   0.285  -0.515  0.00  0.00    -0.029 A 
ATOM     22  C   UNL     1      -2.039  -0.729  -1.159  0.00  0.00    +0.039 A 
ATOM     23  C   UNL     1      -2.761   1.674  -1.099  0.00  0.00    +0.045 C 
BRANCH  17  25
ATOM     24  C   UNL     1       0.191  -3.090  -0.879  0.00  0.00    +0.009 C 
ATOM     25  C   UNL     1      -1.275  -3.114  -1.318  0.00  0.00    +0.033 C 
ENDBRANCH  17  25
ENDBRANCH  15  22
ENDBRANCH   1  15
TORSDOF 4
