REMARK  Name = ZINC62496602
REMARK  6 active torsions:
REMARK  status: ('A' for Active; 'I' for Inactive)
REMARK    1  A    between atoms: C_1  and  C_2
REMARK    2  A    between atoms: C_2  and  C_3
REMARK    3  A    between atoms: C_2  and  N_4
REMARK    4  A    between atoms: C_8  and  N_24
REMARK    5  A    between atoms: C_12  and  C_16
REMARK    6  A    between atoms: C_16  and  C_17
REMARK                            x       y       z     vdW  Elec       q    Type
REMARK                         _______ _______ _______ _____ _____    ______ ____
ROOT
ATOM      1  N   UNL     1      -1.372  -0.511   0.012  0.00  0.00    -0.263 N 
ATOM      2  C   UNL     1      -1.871  -1.236  -1.082  0.00  0.00    +0.079 A 
ATOM      3  C   UNL     1      -1.162  -1.290  -2.271  0.00  0.00    +0.029 A 
ATOM      4  C   UNL     1      -1.669  -1.996  -3.346  0.00  0.00    +0.025 A 
ATOM      5  C   UNL     1      -2.889  -2.651  -3.236  0.00  0.00    +0.028 A 
ATOM      6  C   UNL     1      -3.599  -2.603  -2.043  0.00  0.00    +0.070 A 
ATOM      7  C   UNL     1      -3.089  -1.902  -0.965  0.00  0.00    +0.145 A 
ATOM      8  O   UNL     1      -3.760  -1.875   0.218  0.00  0.00    -0.477 OA
ATOM      9  C   UNL     1      -3.625  -0.696   1.014  0.00  0.00    +0.264 C 
ATOM     10  C   UNL     1      -2.173  -0.292   1.076  0.00  0.00    +0.261 C 
ATOM     11  O   UNL     1      -1.728   0.232   2.076  0.00  0.00    -0.271 OA
ENDROOT
BRANCH   1  13
ATOM     12  C   UNL     1      -0.014   1.516   0.173  0.00  0.00    +0.028 C 
ATOM     13  C   UNL     1       0.002  -0.004   0.002  0.00  0.00    +0.076 C 
ATOM     14  C   UNL     1       0.788  -0.638   1.151  0.00  0.00    +0.028 C 
ENDBRANCH   1  13
BRANCH   5  15
ATOM     15  N   UNL     1      -3.402  -3.359  -4.327  0.00  0.00    -0.358 N 
ATOM     16  H   UNL     1      -2.907  -3.392  -5.160  0.00  0.00    +0.142 HD
ATOM     17  H   UNL     1      -4.254  -3.817  -4.251  0.00  0.00    +0.142 HD
ENDBRANCH   5  15
BRANCH   9  18
ATOM     18  C   UNL     1      -4.447   0.435   0.393  0.00  0.00    +0.092 C 
BRANCH  18  19
ATOM     19  C   UNL     1      -5.911   0.081   0.448  0.00  0.00    -0.008 A 
ATOM     20  C   UNL     1      -6.519  -0.520  -0.638  0.00  0.00    +0.006 A 
ATOM     21  C   UNL     1      -7.861  -0.844  -0.587  0.00  0.00    +0.000 A 
ATOM     22  C   UNL     1      -8.598  -0.568   0.550  0.00  0.00    +0.003 A 
ATOM     23  C   UNL     1      -7.992   0.033   1.637  0.00  0.00    +0.038 A 
ATOM     24  C   UNL     1      -6.646   0.353   1.589  0.00  0.00    +0.127 A 
ATOM     25  F   UNL     1      -6.052   0.936   2.653  0.00  0.00    -0.205 F 
ENDBRANCH  18  19
ENDBRANCH   9  18
TORSDOF 4
