REMARK  Name = ZINC09193040
REMARK  8 active torsions:
REMARK  status: ('A' for Active; 'I' for Inactive)
REMARK    1  A    between atoms: C_1  and  C_2
REMARK    2  A    between atoms: C_6  and  N_8
REMARK    3  A    between atoms: C_9  and  C_26
REMARK    4  A    between atoms: C_16  and  C_25
REMARK    5  A    between atoms: C_17  and  C_24
REMARK    6  A    between atoms: C_29  and  O_32
REMARK    7  A    between atoms: O_32  and  C_33
REMARK    8  A    between atoms: C_33  and  C_34
REMARK                            x       y       z     vdW  Elec       q    Type
REMARK                         _______ _______ _______ _____ _____    ______ ____
ROOT
ATOM      1  N   UNL     1       2.239   4.111   0.844  0.00  0.00    -0.238 N 
ATOM      2  C   UNL     1       1.147   3.593   0.011  0.00  0.00    +0.151 C 
ATOM      3  C   UNL     1       1.395   4.123  -1.377  0.00  0.00    +0.072 A 
ATOM      4  C   UNL     1       0.673   3.969  -2.644  0.00  0.00    +0.199 A 
ATOM      5  O   UNL     1      -0.345   3.304  -2.722  0.00  0.00    -0.287 OA
ATOM      6  C   UNL     1       1.241   4.659  -3.818  0.00  0.00    +0.065 A 
ATOM      7  C   UNL     1       0.637   4.579  -5.072  0.00  0.00    +0.019 A 
ATOM      8  C   UNL     1       1.196   5.234  -6.135  0.00  0.00    -0.047 A 
ATOM      9  C   UNL     1       2.358   5.974  -5.971  0.00  0.00    -0.044 A 
ATOM     10  C   UNL     1       2.969   6.064  -4.739  0.00  0.00    +0.050 A 
ATOM     11  C   UNL     1       2.419   5.406  -3.642  0.00  0.00    +0.140 A 
ATOM     12  O   UNL     1       3.003   5.483  -2.433  0.00  0.00    -0.450 OA
ATOM     13  C   UNL     1       2.525   4.872  -1.332  0.00  0.00    +0.199 A 
ATOM     14  C   UNL     1       3.040   4.855   0.060  0.00  0.00    +0.288 C 
ATOM     15  O   UNL     1       4.041   5.431   0.437  0.00  0.00    -0.266 OA
ATOM     16  C   UNL     1       2.959   6.688  -7.154  0.00  0.00    +0.044 C 
ATOM     17  C   UNL     1       0.545   5.150  -7.492  0.00  0.00    +0.044 C 
ENDROOT
BRANCH   1  23
ATOM     18  C   UNL     1       4.716   5.008   4.843  0.00  0.00    +0.065 C 
ATOM     19  C   UNL     1       3.590   4.288   4.146  0.00  0.00    +0.040 A 
ATOM     20  C   UNL     1       2.781   3.431   4.866  0.00  0.00    +0.023 A 
ATOM     21  C   UNL     1       1.746   2.770   4.219  0.00  0.00    +0.005 A 
ATOM     22  C   UNL     1       1.558   3.001   2.868  0.00  0.00    +0.044 A 
ATOM     23  C   UNL     1       2.414   3.873   2.205  0.00  0.00    +0.129 A 
ATOM     24  N   UNL     1       3.390   4.485   2.858  0.00  0.00    -0.237 NA
ENDBRANCH   1  23
BRANCH   2  25
ATOM     25  C   UNL     1       1.171   2.086   0.002  0.00  0.00    -0.022 A 
ATOM     26  C   UNL     1      -0.017   1.377   0.010  0.00  0.00    +0.009 A 
ATOM     27  C   UNL     1       0.002  -0.004   0.002  0.00  0.00    +0.046 A 
ATOM     28  C   UNL     1       1.213  -0.680  -0.013  0.00  0.00    +0.121 A 
ATOM     29  C   UNL     1       2.403   0.033  -0.021  0.00  0.00    +0.046 A 
ATOM     30  C   UNL     1       2.379   1.415  -0.013  0.00  0.00    +0.009 A 
BRANCH  28  31
ATOM     31  O   UNL     1       1.234  -2.039  -0.020  0.00  0.00    -0.483 OA
BRANCH  31  32
ATOM     32  C   UNL     1       2.518  -2.668  -0.036  0.00  0.00    +0.324 C 
BRANCH  32  33
ATOM     33  C   UNL     1       2.343  -4.165  -0.042  0.00  0.00    +0.248 C 
ATOM     34  O   UNL     1       1.230  -4.646  -0.033  0.00  0.00    -0.272 OA
ATOM     35  N   UNL     1       3.425  -4.969  -0.056  0.00  0.00    -0.327 N 
ATOM     36  H   UNL     1       4.315  -4.584  -0.063  0.00  0.00    +0.145 HD
ATOM     37  H   UNL     1       3.313  -5.932  -0.060  0.00  0.00    +0.145 HD
ENDBRANCH  32  33
ENDBRANCH  31  32
ENDBRANCH  28  31
ENDBRANCH   2  25
TORSDOF 5
