REMARK  Name = ZINC47354583
REMARK  7 active torsions:
REMARK  status: ('A' for Active; 'I' for Inactive)
REMARK    1  A    between atoms: C_1  and  C_2
REMARK    2  A    between atoms: C_2  and  C_20
REMARK    3  A    between atoms: N_5  and  C_9
REMARK    4  A    between atoms: C_9  and  C_10
REMARK    5  A    between atoms: C_10  and  O_11
REMARK    6  A    between atoms: O_11  and  C_12
REMARK    7  A    between atoms: C_17  and  C_18
REMARK                            x       y       z     vdW  Elec       q    Type
REMARK                         _______ _______ _______ _____ _____    ______ ____
ROOT
ATOM      1  C   UNL     1      -0.019   1.526   0.010  0.00  0.00    +0.047 C 
ATOM      2  C   UNL     1       0.002  -0.004   0.002  0.00  0.00    +0.141 C 
ATOM      3  C   UNL     1       0.799  -0.520  -1.180  0.00  0.00    +0.251 C 
ATOM      4  O   UNL     1       0.564  -0.342  -2.356  0.00  0.00    -0.272 OA
ATOM      5  N   UNL     1       1.824  -1.217  -0.651  0.00  0.00    -0.221 N 
ATOM      6  C   UNL     1       1.786  -1.214   0.686  0.00  0.00    +0.310 C 
ATOM      7  O   UNL     1       2.604  -1.776   1.387  0.00  0.00    -0.252 OA
ATOM      8  N   UNL     1       0.740  -0.519   1.169  0.00  0.00    -0.281 N 
ATOM      9  H   UNL     1       0.515  -0.383   2.102  0.00  0.00    +0.152 HD
ENDROOT
BRANCH   2  10
ATOM     10  C   UNL     1      -1.402  -0.552  -0.021  0.00  0.00    +0.022 A 
ATOM     11  C   UNL     1      -2.219  -0.851   1.018  0.00  0.00    +0.014 A 
ATOM     12  C   UNL     1      -3.482  -1.347   0.756  0.00  0.00    +0.008 A 
ATOM     13  C   UNL     1      -3.866  -1.520  -0.532  0.00  0.00    +0.045 A 
ATOM     14  S   UNL     1      -2.423  -0.968  -1.425  0.00  0.00    -0.099 S 
ENDBRANCH   2  10
BRANCH   5  15
ATOM     15  C   UNL     1       2.853  -1.896  -1.443  0.00  0.00    +0.159 C 
BRANCH  15  16
ATOM     16  C   UNL     1       4.015  -0.936  -1.700  0.00  0.00    +0.248 C 
BRANCH  16  17
ATOM     17  O   UNL     1       4.647  -0.610  -0.460  0.00  0.00    -0.489 OA
BRANCH  17  18
ATOM     18  C   UNL     1       5.705   0.239  -0.512  0.00  0.00    +0.138 A 
ATOM     19  C   UNL     1       6.126   0.753  -1.728  0.00  0.00    +0.047 A 
ATOM     20  C   UNL     1       7.202   1.617  -1.780  0.00  0.00    +0.004 A 
ATOM     21  C   UNL     1       7.869   1.975  -0.620  0.00  0.00    +0.001 A 
ATOM     22  C   UNL     1       7.464   1.473   0.598  0.00  0.00    +0.022 A 
ATOM     23  C   UNL     1       6.373   0.603   0.665  0.00  0.00    +0.093 A 
BRANCH  23  24
ATOM     24  C   UNL     1       5.944   0.082   1.928  0.00  0.00    +0.103 C 
ATOM     25  N   UNL     1       5.603  -0.331   2.930  0.00  0.00    -0.191 NA
ENDBRANCH  23  24
ENDBRANCH  17  18
ENDBRANCH  16  17
ENDBRANCH  15  16
ENDBRANCH   5  15
TORSDOF 6
