REMARK  Name = ZINC45402852
REMARK  7 active torsions:
REMARK  status: ('A' for Active; 'I' for Inactive)
REMARK    1  A    between atoms: C_1  and  C_2
REMARK    2  A    between atoms: C_4  and  C_20
REMARK    3  A    between atoms: C_5  and  C_9
REMARK    4  A    between atoms: C_6  and  C_8
REMARK    5  A    between atoms: C_9  and  N_10
REMARK    6  A    between atoms: C_11  and  C_13
REMARK    7  A    between atoms: C_13  and  C_18
REMARK                            x       y       z     vdW  Elec       q    Type
REMARK                         _______ _______ _______ _____ _____    ______ ____
ROOT
ATOM      1  N   UNL     1       1.447  -4.746  -0.032  0.00  0.00    -0.310 N 
ATOM      2  C   UNL     1       1.710  -6.067  -0.040  0.00  0.00    +0.233 C 
ATOM      3  O   UNL     1       0.799  -6.867  -0.040  0.00  0.00    -0.274 OA
ATOM      4  H   UNL     1       2.176  -4.106  -0.032  0.00  0.00    +0.149 HD
ENDROOT
BRANCH   2   5
ATOM      5  C   UNL     1       3.137  -6.551  -0.051  0.00  0.00    +0.133 C 
ATOM      6  C   UNL     1       3.843  -6.087  -1.342  0.00  0.00    +0.031 C 
ATOM      7  C   UNL     1       4.763  -7.275  -1.720  0.00  0.00    +0.002 C 
ATOM      8  C   UNL     1       3.898  -8.507  -1.355  0.00  0.00    +0.002 C 
ATOM      9  C   UNL     1       3.172  -8.090  -0.059  0.00  0.00    +0.031 C 
BRANCH   5  10
ATOM     10  C   UNL     1       3.852  -6.037   1.129  0.00  0.00    +0.079 C 
ATOM     11  N   UNL     1       4.404  -5.641   2.039  0.00  0.00    -0.195 NA
ENDBRANCH   5  10
ENDBRANCH   2   5
BRANCH   1  12
ATOM     12  C   UNL     1       0.059  -4.275  -0.021  0.00  0.00    +0.140 C 
BRANCH  12  17
ATOM     13  C   UNL     1      -0.018   1.503   0.010  0.00  0.00    +0.044 C 
ATOM     14  C   UNL     1       0.002  -0.004   0.002  0.00  0.00    -0.050 A 
ATOM     15  C   UNL     1       0.006  -0.689  -1.199  0.00  0.00    +0.007 A 
ATOM     16  C   UNL     1       0.025  -2.071  -1.206  0.00  0.00    -0.045 A 
ATOM     17  C   UNL     1       0.040  -2.768  -0.013  0.00  0.00    -0.024 A 
ATOM     18  C   UNL     1       0.037  -2.084   1.188  0.00  0.00    -0.045 A 
ATOM     19  C   UNL     1       0.023  -0.702   1.195  0.00  0.00    +0.007 A 
ATOM     20  C   UNL     1       0.054  -2.844   2.489  0.00  0.00    +0.044 C 
ATOM     21  C   UNL     1       0.027  -2.817  -2.516  0.00  0.00    +0.044 C 
ENDBRANCH  12  17
ENDBRANCH   1  12
TORSDOF 4
