REMARK  Name = ZINC55647567
REMARK  7 active torsions:
REMARK  status: ('A' for Active; 'I' for Inactive)
REMARK    1  A    between atoms: C_1  and  C_2
REMARK    2  A    between atoms: C_5  and  C_9
REMARK    3  A    between atoms: C_6  and  O_8
REMARK    4  A    between atoms: N_11  and  N_12
REMARK    5  A    between atoms: N_12  and  S_13
REMARK    6  A    between atoms: S_13  and  C_16
REMARK    7  A    between atoms: N_25  and  C_26
REMARK                            x       y       z     vdW  Elec       q    Type
REMARK                         _______ _______ _______ _____ _____    ______ ____
ROOT
ATOM      1  N   UNL     1       0.081  -6.316  -1.222  0.00  0.00    -0.108 NA
ATOM      2  H   UNL     1       0.778  -6.797  -0.748  0.00  0.00    +0.172 HD
ENDROOT
BRANCH   1   5
ATOM      3  C   UNL     1       0.059  -4.252  -0.036  0.00  0.00    +0.262 C 
ATOM      4  O   UNL     1       0.072  -4.870   1.011  0.00  0.00    -0.269 OA
ATOM      5  N   UNL     1       0.062  -4.915  -1.209  0.00  0.00    -0.228 N 
ATOM      6  H   UNL     1       0.051  -4.423  -2.045  0.00  0.00    +0.171 HD
BRANCH   3  11
ATOM      7  C   UNL     1      -0.018   1.503   0.010  0.00  0.00    +0.044 C 
ATOM      8  C   UNL     1       0.002  -0.004   0.002  0.00  0.00    -0.047 A 
ATOM      9  C   UNL     1       0.006  -0.686  -1.204  0.00  0.00    +0.004 A 
ATOM     10  C   UNL     1       0.024  -2.064  -1.224  0.00  0.00    +0.017 A 
ATOM     11  C   UNL     1       0.040  -2.777  -0.022  0.00  0.00    +0.079 A 
ATOM     12  C   UNL     1       0.036  -2.084   1.195  0.00  0.00    +0.129 A 
ATOM     13  C   UNL     1       0.023  -0.697   1.196  0.00  0.00    +0.049 A 
BRANCH  12  14
ATOM     14  O   UNL     1       0.050  -2.766   2.368  0.00  0.00    -0.506 OA
ATOM     15  H   UNL     1       0.938  -2.952   2.704  0.00  0.00    +0.292 HD
ENDBRANCH  12  14
ENDBRANCH   3  11
ENDBRANCH   1   5
BRANCH   1  16
ATOM     16  S   UNL     1      -1.087  -7.152  -2.047  0.00  0.00    +0.074 S 
ATOM     17  O   UNL     1      -0.719  -8.524  -1.994  0.00  0.00    -0.152 OA
ATOM     18  O   UNL     1      -2.339  -6.681  -1.567  0.00  0.00    -0.152 OA
BRANCH  16  19
ATOM     19  C   UNL     1      -0.980  -6.667  -3.737  0.00  0.00    +0.110 A 
ATOM     20  C   UNL     1      -1.715  -5.585  -4.191  0.00  0.00    +0.031 A 
ATOM     21  C   UNL     1      -1.636  -5.199  -5.515  0.00  0.00    +0.031 A 
ATOM     22  C   UNL     1      -0.818  -5.897  -6.389  0.00  0.00    +0.090 A 
ATOM     23  C   UNL     1      -0.077  -6.986  -5.933  0.00  0.00    +0.159 A 
ATOM     24  C   UNL     1      -0.159  -7.364  -4.602  0.00  0.00    +0.077 A 
ATOM     25  O   UNL     1       0.621  -7.470  -6.990  0.00  0.00    -0.407 OA
ATOM     26  C   UNL     1       0.346  -6.730  -8.075  0.00  0.00    +0.421 A 
ATOM     27  O   UNL     1       0.813  -6.908  -9.184  0.00  0.00    -0.223 OA
ATOM     28  N   UNL     1      -0.530  -5.759  -7.747  0.00  0.00    -0.277 N 
ATOM     29  C   UNL     1      -1.079  -4.745  -8.651  0.00  0.00    +0.156 C 
ENDBRANCH  16  19
ENDBRANCH   1  16
TORSDOF 5
