REMARK  Name = ZINC10572814
REMARK  8 active torsions:
REMARK  status: ('A' for Active; 'I' for Inactive)
REMARK    1  A    between atoms: C_4  and  C_7
REMARK    2  A    between atoms: C_7  and  C_9
REMARK    3  A    between atoms: C_7  and  N_26
REMARK    4  A    between atoms: C_9  and  C_10
REMARK    5  A    between atoms: N_12  and  C_13
REMARK    6  A    between atoms: C_13  and  C_14
REMARK    7  A    between atoms: C_19  and  C_20
REMARK    8  A    between atoms: C_20  and  N_21
REMARK                            x       y       z     vdW  Elec       q    Type
REMARK                         _______ _______ _______ _____ _____    ______ ____
ROOT
ATOM      1  C   UNL     1      -2.663   3.498  -2.349  0.00  0.00    +0.215 C 
ATOM      2  O   UNL     1      -1.738   4.282  -2.328  0.00  0.00    -0.276 OA
ATOM      3  N   UNL     1      -3.162   3.075  -3.527  0.00  0.00    -0.311 N 
ATOM      4  H   UNL     1      -3.901   2.448  -3.544  0.00  0.00    +0.149 HD
ENDROOT
BRANCH   1   5
ATOM      5  C   UNL     1      -3.255   2.997  -1.057  0.00  0.00    +0.123 C 
BRANCH   5   6
ATOM      6  C   UNL     1      -2.512   3.627   0.123  0.00  0.00    +0.113 C 
BRANCH   6   7
ATOM      7  N   UNL     1      -1.122   3.164   0.128  0.00  0.00    -0.292 N 
ATOM      8  C   UNL     1      -0.168   3.905   0.726  0.00  0.00    +0.298 C 
ATOM      9  O   UNL     1      -0.443   4.997   1.183  0.00  0.00    -0.253 OA
ATOM     10  N   UNL     1       1.092   3.434   0.817  0.00  0.00    -0.313 N 
ATOM     11  H   UNL     1      -0.888   2.325  -0.299  0.00  0.00    +0.151 HD
ATOM     12  H   UNL     1       1.779   3.967   1.247  0.00  0.00    +0.146 HD
ATOM     13  H   UNL     1       1.311   2.561   0.456  0.00  0.00    +0.146 HD
ENDBRANCH   6   7
BRANCH   6  17
ATOM     14  C   UNL     1      -4.408   2.481   3.775  0.00  0.00    +0.000 A 
ATOM     15  C   UNL     1      -4.582   3.758   3.277  0.00  0.00    +0.000 A 
ATOM     16  C   UNL     1      -3.969   4.129   2.095  0.00  0.00    +0.005 A 
ATOM     17  C   UNL     1      -3.181   3.223   1.411  0.00  0.00    -0.027 A 
ATOM     18  C   UNL     1      -3.010   1.944   1.907  0.00  0.00    +0.005 A 
ATOM     19  C   UNL     1      -3.620   1.574   3.091  0.00  0.00    +0.000 A 
ENDBRANCH   6  17
ENDBRANCH   5   6
ENDBRANCH   1   5
BRANCH   3  20
ATOM     20  C   UNL     1      -2.587   3.562  -4.784  0.00  0.00    +0.139 C 
BRANCH  20  21
ATOM     21  C   UNL     1      -3.318   2.942  -5.945  0.00  0.00    -0.025 A 
ATOM     22  C   UNL     1      -2.767   1.865  -6.614  0.00  0.00    +0.005 A 
ATOM     23  C   UNL     1      -3.440   1.292  -7.677  0.00  0.00    +0.000 A 
ATOM     24  C   UNL     1      -4.661   1.803  -8.077  0.00  0.00    +0.000 A 
ATOM     25  C   UNL     1      -5.210   2.883  -7.412  0.00  0.00    +0.006 A 
ATOM     26  C   UNL     1      -4.539   3.452  -6.346  0.00  0.00    -0.021 A 
BRANCH  26  27
ATOM     27  C   UNL     1      -5.137   4.630  -5.621  0.00  0.00    +0.178 C 
BRANCH  27  28
ATOM     28  N   UNL     1      -4.594   5.872  -6.175  0.00  0.00    -0.267 N 
ATOM     29  C   UNL     1      -5.312   6.901  -6.672  0.00  0.00    +0.108 A 
ATOM     30  C   UNL     1      -4.441   7.854  -7.078  0.00  0.00    +0.041 A 
ATOM     31  C   UNL     1      -3.146   7.388  -6.830  0.00  0.00    +0.134 A 
ATOM     32  N   UNL     1      -3.236   6.200  -6.289  0.00  0.00    -0.179 NA
ENDBRANCH  27  28
ENDBRANCH  26  27
ENDBRANCH  20  21
ENDBRANCH   3  20
TORSDOF 8
