REMARK  Name = ZINC64030157
REMARK  7 active torsions:
REMARK  status: ('A' for Active; 'I' for Inactive)
REMARK    1  A    between atoms: C_1  and  C_2
REMARK    2  A    between atoms: C_6  and  O_8
REMARK    3  A    between atoms: O_8  and  C_9
REMARK    4  A    between atoms: C_9  and  C_10
REMARK    5  A    between atoms: C_10  and  C_11
REMARK    6  A    between atoms: C_10  and  N_12
REMARK    7  A    between atoms: C_17  and  C_21
REMARK                            x       y       z     vdW  Elec       q    Type
REMARK                         _______ _______ _______ _____ _____    ______ ____
ROOT
ATOM      1  C   UNL     1       0.083  -4.796   3.683  0.00  0.00    +0.107 C 
ATOM      2  C   UNL     1      -1.103  -4.248   4.480  0.00  0.00    +0.031 C 
ENDROOT
BRANCH   1   3
ATOM      3  N   UNL     1       1.333  -4.432   4.355  0.00  0.00    -0.316 N 
ATOM      4  C   UNL     1       1.826  -5.224   5.379  0.00  0.00    +0.182 A 
ATOM      5  N   UNL     1       2.907  -5.063   6.093  0.00  0.00    -0.142 NA
ATOM      6  N   UNL     1       3.253  -5.966   7.093  0.00  0.00    -0.212 N 
ATOM      7  C   UNL     1       4.263  -6.149   8.028  0.00  0.00    +0.138 A 
ATOM      8  C   UNL     1       3.986  -7.270   8.718  0.00  0.00    +0.059 A 
ATOM      9  N   UNL     1       2.843  -7.785   8.242  0.00  0.00    -0.225 NA
ATOM     10  C   UNL     1       2.404  -7.022   7.283  0.00  0.00    +0.197 A 
ATOM     11  S   UNL     1       1.142  -6.723   6.068  0.00  0.00    -0.013 S 
ATOM     12  C   UNL     1       4.818  -7.848   9.833  0.00  0.00    +0.067 C 
ATOM     13  H   UNL     1       1.816  -3.636   4.082  0.00  0.00    +0.148 HD
ENDBRANCH   1   3
BRANCH   1  14
ATOM     14  C   UNL     1       0.069  -4.202   2.274  0.00  0.00    +0.251 C 
BRANCH  14  15
ATOM     15  O   UNL     1       0.050  -2.776   2.358  0.00  0.00    -0.490 OA
BRANCH  15  21
ATOM     16  C   UNL     1      -0.018   1.503   0.010  0.00  0.00    +0.044 C 
ATOM     17  C   UNL     1       0.002  -0.004   0.002  0.00  0.00    -0.047 A 
ATOM     18  C   UNL     1       0.006  -0.688  -1.200  0.00  0.00    +0.003 A 
ATOM     19  C   UNL     1       0.024  -2.071  -1.211  0.00  0.00    +0.004 A 
ATOM     20  C   UNL     1       0.039  -2.772  -0.020  0.00  0.00    +0.045 A 
ATOM     21  C   UNL     1       0.035  -2.088   1.186  0.00  0.00    +0.121 A 
ATOM     22  C   UNL     1       0.023  -0.700   1.195  0.00  0.00    +0.049 A 
ENDBRANCH  15  21
ENDBRANCH  14  15
ENDBRANCH   1  14
TORSDOF 4
