REMARK  Name = ZINC51347929
REMARK  10 active torsions:
REMARK  status: ('A' for Active; 'I' for Inactive)
REMARK    1  A    between atoms: C_1  and  C_2
REMARK    2  A    between atoms: C_4  and  O_12
REMARK    3  A    between atoms: C_5  and  C_9
REMARK    4  A    between atoms: C_9  and  C_10
REMARK    5  A    between atoms: C_9  and  C_11
REMARK    6  A    between atoms: O_12  and  C_13
REMARK    7  A    between atoms: C_13  and  C_14
REMARK    8  A    between atoms: C_16  and  C_17
REMARK    9  A    between atoms: C_16  and  C_19
REMARK   10  A    between atoms: N_21  and  C_22
REMARK                            x       y       z     vdW  Elec       q    Type
REMARK                         _______ _______ _______ _____ _____    ______ ____
ROOT
ATOM      1  O   UNL     1       0.325  -2.492  -2.496  0.00  0.00    -0.484 OA
ENDROOT
BRANCH   1   5
ATOM      2  C   UNL     1       0.139   1.905  -0.384  0.00  0.00    +0.045 C 
ATOM      3  C   UNL     1       0.303   0.409  -0.300  0.00  0.00    -0.029 A 
ATOM      4  C   UNL     1       0.238  -0.359  -1.447  0.00  0.00    +0.050 A 
ATOM      5  C   UNL     1       0.390  -1.735  -1.369  0.00  0.00    +0.125 A 
ATOM      6  C   UNL     1       0.606  -2.338  -0.138  0.00  0.00    -0.002 A 
ATOM      7  C   UNL     1       0.671  -1.568   1.006  0.00  0.00    +0.027 A 
ATOM      8  C   UNL     1       0.525  -0.194   0.925  0.00  0.00    +0.044 A 
ATOM      9 CL   UNL     1       0.614   0.773   2.364  0.00  0.00    -0.083 Cl
BRANCH   6  10
ATOM     10  C   UNL     1       0.771  -3.834  -0.051  0.00  0.00    +0.016 C 
ATOM     11  C   UNL     1       2.144  -4.162   0.538  0.00  0.00    +0.012 C 
ATOM     12  C   UNL     1      -0.322  -4.415   0.849  0.00  0.00    +0.012 C 
ENDBRANCH   6  10
ENDBRANCH   1   5
BRANCH   1  13
ATOM     13  C   UNL     1       0.099  -1.803  -3.728  0.00  0.00    +0.309 C 
BRANCH  13  14
ATOM     14  C   UNL     1       0.059  -2.798  -4.859  0.00  0.00    +0.215 C 
ATOM     15  O   UNL     1       1.160  -3.500  -5.176  0.00  0.00    -0.287 OA
ATOM     16  C   UNL     1      -1.095  -2.985  -5.561  0.00  0.00    +0.159 C 
BRANCH  16  17
ATOM     17  C   UNL     1      -2.261  -2.130  -5.300  0.00  0.00    +0.258 C 
ATOM     18  O   UNL     1      -3.176  -2.541  -4.612  0.00  0.00    -0.269 OA
ATOM     19  N   UNL     1      -2.318  -0.889  -5.824  0.00  0.00    -0.314 N 
ATOM     20  C   UNL     1      -3.480  -0.036  -5.563  0.00  0.00    +0.128 C 
ATOM     21  H   UNL     1      -1.589  -0.560  -6.372  0.00  0.00    +0.149 HD
ENDBRANCH  16  17
BRANCH  16  22
ATOM     22  C   UNL     1      -1.170  -4.015  -6.553  0.00  0.00    +0.108 C 
ATOM     23  N   UNL     1      -1.230  -4.833  -7.340  0.00  0.00    -0.191 NA
ENDBRANCH  16  22
ENDBRANCH  13  14
ENDBRANCH   1  13
TORSDOF 6
