REMARK  Name = ZINC39948337
REMARK  7 active torsions:
REMARK  status: ('A' for Active; 'I' for Inactive)
REMARK    1  A    between atoms: C_4  and  C_7
REMARK    2  A    between atoms: C_10  and  C_12
REMARK    3  A    between atoms: N_14  and  N_15
REMARK    4  A    between atoms: C_16  and  C_17
REMARK    5  A    between atoms: C_20  and  O_25
REMARK    6  A    between atoms: C_21  and  O_24
REMARK    7  A    between atoms: C_22  and  O_23
REMARK                            x       y       z     vdW  Elec       q    Type
REMARK                         _______ _______ _______ _____ _____    ______ ____
ROOT
ATOM      1  C   UNL     1       6.264  -3.466  -0.087  0.00  0.00    +0.280 C 
ATOM      2  O   UNL     1       5.741  -4.565  -0.095  0.00  0.00    -0.267 OA
ATOM      3  N   UNL     1       7.608  -3.359  -0.097  0.00  0.00    -0.202 N 
ATOM      4  H   UNL     1       8.025  -2.484  -0.091  0.00  0.00    +0.178 HD
ENDROOT
BRANCH   1   8
ATOM      5  C   UNL     1       3.689  -0.676  -0.038  0.00  0.00    +0.077 C 
ATOM      6  N   UNL     1       4.894  -0.155  -0.042  0.00  0.00    -0.153 NA
ATOM      7  N   UNL     1       5.836  -1.014  -0.058  0.00  0.00    -0.148 NA
ATOM      8  C   UNL     1       5.433  -2.259  -0.068  0.00  0.00    +0.132 C 
ATOM      9  C   UNL     1       3.915  -2.179  -0.049  0.00  0.00    +0.120 C 
BRANCH   5  13
ATOM     10  C   UNL     1      -0.017   1.380   0.010  0.00  0.00    +0.000 A 
ATOM     11  C   UNL     1       1.168   2.097   0.002  0.00  0.00    +0.001 A 
ATOM     12  C   UNL     1       2.377   1.436  -0.013  0.00  0.00    +0.010 A 
ATOM     13  C   UNL     1       2.406   0.036  -0.021  0.00  0.00    -0.002 A 
ATOM     14  C   UNL     1       1.203  -0.681  -0.013  0.00  0.00    +0.010 A 
ATOM     15  C   UNL     1       0.002  -0.004   0.002  0.00  0.00    +0.001 A 
ENDBRANCH   5  13
ENDBRANCH   1   8
BRANCH   3  16
ATOM     16  N   UNL     1       8.402  -4.513  -0.115  0.00  0.00    -0.187 NA
ATOM     17  C   UNL     1       9.697  -4.411  -0.124  0.00  0.00    +0.142 C 
BRANCH  17  18
ATOM     18  C   UNL     1      10.532  -5.624  -0.144  0.00  0.00    +0.040 A 
ATOM     19  C   UNL     1      11.926  -5.516  -0.148  0.00  0.00    +0.017 A 
ATOM     20  C   UNL     1      12.705  -6.652  -0.166  0.00  0.00    +0.050 A 
ATOM     21  C   UNL     1      12.111  -7.908  -0.180  0.00  0.00    +0.162 A 
ATOM     22  C   UNL     1      10.726  -8.028  -0.176  0.00  0.00    +0.201 A 
ATOM     23  C   UNL     1       9.931  -6.890  -0.153  0.00  0.00    +0.171 A 
BRANCH  23  24
ATOM     24  O   UNL     1       8.577  -7.004  -0.143  0.00  0.00    -0.503 OA
ATOM     25  H   UNL     1       8.178  -7.027  -1.024  0.00  0.00    +0.292 HD
ENDBRANCH  23  24
BRANCH  22  26
ATOM     26  O   UNL     1      10.149  -9.260  -0.191  0.00  0.00    -0.501 OA
ATOM     27  H   UNL     1       9.985  -9.628   0.689  0.00  0.00    +0.292 HD
ENDBRANCH  22  26
BRANCH  21  28
ATOM     28  O   UNL     1      12.887  -9.024  -0.199  0.00  0.00    -0.503 OA
ATOM     29  H   UNL     1      13.115  -9.359   0.679  0.00  0.00    +0.292 HD
ENDBRANCH  21  28
ENDBRANCH  17  18
ENDBRANCH   3  16
TORSDOF 7
