REMARK  Name = ZINC08624152
REMARK  12 active torsions:
REMARK  status: ('A' for Active; 'I' for Inactive)
REMARK    1  A    between atoms: C_1  and  C_2
REMARK    2  A    between atoms: C_3  and  C_17
REMARK    3  A    between atoms: C_4  and  C_16
REMARK    4  A    between atoms: N_5  and  C_7
REMARK    5  A    between atoms: C_10  and  C_13
REMARK    6  A    between atoms: C_13  and  C_14
REMARK    7  A    between atoms: C_13  and  C_15
REMARK    8  A    between atoms: C_20  and  O_24
REMARK    9  A    between atoms: O_24  and  C_25
REMARK   10  A    between atoms: N_27  and  C_28
REMARK   11  A    between atoms: C_28  and  C_29
REMARK   12  A    between atoms: C_28  and  C_30
REMARK                            x       y       z     vdW  Elec       q    Type
REMARK                         _______ _______ _______ _____ _____    ______ ____
ROOT
ATOM      1  C   UNL     1      -3.626   2.637   3.245  0.00  0.00    +0.068 C 
ATOM      2  C   UNL     1      -2.284   2.252   2.676  0.00  0.00    +0.064 A 
ATOM      3  C   UNL     1      -2.042   1.824   1.366  0.00  0.00    +0.003 A 
ATOM      4  C   UNL     1      -0.718   1.572   1.248  0.00  0.00    +0.046 A 
ATOM      5  N   UNL     1      -0.141   1.839   2.441  0.00  0.00    -0.236 N 
ATOM      6  N   UNL     1      -1.145   2.264   3.320  0.00  0.00    -0.171 NA
ATOM      7  C   UNL     1      -0.013   1.086   0.008  0.00  0.00    +0.066 C 
ENDROOT
BRANCH   5   8
ATOM      8  C   UNL     1       1.222   1.714   2.745  0.00  0.00    +0.066 A 
ATOM      9  C   UNL     1       1.970   0.690   2.178  0.00  0.00    +0.028 A 
ATOM     10  C   UNL     1       3.313   0.571   2.476  0.00  0.00    +0.006 A 
ATOM     11  C   UNL     1       3.912   1.464   3.345  0.00  0.00    -0.045 A 
ATOM     12  C   UNL     1       3.169   2.482   3.915  0.00  0.00    +0.006 A 
ATOM     13  C   UNL     1       1.826   2.609   3.618  0.00  0.00    +0.028 A 
BRANCH  11  14
ATOM     14  C   UNL     1       5.376   1.328   3.672  0.00  0.00    +0.013 C 
ATOM     15  C   UNL     1       5.631  -0.039   4.311  0.00  0.00    +0.012 C 
ATOM     16  C   UNL     1       6.199   1.453   2.389  0.00  0.00    +0.012 C 
ENDBRANCH  11  14
ENDBRANCH   5   8
BRANCH   3  17
ATOM     17  C   UNL     1      -3.074   1.670   0.278  0.00  0.00    +0.049 C 
ATOM     18  C   UNL     1      -3.821   3.005   0.050  0.00  0.00    +0.061 C 
ATOM     19  C   UNL     1      -5.254   2.507  -0.248  0.00  0.00    +0.202 C 
ATOM     20  C   UNL     1      -5.337   1.154   0.420  0.00  0.00    +0.013 C 
ATOM     21  C   UNL     1      -4.149   0.698   0.707  0.00  0.00    -0.019 C 
BRANCH  19  22
ATOM     22  O   UNL     1      -6.233   3.414   0.323  0.00  0.00    -0.443 OA
BRANCH  22  23
ATOM     23  C   UNL     1      -7.440   3.465  -0.273  0.00  0.00    +0.401 C 
ATOM     24  O   UNL     1      -7.668   2.769  -1.243  0.00  0.00    -0.226 OA
ATOM     25  N   UNL     1      -8.395   4.286   0.207  0.00  0.00    -0.279 N 
ATOM     26  H   UNL     1      -8.212   4.841   0.981  0.00  0.00    +0.152 HD
BRANCH  25  27
ATOM     27  C   UNL     1      -9.707   4.341  -0.441  0.00  0.00    +0.070 C 
ATOM     28  C   UNL     1     -10.596   3.225   0.112  0.00  0.00    +0.027 C 
ATOM     29  C   UNL     1     -10.358   5.697  -0.162  0.00  0.00    +0.027 C 
ENDBRANCH  25  27
ENDBRANCH  22  23
ENDBRANCH  19  22
ENDBRANCH   3  17
TORSDOF 6
