REMARK  Name = ZINC65207385
REMARK  7 active torsions:
REMARK  status: ('A' for Active; 'I' for Inactive)
REMARK    1  A    between atoms: C_1  and  O_2
REMARK    2  A    between atoms: O_2  and  C_3
REMARK    3  A    between atoms: C_3  and  C_4
REMARK    4  A    between atoms: C_4  and  C_5
REMARK    5  A    between atoms: C_5  and  N_6
REMARK    6  A    between atoms: N_9  and  N_10
REMARK    7  A    between atoms: C_11  and  C_13
REMARK                            x       y       z     vdW  Elec       q    Type
REMARK                         _______ _______ _______ _____ _____    ______ ____
ROOT
ATOM      1  N   UNL     1       1.180  -6.877  -1.956  0.00  0.00    -0.229 N 
ATOM      2  C   UNL     1       1.146  -8.222  -1.871  0.00  0.00    +0.260 C 
ATOM      3  O   UNL     1       1.648  -8.899  -2.747  0.00  0.00    -0.269 OA
ATOM      4  H   UNL     1       0.780  -6.337  -1.258  0.00  0.00    +0.173 HD
ENDROOT
BRANCH   2   5
ATOM      5  C   UNL     1       0.499  -8.872  -0.714  0.00  0.00    +0.043 A 
ATOM      6  C   UNL     1       0.469 -10.267  -0.622  0.00  0.00    +0.062 A 
ATOM      7  C   UNL     1      -0.138 -10.866   0.464  0.00  0.00    +0.164 A 
ATOM      8  C   UNL     1      -0.716 -10.087   1.460  0.00  0.00    +0.180 A 
ATOM      9  C   UNL     1      -0.687  -8.702   1.371  0.00  0.00    +0.087 A 
ATOM     10  C   UNL     1      -0.077  -8.094   0.292  0.00  0.00    +0.037 A 
ATOM     11 CL   UNL     1      -1.410  -7.736   2.619  0.00  0.00    -0.080 Cl
ATOM     12  O   UNL     1      -1.311 -10.693   2.526  0.00  0.00    -0.487 OA
ATOM     13  C   UNL     1      -2.513 -11.413   2.246  0.00  0.00    +0.232 C 
ATOM     14  C   UNL     1      -2.198 -12.822   1.767  0.00  0.00    +0.082 C 
ATOM     15  C   UNL     1      -1.462 -12.830   0.436  0.00  0.00    +0.232 C 
ATOM     16  O   UNL     1      -0.174 -12.226   0.566  0.00  0.00    -0.488 OA
ENDBRANCH   2   5
BRANCH   1  20
ATOM     17  N   UNL     1       1.272  -4.165  -2.169  0.00  0.00    -0.298 N 
ATOM     18  C   UNL     1       1.828  -4.916  -3.140  0.00  0.00    +0.316 C 
ATOM     19  O   UNL     1       2.361  -4.380  -4.093  0.00  0.00    -0.251 OA
ATOM     20  N   UNL     1       1.794  -6.260  -3.054  0.00  0.00    -0.218 N 
ATOM     21  H   UNL     1       0.847  -4.592  -1.409  0.00  0.00    +0.150 HD
ATOM     22  H   UNL     1       2.194  -6.801  -3.753  0.00  0.00    +0.174 HD
BRANCH  17  23
ATOM     23  C   UNL     1       1.309  -2.703  -2.261  0.00  0.00    +0.108 C 
BRANCH  23  24
ATOM     24  C   UNL     1       0.613  -2.097  -1.041  0.00  0.00    +0.047 C 
BRANCH  24  25
ATOM     25  C   UNL     1       0.652  -0.570  -1.138  0.00  0.00    +0.161 C 
BRANCH  25  27
ATOM     26  C   UNL     1      -0.017   1.425   0.010  0.00  0.00    +0.193 C 
ATOM     27  O   UNL     1       0.002  -0.004   0.002  0.00  0.00    -0.383 OA
ENDBRANCH  25  27
ENDBRANCH  24  25
ENDBRANCH  23  24
ENDBRANCH  17  23
ENDBRANCH   1  20
TORSDOF 6
