REMARK  Name = ZINC46915143
REMARK  12 active torsions:
REMARK  status: ('A' for Active; 'I' for Inactive)
REMARK    1  A    between atoms: C_1  and  C_2
REMARK    2  A    between atoms: C_2  and  C_3
REMARK    3  A    between atoms: C_3  and  C_5
REMARK    4  A    between atoms: C_3  and  N_6
REMARK    5  A    between atoms: C_7  and  C_9
REMARK    6  A    between atoms: C_9  and  N_10
REMARK    7  A    between atoms: C_11  and  N_29
REMARK    8  A    between atoms: C_12  and  C_17
REMARK    9  A    between atoms: C_13  and  S_15
REMARK   10  A    between atoms: S_15  and  C_16
REMARK   11  A    between atoms: C_19  and  C_22
REMARK   12  A    between atoms: C_25  and  C_28
REMARK                            x       y       z     vdW  Elec       q    Type
REMARK                         _______ _______ _______ _____ _____    ______ ____
ROOT
ATOM      1  N   UNL     1       0.772   0.445   6.003  0.00  0.00    -0.240 N 
ATOM      2  C   UNL     1       1.087  -0.576   6.827  0.00  0.00    +0.129 A 
ATOM      3  C   UNL     1       1.981  -0.083   7.772  0.00  0.00    +0.112 A 
ATOM      4  C   UNL     1       2.188   1.288   7.472  0.00  0.00    +0.133 A 
ATOM      5  N   UNL     1       1.470   1.585   6.418  0.00  0.00    -0.162 NA
ENDROOT
BRANCH   3   6
ATOM      6  C   UNL     1       2.595  -0.839   8.873  0.00  0.00    +0.265 A 
ATOM      7  N   UNL     1       3.437  -0.360   9.764  0.00  0.00    -0.187 NA
ATOM      8  C   UNL     1       3.795  -1.328  10.621  0.00  0.00    +0.202 A 
ATOM      9  N   UNL     1       3.184  -2.439  10.285  0.00  0.00    -0.056 NA
ATOM     10  O   UNL     1       2.389  -2.141   9.148  0.00  0.00    -0.332 OA
BRANCH   8  11
ATOM     11  C   UNL     1       4.730  -1.169  11.762  0.00  0.00    +0.022 A 
ATOM     12  C   UNL     1       5.314   0.070  12.020  0.00  0.00    +0.012 A 
ATOM     13  C   UNL     1       6.183   0.213  13.083  0.00  0.00    +0.004 A 
ATOM     14  C   UNL     1       6.474  -0.871  13.891  0.00  0.00    -0.050 A 
ATOM     15  C   UNL     1       5.898  -2.103  13.640  0.00  0.00    +0.004 A 
ATOM     16  C   UNL     1       5.023  -2.255  12.583  0.00  0.00    +0.012 A 
ATOM     17  C   UNL     1       7.424  -0.709  15.050  0.00  0.00    +0.044 C 
ENDBRANCH   8  11
ENDBRANCH   3   6
BRANCH   2  18
ATOM     18  N   UNL     1       0.608  -1.871   6.748  0.00  0.00    -0.343 N 
ATOM     19  H   UNL     1      -0.016  -2.115   6.048  0.00  0.00    +0.144 HD
ATOM     20  H   UNL     1       0.898  -2.535   7.393  0.00  0.00    +0.144 HD
ENDBRANCH   2  18
BRANCH   4  21
ATOM     21  S   UNL     1       3.233   2.396   8.357  0.00  0.00    -0.107 S 
ATOM     22  C   UNL     1       3.052   3.970   7.475  0.00  0.00    +0.091 C 
ENDBRANCH   4  21
BRANCH   1  23
ATOM     23  C   UNL     1      -0.142   0.370   4.861  0.00  0.00    +0.241 C 
BRANCH  23  25
ATOM     24  N   UNL     1      -0.008  -0.140   2.444  0.00  0.00    -0.311 N 
ATOM     25  C   UNL     1       0.630  -0.011   3.624  0.00  0.00    +0.235 C 
ATOM     26  O   UNL     1       1.826  -0.202   3.690  0.00  0.00    -0.274 OA
ATOM     27  H   UNL     1      -0.965   0.013   2.391  0.00  0.00    +0.149 HD
BRANCH  24  28
ATOM     28  C   UNL     1       0.742  -0.511   1.242  0.00  0.00    +0.070 C 
ATOM     29  C   UNL     1       0.872  -2.034   1.171  0.00  0.00    +0.028 C 
BRANCH  28  31
ATOM     30  C   UNL     1      -0.019   1.526   0.010  0.00  0.00    +0.005 C 
ATOM     31  C   UNL     1       0.002  -0.004   0.002  0.00  0.00    +0.018 C 
ENDBRANCH  28  31
ENDBRANCH  24  28
ENDBRANCH  23  25
ENDBRANCH   1  23
TORSDOF 8
