REMARK  Name = ZINC23632987
REMARK  10 active torsions:
REMARK  status: ('A' for Active; 'I' for Inactive)
REMARK    1  A    between atoms: C_1  and  C_2
REMARK    2  A    between atoms: C_3  and  C_32
REMARK    3  A    between atoms: N_9  and  C_28
REMARK    4  A    between atoms: C_10  and  S_12
REMARK    5  A    between atoms: S_12  and  C_13
REMARK    6  A    between atoms: C_13  and  C_15
REMARK    7  A    between atoms: C_13  and  C_16
REMARK    8  A    between atoms: C_28  and  C_29
REMARK    9  A    between atoms: C_29  and  O_30
REMARK   10  A    between atoms: O_30  and  C_31
REMARK                            x       y       z     vdW  Elec       q    Type
REMARK                         _______ _______ _______ _____ _____    ______ ____
ROOT
ATOM      1  C   UNL     1      -0.187  -9.673   1.301  0.00  0.00    +0.045 C 
ATOM      2  C   UNL     1       0.641  -8.583   0.671  0.00  0.00    -0.026 A 
ATOM      3  C   UNL     1       1.733  -8.889  -0.046  0.00  0.00    -0.008 A 
ATOM      4  S   UNL     1       2.348  -7.298  -0.564  0.00  0.00    -0.073 S 
ATOM      5  C   UNL     1       1.120  -6.267   0.198  0.00  0.00    +0.117 A 
ATOM      6  C   UNL     1       0.267  -7.189   0.834  0.00  0.00    +0.075 A 
ATOM      7  C   UNL     1      -0.840  -6.625   1.544  0.00  0.00    +0.263 A 
ATOM      8  O   UNL     1      -1.632  -7.347   2.125  0.00  0.00    -0.267 OA
ATOM      9  N   UNL     1      -0.991  -5.289   1.567  0.00  0.00    -0.285 N 
ATOM     10  C   UNL     1      -0.118  -4.466   0.917  0.00  0.00    +0.173 A 
ATOM     11  N   UNL     1       0.910  -4.958   0.255  0.00  0.00    -0.216 NA
ATOM     12  C   UNL     1       2.303 -10.252  -0.343  0.00  0.00    +0.052 C 
ENDROOT
BRANCH  10  13
ATOM     13  S   UNL     1      -0.363  -2.722   0.970  0.00  0.00    -0.077 S 
BRANCH  13  14
ATOM     14  C   UNL     1       1.050  -2.175  -0.020  0.00  0.00    +0.117 C 
ATOM     15  C   UNL     1       0.889  -2.671  -1.458  0.00  0.00    +0.027 C 
BRANCH  14  16
ATOM     16  C   UNL     1       1.117  -0.670  -0.012  0.00  0.00    +0.124 A 
ATOM     17  N   UNL     1       2.340  -0.078  -0.020  0.00  0.00    -0.309 N 
ATOM     18  H   UNL     1       3.250  -0.697  -0.032  0.00  0.00    +0.170 HD
ATOM     19  C   UNL     1       2.453   1.270  -0.014  0.00  0.00    +0.259 A 
ATOM     20  O   UNL     1       3.543   1.813  -0.021  0.00  0.00    -0.267 OA
ATOM     21  C   UNL     1       1.209   2.054   0.002  0.00  0.00    +0.065 A 
ATOM     22  C   UNL     1       1.216   3.447   0.009  0.00  0.00    +0.015 A 
ATOM     23  C   UNL     1       0.021   4.132   0.025  0.00  0.00    +0.001 A 
ATOM     24  C   UNL     1      -1.187   3.445   0.032  0.00  0.00    +0.002 A 
ATOM     25  C   UNL     1      -1.215   2.069   0.030  0.00  0.00    +0.028 A 
ATOM     26  C   UNL     1      -0.016   1.352   0.009  0.00  0.00    +0.078 A 
ATOM     27  N   UNL     1       0.002  -0.004   0.002  0.00  0.00    -0.233 NA
ENDBRANCH  14  16
ENDBRANCH  13  14
ENDBRANCH  10  13
BRANCH   9  28
ATOM     28  C   UNL     1      -2.119  -4.706   2.298  0.00  0.00    +0.155 C 
BRANCH  28  29
ATOM     29  C   UNL     1      -3.324  -4.580   1.362  0.00  0.00    +0.181 C 
BRANCH  29  30
ATOM     30  O   UNL     1      -3.760  -5.884   0.971  0.00  0.00    -0.381 OA
ATOM     31  C   UNL     1      -4.886  -5.880   0.091  0.00  0.00    +0.194 C 
ENDBRANCH  29  30
ENDBRANCH  28  29
ENDBRANCH   9  28
TORSDOF 6
