REMARK  Name = ZINC33926746
REMARK  6 active torsions:
REMARK  status: ('A' for Active; 'I' for Inactive)
REMARK    1  A    between atoms: C_1  and  C_2
REMARK    2  A    between atoms: C_2  and  C_3
REMARK    3  A    between atoms: C_5  and  C_22
REMARK    4  A    between atoms: C_8  and  C_13
REMARK    5  A    between atoms: C_16  and  N_19
REMARK    6  A    between atoms: C_25  and  N_28
REMARK                            x       y       z     vdW  Elec       q    Type
REMARK                         _______ _______ _______ _____ _____    ______ ____
ROOT
ATOM      1  C   UNL     1      -1.414  -0.532   0.191  0.00  0.00    +0.076 C 
ATOM      2  C   UNL     1      -1.419  -2.063   0.116  0.00  0.00    +0.095 C 
ATOM      3  N   UNL     1      -0.887  -2.489  -1.185  0.00  0.00    -0.302 NA
ATOM      4  C   UNL     1      -1.761  -2.075  -2.288  0.00  0.00    +0.091 C 
ATOM      5  C   UNL     1      -1.780  -0.544  -2.376  0.00  0.00    +0.098 C 
ATOM      6  C   UNL     1      -2.156   0.005  -1.015  0.00  0.00    +0.140 C 
ATOM      7  O   UNL     1      -3.018   0.842  -0.896  0.00  0.00    -0.297 OA
ATOM      8  H   UNL     1       0.053  -2.147  -1.320  0.00  0.00    +0.123 HD
ENDROOT
BRANCH   4   9
ATOM      9  C   UNL     1      -1.243  -2.646  -3.583  0.00  0.00    -0.030 A 
ATOM     10  C   UNL     1       0.117  -2.683  -3.826  0.00  0.00    +0.007 A 
ATOM     11  C   UNL     1       0.593  -3.208  -5.014  0.00  0.00    +0.033 A 
ATOM     12  C   UNL     1      -0.292  -3.696  -5.957  0.00  0.00    +0.126 A 
ATOM     13  C   UNL     1      -1.652  -3.660  -5.713  0.00  0.00    +0.033 A 
ATOM     14  C   UNL     1      -2.127  -3.140  -4.524  0.00  0.00    +0.007 A 
BRANCH  12  15
ATOM     15  N   UNL     1       0.217  -4.257  -7.229  0.00  0.00    +0.056 N 
ATOM     16  O   UNL     1       1.407  -4.288  -7.442  0.00  0.00    -0.126 OA
ATOM     17  O   UNL     1      -0.557  -4.684  -8.054  0.00  0.00    -0.126 OA
ENDBRANCH  12  15
ENDBRANCH   4   9
BRANCH   2  18
ATOM     18  C   UNL     1      -2.830  -2.569   0.271  0.00  0.00    -0.030 A 
ATOM     19  C   UNL     1      -3.174  -3.818  -0.211  0.00  0.00    +0.007 A 
ATOM     20  C   UNL     1      -4.468  -4.283  -0.068  0.00  0.00    +0.033 A 
ATOM     21  C   UNL     1      -5.418  -3.498   0.558  0.00  0.00    +0.126 A 
ATOM     22  C   UNL     1      -5.075  -2.250   1.041  0.00  0.00    +0.033 A 
ATOM     23  C   UNL     1      -3.780  -1.787   0.902  0.00  0.00    +0.007 A 
BRANCH  21  24
ATOM     24  N   UNL     1      -6.804  -3.995   0.710  0.00  0.00    +0.056 N 
ATOM     25  O   UNL     1      -7.105  -5.087   0.286  0.00  0.00    -0.126 OA
ATOM     26  O   UNL     1      -7.636  -3.309   1.257  0.00  0.00    -0.126 OA
ENDBRANCH  21  24
ENDBRANCH   2  18
BRANCH   1  28
ATOM     27  C   UNL     1       0.030   1.499   0.366  0.00  0.00    +0.004 C 
ATOM     28  C   UNL     1       0.027  -0.020   0.181  0.00  0.00    +0.009 C 
ENDBRANCH   1  28
TORSDOF 5
