REMARK  Name = ZINC56249571
REMARK  5 active torsions:
REMARK  status: ('A' for Active; 'I' for Inactive)
REMARK    1  A    between atoms: C_1  and  C_2
REMARK    2  A    between atoms: C_2  and  C_3
REMARK    3  A    between atoms: C_3  and  C_4
REMARK    4  A    between atoms: C_7  and  N_10
REMARK    5  A    between atoms: C_11  and  C_13
REMARK                            x       y       z     vdW  Elec       q    Type
REMARK                         _______ _______ _______ _____ _____    ______ ____
ROOT
ATOM      1  N   UNL     1      -0.378  -4.132   3.792  0.00  0.00    -0.312 N 
ATOM      2  C   UNL     1      -0.154  -4.812   4.934  0.00  0.00    +0.221 C 
ATOM      3  O   UNL     1       0.526  -5.816   4.918  0.00  0.00    -0.275 OA
ATOM      4  H   UNL     1      -0.922  -3.329   3.804  0.00  0.00    +0.149 HD
ENDROOT
BRANCH   2   5
ATOM      5  C   UNL     1      -0.749  -4.325   6.230  0.00  0.00    +0.115 C 
ATOM      6  C   UNL     1      -0.233  -2.918   6.530  0.00  0.00    +0.113 C 
ATOM      7  C   UNL     1       1.219  -2.978   6.924  0.00  0.00    +0.218 C 
ATOM      8  O   UNL     1       1.966  -2.080   6.597  0.00  0.00    -0.275 OA
ATOM      9  N   UNL     1       1.697  -4.015   7.635  0.00  0.00    -0.285 N 
ATOM     10  C   UNL     1       0.855  -5.068   8.006  0.00  0.00    +0.037 A 
ATOM     11  C   UNL     1      -0.352  -5.256   7.346  0.00  0.00    -0.014 A 
ATOM     12  C   UNL     1      -1.184  -6.294   7.713  0.00  0.00    +0.006 A 
ATOM     13  C   UNL     1      -0.817  -7.147   8.739  0.00  0.00    +0.000 A 
ATOM     14  C   UNL     1       0.385  -6.962   9.398  0.00  0.00    +0.002 A 
ATOM     15  C   UNL     1       1.222  -5.926   9.034  0.00  0.00    +0.023 A 
ATOM     16  H   UNL     1       2.633  -4.034   7.890  0.00  0.00    +0.155 HD
ENDBRANCH   2   5
BRANCH   1  20
ATOM     17  C   UNL     1       0.763  -2.041   1.233  0.00  0.00    -0.011 C 
ATOM     18  C   UNL     1      -0.666  -2.571   1.370  0.00  0.00    +0.005 C 
ATOM     19  C   UNL     1      -0.645  -4.101   1.361  0.00  0.00    +0.022 C 
ATOM     20  C   UNL     1       0.200  -4.606   2.532  0.00  0.00    +0.073 C 
ATOM     21  C   UNL     1       1.629  -4.076   2.396  0.00  0.00    +0.022 C 
ATOM     22  C   UNL     1       1.608  -2.546   2.404  0.00  0.00    +0.005 C 
BRANCH  17  23
ATOM     23  C   UNL     1       0.742  -0.511   1.242  0.00  0.00    +0.003 C 
BRANCH  23  25
ATOM     24  C   UNL     1      -0.019   1.526   0.010  0.00  0.00    +0.004 C 
ATOM     25  C   UNL     1       0.002  -0.004   0.002  0.00  0.00    -0.003 C 
ENDBRANCH  23  25
ENDBRANCH  17  23
ENDBRANCH   1  20
TORSDOF 4
