REMARK  Name = ZINC67354373
REMARK  7 active torsions:
REMARK  status: ('A' for Active; 'I' for Inactive)
REMARK    1  A    between atoms: C_1  and  S_2
REMARK    2  A    between atoms: S_2  and  C_5
REMARK    3  A    between atoms: C_8  and  N_12
REMARK    4  A    between atoms: N_15  and  C_16
REMARK    5  A    between atoms: C_16  and  C_17
REMARK    6  A    between atoms: C_17  and  C_18
REMARK    7  A    between atoms: C_22  and  C_24
REMARK                            x       y       z     vdW  Elec       q    Type
REMARK                         _______ _______ _______ _____ _____    ______ ____
ROOT
ATOM      1  N   UNL     1       2.841  -1.463  -4.997  0.00  0.00    -0.269 N 
ATOM      2  C   UNL     1       4.187  -1.525  -5.014  0.00  0.00    +0.304 C 
ATOM      3  O   UNL     1       4.816  -1.371  -3.985  0.00  0.00    -0.253 OA
ATOM      4  N   UNL     1       4.837  -1.757  -6.172  0.00  0.00    -0.299 N 
ATOM      5  H   UNL     1       2.336  -1.662  -5.801  0.00  0.00    +0.156 HD
ATOM      6  H   UNL     1       4.335  -1.880  -6.993  0.00  0.00    +0.150 HD
ENDROOT
BRANCH   1  10
ATOM      7  C   UNL     1       0.846  -0.416  -1.489  0.00  0.00    +0.158 A 
ATOM      8  C   UNL     1       2.083   0.137  -1.772  0.00  0.00    +0.153 A 
ATOM      9  C   UNL     1       2.747  -0.209  -2.936  0.00  0.00    +0.063 A 
ATOM     10  C   UNL     1       2.171  -1.112  -3.820  0.00  0.00    +0.040 A 
ATOM     11  C   UNL     1       0.931  -1.665  -3.534  0.00  0.00    +0.063 A 
ATOM     12  C   UNL     1       0.273  -1.321  -2.367  0.00  0.00    +0.153 A 
ATOM     13  F   UNL     1      -0.932  -1.863  -2.086  0.00  0.00    -0.203 F 
ATOM     14  F   UNL     1       2.643   1.015  -0.911  0.00  0.00    -0.203 F 
BRANCH   7  16
ATOM     15  C   UNL     1       0.570  -1.176   1.229  0.00  0.00    +0.200 C 
ATOM     16  S   UNL     1       0.003   0.026  -0.006  0.00  0.00    -0.000 S 
ATOM     17  O   UNL     1      -1.373  -0.182  -0.296  0.00  0.00    -0.169 OA
ATOM     18  O   UNL     1       0.488   1.323   0.314  0.00  0.00    -0.169 OA
ENDBRANCH   7  16
ENDBRANCH   1  10
BRANCH   4  19
ATOM     19  C   UNL     1       6.300  -1.825  -6.191  0.00  0.00    +0.110 C 
BRANCH  19  20
ATOM     20  C   UNL     1       6.780  -2.097  -7.618  0.00  0.00    +0.054 C 
BRANCH  20  21
ATOM     21  C   UNL     1       8.285  -2.166  -7.637  0.00  0.00    -0.045 A 
ATOM     22  C   UNL     1       9.027  -1.017  -7.848  0.00  0.00    +0.004 A 
ATOM     23  C   UNL     1      10.409  -1.072  -7.866  0.00  0.00    +0.001 A 
ATOM     24  C   UNL     1      11.057  -2.275  -7.675  0.00  0.00    +0.013 A 
ATOM     25  C   UNL     1      10.316  -3.437  -7.461  0.00  0.00    +0.037 A 
ATOM     26  C   UNL     1       8.921  -3.374  -7.438  0.00  0.00    +0.016 A 
BRANCH  25  27
ATOM     27  C   UNL     1      11.004  -4.730  -7.256  0.00  0.00    +0.242 C 
ATOM     28  O   UNL     1      10.355  -5.741  -7.070  0.00  0.00    -0.270 OA
ATOM     29  N   UNL     1      12.350  -4.787  -7.274  0.00  0.00    -0.325 N 
ATOM     30  H   UNL     1      12.868  -3.980  -7.422  0.00  0.00    +0.145 HD
ATOM     31  H   UNL     1      12.802  -5.634  -7.139  0.00  0.00    +0.145 HD
ENDBRANCH  25  27
ENDBRANCH  20  21
ENDBRANCH  19  20
ENDBRANCH   4  19
TORSDOF 6
