REMARK  Name = ZINC39921144
REMARK  8 active torsions:
REMARK  status: ('A' for Active; 'I' for Inactive)
REMARK    1  A    between atoms: C_1  and  C_2
REMARK    2  A    between atoms: C_2  and  O_3
REMARK    3  A    between atoms: O_3  and  C_4
REMARK    4  A    between atoms: C_8  and  C_10
REMARK    5  A    between atoms: C_14  and  C_18
REMARK    6  A    between atoms: C_20  and  N_21
REMARK    7  A    between atoms: N_21  and  C_22
REMARK    8  A    between atoms: C_27  and  C_28
REMARK                            x       y       z     vdW  Elec       q    Type
REMARK                         _______ _______ _______ _____ _____    ______ ____
ROOT
ATOM      1  C   UNL     1      -4.210  -4.607   0.134  0.00  0.00    +0.057 A 
ATOM      2  C   UNL     1      -4.692  -5.691  -0.734  0.00  0.00    +0.114 A 
ATOM      3  C   UNL     1      -5.878  -6.145  -0.148  0.00  0.00    +0.148 A 
ATOM      4  C   UNL     1      -6.572  -7.201  -0.778  0.00  0.00    +0.088 A 
ATOM      5  C   UNL     1      -6.083  -7.738  -1.911  0.00  0.00    +0.110 A 
ATOM      6  O   UNL     1      -4.944  -7.299  -2.470  0.00  0.00    -0.427 OA
ATOM      7  C   UNL     1      -4.233  -6.296  -1.921  0.00  0.00    +0.348 A 
ATOM      8  O   UNL     1      -3.202  -5.914  -2.447  0.00  0.00    -0.244 OA
ATOM      9  C   UNL     1      -6.835  -8.865  -2.571  0.00  0.00    +0.086 C 
ATOM     10  O   UNL     1      -6.097  -5.418   0.959  0.00  0.00    -0.440 OA
ATOM     11  C   UNL     1      -5.123  -4.510   1.146  0.00  0.00    +0.200 A 
ENDROOT
BRANCH   1  16
ATOM     12  C   UNL     1      -1.937  -1.671  -0.461  0.00  0.00    +0.121 A 
ATOM     13  C   UNL     1      -0.690  -2.278  -0.387  0.00  0.00    +0.045 A 
ATOM     14  C   UNL     1      -0.590  -3.635  -0.144  0.00  0.00    +0.004 A 
ATOM     15  C   UNL     1      -1.729  -4.396   0.025  0.00  0.00    +0.009 A 
ATOM     16  C   UNL     1      -2.986  -3.794  -0.047  0.00  0.00    -0.009 A 
ATOM     17  C   UNL     1      -3.085  -2.424  -0.286  0.00  0.00    +0.054 A 
BRANCH  12  18
ATOM     18  O   UNL     1      -2.029  -0.336  -0.700  0.00  0.00    -0.492 OA
BRANCH  18  20
ATOM     19  C   UNL     1      -1.107   1.857  -1.127  0.00  0.00    +0.048 C 
ATOM     20  C   UNL     1      -0.804   0.379  -0.870  0.00  0.00    +0.225 C 
ENDBRANCH  18  20
ENDBRANCH  12  18
ENDBRANCH   1  16
BRANCH  11  21
ATOM     21  N   UNL     1      -5.057  -3.612   2.199  0.00  0.00    -0.285 N 
ATOM     22  H   UNL     1      -4.269  -3.058   2.316  0.00  0.00    +0.155 HD
BRANCH  21  23
ATOM     23  C   UNL     1      -6.125  -3.506   3.094  0.00  0.00    +0.036 A 
ATOM     24  C   UNL     1      -7.322  -4.160   2.830  0.00  0.00    +0.023 A 
ATOM     25  C   UNL     1      -8.375  -4.052   3.716  0.00  0.00    +0.002 A 
ATOM     26  C   UNL     1      -8.240  -3.294   4.865  0.00  0.00    +0.000 A 
ATOM     27  C   UNL     1      -7.050  -2.642   5.130  0.00  0.00    +0.005 A 
ATOM     28  C   UNL     1      -5.990  -2.750   4.251  0.00  0.00    -0.029 A 
ATOM     29  C   UNL     1      -4.692  -2.043   4.545  0.00  0.00    +0.045 C 
ENDBRANCH  21  23
ENDBRANCH  11  21
TORSDOF 5
