REMARK  Name = ZINC08764334
REMARK  10 active torsions:
REMARK  status: ('A' for Active; 'I' for Inactive)
REMARK    1  A    between atoms: C_1  and  C_2
REMARK    2  A    between atoms: C_6  and  C_21
REMARK    3  A    between atoms: C_7  and  C_11
REMARK    4  A    between atoms: C_11  and  C_12
REMARK    5  A    between atoms: N_14  and  C_15
REMARK    6  A    between atoms: C_15  and  C_16
REMARK    7  A    between atoms: C_16  and  C_18
REMARK    8  A    between atoms: C_16  and  O_20
REMARK    9  A    between atoms: C_18  and  O_19
REMARK   10  A    between atoms: C_24  and  C_27
REMARK                            x       y       z     vdW  Elec       q    Type
REMARK                         _______ _______ _______ _____ _____    ______ ____
ROOT
ATOM      1  C   UNL     1       2.966  -0.924  12.623  0.00  0.00    +0.044 C 
ATOM      2  C   UNL     1       2.128  -0.609  11.411  0.00  0.00    -0.036 A 
ATOM      3  C   UNL     1       2.312   0.572  10.749  0.00  0.00    +0.051 A 
ATOM      4  C   UNL     1       1.546   0.879   9.628  0.00  0.00    +0.143 A 
ATOM      5  C   UNL     1       0.577  -0.029   9.172  0.00  0.00    +0.064 A 
ATOM      6  C   UNL     1      -0.223   0.314   7.995  0.00  0.00    -0.026 A 
ATOM      7  C   UNL     1       0.014   1.502   7.381  0.00  0.00    +0.049 A 
ATOM      8  C   UNL     1       1.003   2.368   7.892  0.00  0.00    +0.341 A 
ATOM      9  O   UNL     1       1.204   3.433   7.336  0.00  0.00    -0.245 OA
ATOM     10  O   UNL     1       1.728   2.048   8.974  0.00  0.00    -0.422 OA
ATOM     11  C   UNL     1      -1.278  -0.629   7.476  0.00  0.00    +0.045 C 
ATOM     12  C   UNL     1       0.384  -1.245   9.849  0.00  0.00    +0.147 A 
ATOM     13  C   UNL     1       1.170  -1.524  10.973  0.00  0.00    +0.032 A 
ATOM     14  C   UNL     1       0.728  -2.851  11.443  0.00  0.00    +0.028 A 
ATOM     15  C   UNL     1      -0.249  -3.238  10.591  0.00  0.00    +0.204 A 
ATOM     16  O   UNL     1      -0.444  -2.290   9.660  0.00  0.00    -0.462 OA
ENDROOT
BRANCH  14  17
ATOM     17  C   UNL     1       1.248  -3.604  12.609  0.00  0.00    -0.014 A 
ATOM     18  C   UNL     1       2.620  -3.791  12.767  0.00  0.00    +0.008 A 
ATOM     19  C   UNL     1       3.098  -4.488  13.858  0.00  0.00    +0.001 A 
ATOM     20  C   UNL     1       2.218  -5.012  14.787  0.00  0.00    +0.000 A 
ATOM     21  C   UNL     1       0.854  -4.835  14.633  0.00  0.00    +0.001 A 
ATOM     22  C   UNL     1       0.365  -4.134  13.550  0.00  0.00    +0.008 A 
ENDBRANCH  14  17
BRANCH   7  23
ATOM     23  C   UNL     1      -0.781   1.897   6.164  0.00  0.00    +0.138 C 
BRANCH  23  24
ATOM     24  C   UNL     1      -0.076   1.411   4.924  0.00  0.00    +0.218 C 
ATOM     25  O   UNL     1       0.970   0.804   5.019  0.00  0.00    -0.275 OA
ATOM     26  N   UNL     1      -0.607   1.651   3.708  0.00  0.00    -0.312 N 
ATOM     27  H   UNL     1      -1.443   2.137   3.632  0.00  0.00    +0.149 HD
BRANCH  26  28
ATOM     28  C   UNL     1       0.079   1.179   2.503  0.00  0.00    +0.137 C 
BRANCH  28  29
ATOM     29  C   UNL     1      -0.729   1.579   1.267  0.00  0.00    +0.157 C 
BRANCH  29  30
ATOM     30  O   UNL     1      -2.030   0.991   1.336  0.00  0.00    -0.388 OA
ATOM     31  H   UNL     1      -2.023   0.025   1.372  0.00  0.00    +0.210 HD
ENDBRANCH  29  30
BRANCH  29  32
ATOM     32  C   UNL     1      -0.013   1.086   0.008  0.00  0.00    +0.188 C 
BRANCH  32  33
ATOM     33  O   UNL     1      -0.704   1.559  -1.150  0.00  0.00    -0.392 OA
ATOM     34  H   UNL     1      -0.304   1.284  -1.986  0.00  0.00    +0.210 HD
ENDBRANCH  32  33
ENDBRANCH  29  32
ENDBRANCH  28  29
ENDBRANCH  26  28
ENDBRANCH  23  24
ENDBRANCH   7  23
TORSDOF 8
