REMARK  Name = ZINC09125070
REMARK  9 active torsions:
REMARK  status: ('A' for Active; 'I' for Inactive)
REMARK    1  A    between atoms: C_1  and  C_2
REMARK    2  A    between atoms: C_5  and  C_8
REMARK    3  A    between atoms: C_11  and  S_14
REMARK    4  A    between atoms: N_12  and  N_13
REMARK    5  A    between atoms: S_14  and  C_15
REMARK    6  A    between atoms: C_15  and  C_17
REMARK    7  A    between atoms: C_15  and  C_18
REMARK    8  A    between atoms: C_24  and  C_30
REMARK    9  A    between atoms: C_25  and  C_29
REMARK                            x       y       z     vdW  Elec       q    Type
REMARK                         _______ _______ _______ _____ _____    ______ ____
ROOT
ATOM      1  S   UNL     1       0.514  -7.829   1.481  0.00  0.00    -0.074 S 
ENDROOT
BRANCH   1   5
ATOM      2  C   UNL     1       0.058  -4.251  -0.021  0.00  0.00    +0.182 A 
ATOM      3  N   UNL     1      -0.205  -5.029  -1.045  0.00  0.00    -0.127 NA
ATOM      4  N   UNL     1      -0.094  -6.262  -0.700  0.00  0.00    -0.121 NA
ATOM      5  C   UNL     1       0.247  -6.346   0.567  0.00  0.00    +0.209 A 
ATOM      6  N   UNL     1       0.361  -5.071   1.041  0.00  0.00    -0.224 N 
BRANCH   2  11
ATOM      7  C   UNL     1      -0.018   1.503   0.010  0.00  0.00    +0.044 C 
ATOM      8  C   UNL     1       0.002  -0.004   0.002  0.00  0.00    -0.050 A 
ATOM      9  C   UNL     1       0.006  -0.686  -1.202  0.00  0.00    +0.004 A 
ATOM     10  C   UNL     1       0.024  -2.066  -1.216  0.00  0.00    +0.012 A 
ATOM     11  C   UNL     1       0.039  -2.773  -0.013  0.00  0.00    +0.021 A 
ATOM     12  C   UNL     1       0.036  -2.079   1.198  0.00  0.00    +0.012 A 
ATOM     13  C   UNL     1       0.023  -0.699   1.198  0.00  0.00    +0.004 A 
ENDBRANCH   2  11
BRANCH   6  14
ATOM     14  N   UNL     1       0.701  -4.689   2.308  0.00  0.00    -0.295 N 
ATOM     15  H   UNL     1      -0.117  -4.601   2.891  0.00  0.00    +0.163 HD
ATOM     16  H   UNL     1       1.367  -5.330   2.713  0.00  0.00    +0.163 HD
ENDBRANCH   6  14
ENDBRANCH   1   5
BRANCH   1  17
ATOM     17  C   UNL     1       0.210  -9.149   0.274  0.00  0.00    +0.117 C 
ATOM     18  C   UNL     1       1.267  -9.084  -0.830  0.00  0.00    +0.027 C 
BRANCH  17  19
ATOM     19  C   UNL     1       0.286 -10.487   0.963  0.00  0.00    +0.124 A 
ATOM     20  N   UNL     1      -0.530 -11.494   0.558  0.00  0.00    -0.309 N 
ATOM     21  H   UNL     1      -1.151 -11.337  -0.171  0.00  0.00    +0.170 HD
ATOM     22  C   UNL     1      -0.494 -12.704   1.145  0.00  0.00    +0.260 A 
ATOM     23  O   UNL     1      -1.233 -13.597   0.769  0.00  0.00    -0.267 OA
ATOM     24  C   UNL     1       0.426 -12.926   2.221  0.00  0.00    +0.075 A 
ATOM     25  C   UNL     1       0.654 -14.125   3.006  0.00  0.00    -0.026 A 
ATOM     26  C   UNL     1       1.580 -14.107   3.977  0.00  0.00    -0.008 A 
ATOM     27  S   UNL     1       2.223 -12.446   3.903  0.00  0.00    -0.073 S 
ATOM     28  C   UNL     1       1.230 -11.825   2.571  0.00  0.00    +0.116 A 
ATOM     29  N   UNL     1       1.140 -10.660   1.937  0.00  0.00    -0.225 NA
ATOM     30  C   UNL     1       1.980 -15.223   4.907  0.00  0.00    +0.052 C 
ATOM     31  C   UNL     1      -0.141 -15.376   2.733  0.00  0.00    +0.045 C 
ENDBRANCH  17  19
ENDBRANCH   1  17
TORSDOF 5
