REMARK  Name = ZINC05661217
REMARK  7 active torsions:
REMARK  status: ('A' for Active; 'I' for Inactive)
REMARK    1  A    between atoms: C_1  and  O_2
REMARK    2  A    between atoms: O_2  and  C_3
REMARK    3  A    between atoms: C_5  and  C_17
REMARK    4  A    between atoms: C_8  and  O_9
REMARK    5  A    between atoms: O_9  and  C_10
REMARK    6  A    between atoms: C_10  and  C_11
REMARK    7  A    between atoms: N_18  and  N_19
REMARK                            x       y       z     vdW  Elec       q    Type
REMARK                         _______ _______ _______ _____ _____    ______ ____
ROOT
ATOM      1  C   UNL     1      -0.120   3.854  -0.593  0.00  0.00    +0.162 A 
ATOM      2  C   UNL     1      -1.203   3.128  -0.134  0.00  0.00    +0.059 A 
ATOM      3  C   UNL     1      -1.342   1.785  -0.491  0.00  0.00    -0.002 A 
ATOM      4  C   UNL     1      -0.377   1.178  -1.300  0.00  0.00    +0.013 A 
ATOM      5  C   UNL     1       0.701   1.908  -1.754  0.00  0.00    +0.050 A 
ATOM      6  C   UNL     1       0.835   3.244  -1.404  0.00  0.00    +0.162 A 
ENDROOT
BRANCH   1   8
ATOM      7  C   UNL     1      -1.000   5.725   0.583  0.00  0.00    +0.277 C 
ATOM      8  O   UNL     1       0.015   5.164  -0.252  0.00  0.00    -0.491 OA
ENDBRANCH   1   8
BRANCH   3   9
ATOM      9  C   UNL     1      -2.499   1.008  -0.011  0.00  0.00    +0.143 C 
ATOM     10  N   UNL     1      -2.487  -0.288  -0.087  0.00  0.00    -0.155 NA
BRANCH  10  11
ATOM     11  N   UNL     1      -1.267  -0.978  -0.097  0.00  0.00    -0.124 NA
ATOM     12  C   UNL     1      -1.247  -2.346  -0.313  0.00  0.00    +0.192 A 
ATOM     13  N   UNL     1      -2.259  -3.168  -0.521  0.00  0.00    -0.339 N 
ATOM     14  C   UNL     1      -2.063  -4.457  -0.715  0.00  0.00    +0.092 A 
ATOM     15  C   UNL     1      -0.792  -4.929  -0.686  0.00  0.00    +0.066 A 
ATOM     16  S   UNL     1       0.115  -3.422  -0.372  0.00  0.00    -0.057 S 
ATOM     17  H   UNL     1      -3.289  -2.780  -0.535  0.00  0.00    +0.167 HD
ENDBRANCH  10  11
ENDBRANCH   3   9
BRANCH   6  18
ATOM     18  O   UNL     1       1.900   3.959  -1.853  0.00  0.00    -0.484 OA
BRANCH  18  19
ATOM     19  C   UNL     1       2.840   3.272  -2.681  0.00  0.00    +0.264 C 
BRANCH  19  20
ATOM     20  C   UNL     1       3.944   4.218  -3.080  0.00  0.00    -0.010 A 
ATOM     21  C   UNL     1       3.829   4.964  -4.238  0.00  0.00    +0.007 A 
ATOM     22  C   UNL     1       4.839   5.835  -4.601  0.00  0.00    +0.000 A 
ATOM     23  C   UNL     1       5.968   5.952  -3.812  0.00  0.00    +0.000 A 
ATOM     24  C   UNL     1       6.085   5.202  -2.657  0.00  0.00    +0.000 A 
ATOM     25  C   UNL     1       5.073   4.335  -2.291  0.00  0.00    +0.007 A 
ENDBRANCH  19  20
ENDBRANCH  18  19
ENDBRANCH   6  18
TORSDOF 6
