REMARK  Name = ZINC25250166
REMARK  9 active torsions:
REMARK  status: ('A' for Active; 'I' for Inactive)
REMARK    1  A    between atoms: C_1  and  C_2
REMARK    2  A    between atoms: C_3  and  C_14
REMARK    3  A    between atoms: C_4  and  C_13
REMARK    4  A    between atoms: N_5  and  C_7
REMARK    5  A    between atoms: C_14  and  N_15
REMARK    6  A    between atoms: N_15  and  C_16
REMARK    7  A    between atoms: C_17  and  C_19
REMARK    8  A    between atoms: C_19  and  C_20
REMARK    9  A    between atoms: C_20  and  N_21
REMARK                            x       y       z     vdW  Elec       q    Type
REMARK                         _______ _______ _______ _____ _____    ______ ____
ROOT
ATOM      1  N   UNL     1       2.547   7.083   1.988  0.00  0.00    -0.300 N 
ATOM      2  C   UNL     1       3.479   6.556   2.989  0.00  0.00    +0.132 C 
ATOM      3  C   UNL     1       1.594   7.963   2.353  0.00  0.00    +0.217 C 
ATOM      4  O   UNL     1       0.823   8.399   1.525  0.00  0.00    -0.276 OA
ENDROOT
BRANCH   1   5
ATOM      5  C   UNL     1       2.652   6.653   0.592  0.00  0.00    +0.146 C 
BRANCH   5   8
ATOM      6  C   UNL     1       3.935   3.756   0.648  0.00  0.00    +0.068 C 
ATOM      7  C   UNL     1       2.478   4.074   0.434  0.00  0.00    +0.065 A 
ATOM      8  C   UNL     1       1.912   5.353   0.409  0.00  0.00    +0.014 A 
ATOM      9  C   UNL     1       0.584   5.217   0.187  0.00  0.00    +0.047 A 
ATOM     10  N   UNL     1       0.317   3.896   0.083  0.00  0.00    -0.236 N 
ATOM     11  N   UNL     1       1.523   3.200   0.239  0.00  0.00    -0.171 NA
ATOM     12  C   UNL     1      -0.418   6.338   0.079  0.00  0.00    +0.066 C 
BRANCH  10  13
ATOM     13  C   UNL     1      -0.942   3.324  -0.145  0.00  0.00    +0.066 A 
ATOM     14  C   UNL     1      -1.055   2.177  -0.920  0.00  0.00    +0.028 A 
ATOM     15  C   UNL     1      -2.297   1.616  -1.143  0.00  0.00    +0.002 A 
ATOM     16  C   UNL     1      -3.427   2.194  -0.596  0.00  0.00    +0.000 A 
ATOM     17  C   UNL     1      -3.318   3.336   0.176  0.00  0.00    +0.002 A 
ATOM     18  C   UNL     1      -2.079   3.903   0.403  0.00  0.00    +0.028 A 
ENDBRANCH  10  13
ENDBRANCH   5   8
ENDBRANCH   1   5
BRANCH   3  19
ATOM     19  C   UNL     1       1.486   8.405   3.789  0.00  0.00    +0.115 C 
BRANCH  19  20
ATOM     20  C   UNL     1       0.331   9.398   3.932  0.00  0.00    +0.127 C 
BRANCH  20  21
ATOM     21  N   UNL     1       0.226   9.827   5.329  0.00  0.00    -0.224 N 
ATOM     22  C   UNL     1       0.873  10.895   5.846  0.00  0.00    +0.247 C 
ATOM     23  O   UNL     1       1.621  11.652   5.267  0.00  0.00    -0.273 OA
ATOM     24  C   UNL     1       0.464  10.943   7.296  0.00  0.00    +0.113 C 
ATOM     25  C   UNL     1      -0.240  12.266   7.626  0.00  0.00    +0.035 C 
ATOM     26  C   UNL     1       0.207  12.576   9.078  0.00  0.00    +0.003 C 
ATOM     27  C   UNL     1       1.682  12.100   9.094  0.00  0.00    +0.003 C 
ATOM     28  C   UNL     1       1.678  10.826   8.220  0.00  0.00    +0.035 C 
ATOM     29  N   UNL     1      -0.444   9.806   7.459  0.00  0.00    -0.285 N 
ATOM     30  C   UNL     1      -0.527   9.214   6.251  0.00  0.00    +0.309 C 
ATOM     31  O   UNL     1      -1.206   8.232   6.025  0.00  0.00    -0.252 OA
ATOM     32  H   UNL     1      -0.895   9.599   8.441  0.00  0.00    +0.151 HD
ENDBRANCH  20  21
ENDBRANCH  19  20
ENDBRANCH   3  19
TORSDOF 6
