REMARK  Name = ZINC30802646
REMARK  6 active torsions:
REMARK  status: ('A' for Active; 'I' for Inactive)
REMARK    1  A    between atoms: C_4  and  N_26
REMARK    2  A    between atoms: C_5  and  C_7
REMARK    3  A    between atoms: N_9  and  N_10
REMARK    4  A    between atoms: C_11  and  C_12
REMARK    5  A    between atoms: N_16  and  C_17
REMARK    6  A    between atoms: C_20  and  N_23
REMARK                            x       y       z     vdW  Elec       q    Type
REMARK                         _______ _______ _______ _____ _____    ______ ____
ROOT
ATOM      1  N   UNL     1      -0.693   7.053   0.114  0.00  0.00    -0.186 NA
ATOM      2  C   UNL     1      -1.778   7.799   0.359  0.00  0.00    +0.156 C 
ENDROOT
BRANCH   2   3
ATOM      3  C   UNL     1      -2.992   7.190   0.608  0.00  0.00    +0.066 A 
ATOM      4  C   UNL     1      -3.224   5.755   0.873  0.00  0.00    +0.029 A 
ATOM      5  C   UNL     1      -4.562   5.615   1.064  0.00  0.00    +0.020 A 
ATOM      6  C   UNL     1      -5.167   6.871   0.923  0.00  0.00    +0.092 A 
ATOM      7  N   UNL     1      -4.237   7.805   0.653  0.00  0.00    -0.315 N 
BRANCH   7   8
ATOM      8  C   UNL     1      -4.484   9.168   0.451  0.00  0.00    +0.047 A 
ATOM      9  C   UNL     1      -3.747  10.119   1.145  0.00  0.00    +0.028 A 
ATOM     10  C   UNL     1      -3.989  11.463   0.941  0.00  0.00    +0.035 A 
ATOM     11  C   UNL     1      -4.971  11.863   0.052  0.00  0.00    +0.126 A 
ATOM     12  C   UNL     1      -5.709  10.919  -0.637  0.00  0.00    +0.035 A 
ATOM     13  C   UNL     1      -5.469   9.573  -0.441  0.00  0.00    +0.028 A 
BRANCH  11  14
ATOM     14  N   UNL     1      -5.231  13.304  -0.161  0.00  0.00    +0.056 N 
ATOM     15  O   UNL     1      -6.166  13.686  -1.006  0.00  0.00    -0.126 OA
ATOM     16  O   UNL     1      -4.529  14.204   0.496  0.00  0.00    -0.126 OA
ENDBRANCH  11  14
ENDBRANCH   7   8
ENDBRANCH   2   3
BRANCH   1  19
ATOM     17  C   UNL     1       0.265   5.025  -0.317  0.00  0.00    +0.265 C 
ATOM     18  O   UNL     1       1.358   5.456  -0.009  0.00  0.00    -0.268 OA
ATOM     19  N   UNL     1      -0.824   5.813  -0.215  0.00  0.00    -0.203 N 
ATOM     20  H   UNL     1      -1.823   5.398  -0.411  0.00  0.00    +0.178 HD
BRANCH  17  25
ATOM     21  C   UNL     1      -1.213   1.676  -1.143  0.00  0.00    +0.001 A 
ATOM     22  C   UNL     1      -0.128   1.034  -1.718  0.00  0.00    +0.002 A 
ATOM     23  C   UNL     1       1.083   1.684  -1.846  0.00  0.00    +0.027 A 
ATOM     24  C   UNL     1       1.224   2.988  -1.392  0.00  0.00    +0.058 A 
ATOM     25  C   UNL     1       0.129   3.640  -0.803  0.00  0.00    +0.062 A 
ATOM     26  C   UNL     1      -1.091   2.969  -0.681  0.00  0.00    +0.015 A 
BRANCH  24  27
ATOM     27  N   UNL     1       2.448   3.647  -1.519  0.00  0.00    -0.322 N 
ATOM     28  C   UNL     1       2.659   4.810  -2.205  0.00  0.00    +0.091 A 
ATOM     29  C   UNL     1       3.963   5.132  -2.095  0.00  0.00    +0.019 A 
ATOM     30  C   UNL     1       4.584   4.128  -1.323  0.00  0.00    +0.019 A 
ATOM     31  C   UNL     1       3.635   3.233  -0.984  0.00  0.00    +0.091 A 
ENDBRANCH  24  27
ENDBRANCH  17  25
ENDBRANCH   1  19
TORSDOF 6
