REMARK  Name = ZINC12570416
REMARK  12 active torsions:
REMARK  status: ('A' for Active; 'I' for Inactive)
REMARK    1  A    between atoms: C_1  and  C_2
REMARK    2  A    between atoms: C_5  and  N_9
REMARK    3  A    between atoms: C_6  and  C_8
REMARK    4  A    between atoms: C_10  and  C_12
REMARK    5  A    between atoms: C_12  and  C_13
REMARK    6  A    between atoms: C_13  and  C_14
REMARK    7  A    between atoms: N_16  and  N_17
REMARK    8  A    between atoms: N_17  and  C_18
REMARK    9  A    between atoms: C_18  and  N_20
REMARK   10  A    between atoms: C_21  and  C_23
REMARK   11  A    between atoms: C_26  and  O_30
REMARK   12  A    between atoms: O_30  and  C_31
REMARK                            x       y       z     vdW  Elec       q    Type
REMARK                         _______ _______ _______ _____ _____    ______ ____
ROOT
ATOM      1  C   UNL     1       3.751   1.774  -0.053  0.00  0.00    +0.230 C 
ATOM      2  O   UNL     1       3.734   2.986  -0.053  0.00  0.00    -0.274 OA
ATOM      3  N   UNL     1       4.927   1.116  -0.071  0.00  0.00    -0.235 N 
ATOM      4  H   UNL     1       4.941   0.146  -0.071  0.00  0.00    +0.173 HD
ENDROOT
BRANCH   3   5
ATOM      5  N   UNL     1       6.131   1.833  -0.089  0.00  0.00    -0.246 N 
ATOM      6  H   UNL     1       6.117   2.803  -0.089  0.00  0.00    +0.172 HD
BRANCH   5   7
ATOM      7  C   UNL     1       7.307   1.176  -0.107  0.00  0.00    +0.153 C 
ATOM      8  S   UNL     1       8.777   2.052  -0.130  0.00  0.00    -0.017 S 
BRANCH   7   9
ATOM      9  N   UNL     1       7.325  -0.172  -0.107  0.00  0.00    -0.263 N 
ATOM     10  C   UNL     1       8.502  -0.830  -0.125  0.00  0.00    +0.250 C 
ATOM     11  O   UNL     1       9.546  -0.207  -0.141  0.00  0.00    -0.270 OA
ATOM     12  H   UNL     1       6.492  -0.669  -0.094  0.00  0.00    +0.157 HD
BRANCH  10  13
ATOM     13  C   UNL     1       8.522  -2.305  -0.125  0.00  0.00    +0.038 A 
ATOM     14  C   UNL     1       7.323  -3.022  -0.101  0.00  0.00    +0.017 A 
ATOM     15  C   UNL     1       7.346  -4.399  -0.106  0.00  0.00    +0.047 A 
ATOM     16  C   UNL     1       8.559  -5.076  -0.125  0.00  0.00    +0.134 A 
ATOM     17  C   UNL     1       9.755  -4.366  -0.143  0.00  0.00    +0.060 A 
ATOM     18  C   UNL     1       9.741  -2.989  -0.144  0.00  0.00    +0.032 A 
ATOM     19 BR   UNL     1      11.403  -5.294  -0.169  0.00  0.00    -0.046 Br
BRANCH  16  20
ATOM     20  O   UNL     1       8.578  -6.433  -0.125  0.00  0.00    -0.494 OA
ATOM     21  C   UNL     1       7.313  -7.099  -0.106  0.00  0.00    +0.277 C 
ENDBRANCH  16  20
ENDBRANCH  10  13
ENDBRANCH   7   9
ENDBRANCH   5   7
ENDBRANCH   3   5
BRANCH   1  22
ATOM     22  C   UNL     1       2.457   1.002  -0.033  0.00  0.00    +0.106 C 
BRANCH  22  23
ATOM     23  C   UNL     1       1.280   1.980  -0.015  0.00  0.00    +0.105 C 
BRANCH  23  25
ATOM     24  N   UNL     1      -1.191   1.867   0.018  0.00  0.00    -0.285 N 
ATOM     25  C   UNL     1      -0.014   1.209   0.005  0.00  0.00    +0.218 C 
ATOM     26  O   UNL     1       0.003  -0.004   0.005  0.00  0.00    -0.275 OA
ATOM     27  H   UNL     1      -1.205   2.833   0.099  0.00  0.00    +0.155 HD
BRANCH  24  32
ATOM     28  C   UNL     1      -6.057  -1.018  -0.402  0.00  0.00    +0.044 C 
ATOM     29  C   UNL     1      -4.765  -0.252  -0.291  0.00  0.00    -0.050 A 
ATOM     30  C   UNL     1      -3.597  -0.791  -0.800  0.00  0.00    +0.005 A 
ATOM     31  C   UNL     1      -2.411  -0.091  -0.699  0.00  0.00    +0.024 A 
ATOM     32  C   UNL     1      -2.391   1.155  -0.086  0.00  0.00    +0.036 A 
ATOM     33  C   UNL     1      -3.564   1.691   0.428  0.00  0.00    -0.029 A 
ATOM     34  C   UNL     1      -4.748   0.989   0.320  0.00  0.00    +0.008 A 
ATOM     35  C   UNL     1      -3.546   3.040   1.100  0.00  0.00    +0.045 C 
ENDBRANCH  24  32
ENDBRANCH  23  25
ENDBRANCH  22  23
ENDBRANCH   1  22
TORSDOF 9
