REMARK  Name = ZINC19832590
REMARK  8 active torsions:
REMARK  status: ('A' for Active; 'I' for Inactive)
REMARK    1  A    between atoms: C_1  and  C_2
REMARK    2  A    between atoms: C_2  and  C_12
REMARK    3  A    between atoms: C_4  and  O_11
REMARK    4  A    between atoms: C_7  and  C_9
REMARK    5  A    between atoms: C_7  and  C_10
REMARK    6  A    between atoms: C_12  and  N_13
REMARK    7  A    between atoms: N_13  and  C_14
REMARK    8  A    between atoms: N_22  and  C_25
REMARK                            x       y       z     vdW  Elec       q    Type
REMARK                         _______ _______ _______ _____ _____    ______ ____
ROOT
ATOM      1  C   UNL     1       0.684  -0.132  -3.673  0.00  0.00    +0.085 C 
ATOM      2  C   UNL     1      -0.009   0.244  -4.809  0.00  0.00    +0.113 C 
ATOM      3  C   UNL     1      -1.258   1.022  -4.727  0.00  0.00    +0.258 C 
ATOM      4  O   UNL     1      -1.715   1.357  -3.651  0.00  0.00    -0.270 OA
ATOM      5  N   UNL     1      -1.879   1.353  -5.878  0.00  0.00    -0.235 N 
ATOM      6  C   UNL     1      -1.386   0.990  -7.070  0.00  0.00    +0.320 C 
ATOM      7  O   UNL     1      -1.994   1.320  -8.069  0.00  0.00    -0.251 OA
ATOM      8  N   UNL     1      -0.257   0.284  -7.219  0.00  0.00    -0.190 N 
ATOM      9  C   UNL     1       0.473  -0.112  -6.156  0.00  0.00    +0.265 C 
ATOM     10  O   UNL     1       1.499  -0.748  -6.304  0.00  0.00    -0.269 OA
ATOM     11  H   UNL     1      -2.703   1.865  -5.841  0.00  0.00    +0.159 HD
ENDROOT
BRANCH   8  12
ATOM     12  C   UNL     1       0.179  -0.047  -8.510  0.00  0.00    +0.046 A 
ATOM     13  C   UNL     1       0.193  -1.373  -8.920  0.00  0.00    +0.025 A 
ATOM     14  C   UNL     1       0.623  -1.697 -10.193  0.00  0.00    +0.017 A 
ATOM     15  C   UNL     1       1.039  -0.700 -11.057  0.00  0.00    +0.018 A 
ATOM     16  C   UNL     1       1.026   0.622 -10.651  0.00  0.00    +0.017 A 
ATOM     17  C   UNL     1       0.592   0.951  -9.382  0.00  0.00    +0.025 A 
ATOM     18 BR   UNL     1       1.626  -1.147 -12.799  0.00  0.00    -0.050 Br
ENDBRANCH   8  12
BRANCH   1  19
ATOM     19  N   UNL     1       0.151   0.092  -2.455  0.00  0.00    -0.348 N 
ATOM     20  H   UNL     1      -0.683   0.581  -2.372  0.00  0.00    +0.146 HD
BRANCH  19  21
ATOM     21  C   UNL     1       0.831  -0.404  -1.256  0.00  0.00    +0.107 C 
BRANCH  21  23
ATOM     22  C   UNL     1      -0.072   1.513   0.019  0.00  0.00    +0.013 C 
ATOM     23  C   UNL     1       0.014  -0.015  -0.001  0.00  0.00    -0.014 C 
ATOM     24  C   UNL     1      -1.371  -0.628  -0.153  0.00  0.00    +0.039 C 
ATOM     25  C   UNL     1      -2.181  -0.561   1.134  0.00  0.00    +0.116 C 
ATOM     26  C   UNL     1      -1.433  -1.233   2.275  0.00  0.00    +0.037 C 
ATOM     27  C   UNL     1      -0.046  -0.645   2.492  0.00  0.00    -0.032 C 
ATOM     28  C   UNL     1       0.760  -0.537   1.212  0.00  0.00    +0.014 C 
ATOM     29  C   UNL     1       0.715  -1.598   3.445  0.00  0.00    +0.011 C 
ATOM     30  C   UNL     1      -0.142   0.709   3.200  0.00  0.00    +0.011 C 
BRANCH  25  31
ATOM     31  O   UNL     1      -2.540   0.777   1.459  0.00  0.00    -0.392 OA
ATOM     32  H   UNL     1      -3.057   0.860   2.272  0.00  0.00    +0.210 HD
ENDBRANCH  25  31
ENDBRANCH  21  23
ENDBRANCH  19  21
ENDBRANCH   1  19
TORSDOF 5
