REMARK  Name = ZINC06507382
REMARK  8 active torsions:
REMARK  status: ('A' for Active; 'I' for Inactive)
REMARK    1  A    between atoms: C_1  and  C_2
REMARK    2  A    between atoms: C_5  and  N_9
REMARK    3  A    between atoms: C_6  and  C_8
REMARK    4  A    between atoms: N_9  and  C_10
REMARK    5  A    between atoms: C_10  and  N_12
REMARK    6  A    between atoms: N_12  and  N_13
REMARK    7  A    between atoms: N_21  and  C_24
REMARK    8  A    between atoms: C_24  and  O_25
REMARK                            x       y       z     vdW  Elec       q    Type
REMARK                         _______ _______ _______ _____ _____    ______ ____
ROOT
ATOM      1  N   UNL     1      -0.158  -6.184  -1.186  0.00  0.00    -0.217 N 
ATOM      2  H   UNL     1      -0.101  -6.663  -2.028  0.00  0.00    +0.176 HD
ENDROOT
BRANCH   1   3
ATOM      3  N   UNL     1      -0.108  -6.886   0.025  0.00  0.00    -0.175 NA
ATOM      4  C   UNL     1      -0.091  -8.198   0.022  0.00  0.00    +0.153 C 
ATOM      5  C   UNL     1      -0.181  -9.099  -1.151  0.00  0.00    +0.028 A 
ATOM      6  C   UNL     1      -0.305  -8.873  -2.517  0.00  0.00    +0.012 A 
ATOM      7  C   UNL     1      -0.367  -9.945  -3.385  0.00  0.00    +0.001 A 
ATOM      8  C   UNL     1      -0.306 -11.239  -2.895  0.00  0.00    +0.002 A 
ATOM      9  C   UNL     1      -0.184 -11.473  -1.540  0.00  0.00    +0.024 A 
ATOM     10  C   UNL     1      -0.120 -10.406  -0.651  0.00  0.00    +0.048 A 
ATOM     11  N   UNL     1       0.001 -10.363   0.734  0.00  0.00    -0.242 N 
ATOM     12  C   UNL     1       0.030  -9.098   1.185  0.00  0.00    +0.273 C 
ATOM     13  O   UNL     1       0.134  -8.754   2.348  0.00  0.00    -0.268 OA
BRANCH  11  14
ATOM     14  C   UNL     1       0.092 -11.547   1.591  0.00  0.00    +0.272 C 
BRANCH  14  15
ATOM     15  O   UNL     1       1.440 -11.710   2.037  0.00  0.00    -0.377 OA
ATOM     16  H   UNL     1       1.575 -12.476   2.611  0.00  0.00    +0.211 HD
ENDBRANCH  14  15
ENDBRANCH  11  14
ENDBRANCH   1   3
BRANCH   1  17
ATOM     17  C   UNL     1      -0.285  -4.842  -1.182  0.00  0.00    +0.154 C 
ATOM     18  S   UNL     1      -0.345  -3.983  -2.662  0.00  0.00    -0.017 S 
BRANCH  17  19
ATOM     19  N   UNL     1      -0.364  -4.176  -0.013  0.00  0.00    -0.295 N 
ATOM     20  H   UNL     1      -0.257  -4.653   0.825  0.00  0.00    +0.154 HD
BRANCH  19  25
ATOM     21  C   UNL     1      -1.322   1.415   0.006  0.00  0.00    +0.044 C 
ATOM     22  C   UNL     1      -1.067  -0.070   0.001  0.00  0.00    -0.050 A 
ATOM     23  C   UNL     1      -0.102  -0.602  -0.836  0.00  0.00    +0.005 A 
ATOM     24  C   UNL     1       0.133  -1.963  -0.843  0.00  0.00    +0.024 A 
ATOM     25  C   UNL     1      -0.600  -2.797  -0.008  0.00  0.00    +0.036 A 
ATOM     26  C   UNL     1      -1.567  -2.260   0.831  0.00  0.00    -0.029 A 
ATOM     27  C   UNL     1      -1.795  -0.898   0.836  0.00  0.00    +0.008 A 
ATOM     28  C   UNL     1      -2.365  -3.162   1.737  0.00  0.00    +0.045 C 
ENDBRANCH  19  25
ENDBRANCH  17  19
ENDBRANCH   1  17
TORSDOF 6
