REMARK  Name = ZINC22924144
REMARK  17 active torsions:
REMARK  status: ('A' for Active; 'I' for Inactive)
REMARK    1  A    between atoms: C_4  and  C_7
REMARK    2  A    between atoms: C_7  and  O_8
REMARK    3  A    between atoms: O_8  and  C_9
REMARK    4  A    between atoms: C_9  and  C_10
REMARK    5  A    between atoms: C_10  and  C_12
REMARK    6  A    between atoms: C_10  and  O_35
REMARK    7  A    between atoms: C_12  and  N_13
REMARK    8  A    between atoms: N_13  and  C_14
REMARK    9  A    between atoms: C_14  and  C_15
REMARK   10  A    between atoms: C_15  and  N_16
REMARK   11  A    between atoms: N_19  and  C_22
REMARK   12  A    between atoms: C_22  and  C_23
REMARK   13  A    between atoms: C_23  and  C_25
REMARK   14  A    between atoms: C_23  and  O_34
REMARK   15  A    between atoms: C_25  and  O_26
REMARK   16  A    between atoms: O_26  and  C_27
REMARK   17  A    between atoms: C_27  and  C_28
REMARK                            x       y       z     vdW  Elec       q    Type
REMARK                         _______ _______ _______ _____ _____    ______ ____
ROOT
ATOM      1  N   UNL     1      -0.320   1.016  -2.579  0.00  0.00    -0.302 NA
ATOM      2  C   UNL     1       1.020   1.619  -2.587  0.00  0.00    +0.099 C 
ATOM      3  C   UNL     1       1.814   1.074  -3.777  0.00  0.00    +0.100 C 
ATOM      4  N   UNL     1       1.095   1.378  -5.022  0.00  0.00    -0.297 NA
ATOM      5  C   UNL     1      -0.245   0.774  -5.014  0.00  0.00    +0.100 C 
ATOM      6  C   UNL     1      -1.039   1.319  -3.824  0.00  0.00    +0.099 C 
ENDROOT
BRANCH   1   7
ATOM      7  C   UNL     1      -1.088   1.456  -1.407  0.00  0.00    +0.065 C 
BRANCH   7   8
ATOM      8  C   UNL     1      -0.438   0.908  -0.135  0.00  0.00    -0.067 C 
BRANCH   8   9
ATOM      9  N   UNL     1      -1.206   1.349   1.037  0.00  0.00    +0.382 N 
ATOM     10  H   UNL     1      -2.236   0.974   0.945  0.00  0.00    -0.086 HD
ATOM     11  H   UNL     1      -1.216   2.448   1.059  0.00  0.00    -0.086 HD
BRANCH   9  12
ATOM     12  C   UNL     1      -0.609   0.840   2.279  0.00  0.00    -0.049 C 
BRANCH  12  13
ATOM     13  C   UNL     1      -1.434   1.318   3.475  0.00  0.00    +0.123 C 
BRANCH  13  14
ATOM     14  O   UNL     1      -2.739   0.737   3.417  0.00  0.00    -0.391 OA
ATOM     15  H   UNL     1      -3.389   0.930   2.551  0.00  0.00    +0.210 HD
ENDBRANCH  13  14
BRANCH  13  16
ATOM     16  C   UNL     1      -0.745   0.894   4.774  0.00  0.00    +0.189 C 
BRANCH  16  17
ATOM     17  O   UNL     1      -1.452   1.440   5.889  0.00  0.00    -0.373 OA
BRANCH  17  18
ATOM     18  C   UNL     1      -0.887   1.102   7.157  0.00  0.00    +0.195 C 
BRANCH  18  22
ATOM     19  C   UNL     1      -3.215   2.873  10.271  0.00  0.00    +0.000 A 
ATOM     20  C   UNL     1      -3.525   1.606   9.811  0.00  0.00    +0.000 A 
ATOM     21  C   UNL     1      -2.772   1.033   8.803  0.00  0.00    +0.006 A 
ATOM     22  C   UNL     1      -1.709   1.727   8.255  0.00  0.00    -0.022 A 
ATOM     23  C   UNL     1      -1.396   2.991   8.719  0.00  0.00    +0.006 A 
ATOM     24  C   UNL     1      -2.152   3.566   9.723  0.00  0.00    +0.000 A 
ENDBRANCH  18  22
ENDBRANCH  17  18
ENDBRANCH  16  17
ENDBRANCH  13  16
ENDBRANCH  12  13
ENDBRANCH   9  12
ENDBRANCH   8   9
ENDBRANCH   7   8
ENDBRANCH   1   7
BRANCH   4  25
ATOM     25  C   UNL     1       1.863   0.937  -6.195  0.00  0.00    +0.118 C 
BRANCH  25  26
ATOM     26  C   UNL     1       2.353  -0.496  -5.974  0.00  0.00    +0.154 C 
BRANCH  26  27
ATOM     27  O   UNL     1       1.232  -1.381  -5.930  0.00  0.00    -0.388 OA
ATOM     28  H   UNL     1       1.388  -2.459  -5.778  0.00  0.00    +0.210 HD
ENDBRANCH  26  27
BRANCH  26  29
ATOM     29  C   UNL     1       3.277  -0.901  -7.124  0.00  0.00    +0.192 C 
BRANCH  29  30
ATOM     30  O   UNL     1       3.826  -2.194  -6.860  0.00  0.00    -0.373 OA
BRANCH  30  31
ATOM     31  C   UNL     1       4.709  -2.669  -7.879  0.00  0.00    +0.195 C 
BRANCH  31  32
ATOM     32  C   UNL     1       5.226  -4.032  -7.499  0.00  0.00    -0.022 A 
ATOM     33  C   UNL     1       6.392  -4.150  -6.765  0.00  0.00    +0.006 A 
ATOM     34  C   UNL     1       6.863  -5.401  -6.412  0.00  0.00    +0.000 A 
ATOM     35  C   UNL     1       6.175  -6.534  -6.803  0.00  0.00    +0.000 A 
ATOM     36  C   UNL     1       5.013  -6.417  -7.542  0.00  0.00    +0.000 A 
ATOM     37  C   UNL     1       4.539  -5.166  -7.890  0.00  0.00    +0.006 A 
ENDBRANCH  31  32
ENDBRANCH  30  31
ENDBRANCH  29  30
ENDBRANCH  26  29
ENDBRANCH  25  26
ENDBRANCH   4  25
TORSDOF 17
