REMARK  Name = ZINC64600172
REMARK  6 active torsions:
REMARK  status: ('A' for Active; 'I' for Inactive)
REMARK    1  A    between atoms: C_7  and  C_10
REMARK    2  A    between atoms: C_10  and  C_11
REMARK    3  A    between atoms: C_11  and  N_12
REMARK    4  A    between atoms: C_13  and  C_15
REMARK    5  A    between atoms: N_26  and  C_28
REMARK    6  A    between atoms: C_28  and  C_29
REMARK                            x       y       z     vdW  Elec       q    Type
REMARK                         _______ _______ _______ _____ _____    ______ ____
ROOT
ATOM      1  C   UNL     1      -1.752  -6.557  -2.622  0.00  0.00    +0.122 C 
ATOM      2  C   UNL     1      -3.163  -6.144  -2.094  0.00  0.00    +0.155 C 
ATOM      3  C   UNL     1      -3.607  -4.927  -2.914  0.00  0.00    +0.004 C 
ATOM      4  C   UNL     1      -3.921  -5.366  -4.139  0.00  0.00    +0.008 C 
ATOM      5  C   UNL     1      -3.633  -6.823  -4.076  0.00  0.00    +0.116 C 
ATOM      6  C   UNL     1      -2.071  -7.009  -4.058  0.00  0.00    +0.127 C 
ATOM      7  C   UNL     1      -1.933  -8.485  -4.303  0.00  0.00    +0.223 C 
ATOM      8  O   UNL     1      -0.990  -9.167  -3.964  0.00  0.00    -0.275 OA
ATOM      9  N   UNL     1      -3.031  -8.934  -4.962  0.00  0.00    -0.294 N 
ATOM     10  C   UNL     1      -4.042  -7.817  -5.117  0.00  0.00    +0.148 C 
ATOM     11  O   UNL     1      -3.983  -7.207  -2.701  0.00  0.00    -0.359 OA
ENDROOT
BRANCH   1  13
ATOM     12  N   UNL     1      -0.458  -4.798  -1.460  0.00  0.00    -0.315 N 
ATOM     13  C   UNL     1      -0.811  -5.380  -2.623  0.00  0.00    +0.220 C 
ATOM     14  O   UNL     1      -0.371  -4.957  -3.671  0.00  0.00    -0.275 OA
ATOM     15  H   UNL     1      -0.810  -5.136  -0.622  0.00  0.00    +0.149 HD
BRANCH  12  16
ATOM     16  C   UNL     1       0.457  -3.653  -1.462  0.00  0.00    +0.108 C 
BRANCH  16  17
ATOM     17  C   UNL     1       0.691  -3.186  -0.024  0.00  0.00    +0.052 C 
BRANCH  17  24
ATOM     18  C   UNL     1      -0.016   1.348   0.009  0.00  0.00    +0.001 A 
ATOM     19  C   UNL     1       1.166   2.101   0.002  0.00  0.00    +0.002 A 
ATOM     20  C   UNL     1       2.391   1.535  -0.013  0.00  0.00    +0.026 A 
ATOM     21  C   UNL     1       2.529   0.120  -0.022  0.00  0.00    +0.043 A 
ATOM     22  N   UNL     1       3.587  -0.654  -0.037  0.00  0.00    -0.380 N 
ATOM     23  C   UNL     1       3.143  -2.053  -0.041  0.00  0.00    +0.144 C 
ATOM     24  C   UNL     1       1.631  -2.008  -0.025  0.00  0.00    -0.040 C 
ATOM     25  C   UNL     1       1.295  -0.698  -0.014  0.00  0.00    -0.001 A 
ATOM     26  C   UNL     1       0.002  -0.004   0.002  0.00  0.00    +0.010 A 
ATOM     27  H   UNL     1       4.509  -0.353  -0.045  0.00  0.00    +0.160 HD
ENDBRANCH  17  24
ENDBRANCH  16  17
ENDBRANCH  12  16
ENDBRANCH   1  13
BRANCH   9  28
ATOM     28  C   UNL     1      -3.195 -10.297  -5.474  0.00  0.00    +0.143 C 
BRANCH  28  29
ATOM     29  C   UNL     1      -3.831 -11.159  -4.414  0.00  0.00    -0.027 A 
ATOM     30  C   UNL     1      -3.052 -11.845  -3.495  0.00  0.00    +0.025 A 
ATOM     31  C   UNL     1      -3.672 -12.626  -2.538  0.00  0.00    +0.111 A 
ATOM     32  N   UNL     1      -4.986 -12.722  -2.492  0.00  0.00    -0.263 NA
ATOM     33  C   UNL     1      -5.758 -12.083  -3.350  0.00  0.00    +0.111 A 
ATOM     34  C   UNL     1      -5.210 -11.279  -4.331  0.00  0.00    +0.025 A 
ENDBRANCH  28  29
ENDBRANCH   9  28
TORSDOF 6
