REMARK  Name = ZINC62935474
REMARK  5 active torsions:
REMARK  status: ('A' for Active; 'I' for Inactive)
REMARK    1  A    between atoms: C_1  and  C_2
REMARK    2  A    between atoms: C_2  and  C_4
REMARK    3  A    between atoms: C_2  and  N_10
REMARK    4  A    between atoms: C_13  and  C_15
REMARK    5  A    between atoms: C_13  and  C_16
REMARK                            x       y       z     vdW  Elec       q    Type
REMARK                         _______ _______ _______ _____ _____    ______ ____
ROOT
ATOM      1  C   UNL     1      -0.019   1.526   0.010  0.00  0.00    -0.004 C 
ATOM      2  C   UNL     1       0.002  -0.004   0.002  0.00  0.00    +0.017 C 
ENDROOT
BRANCH   2   3
ATOM      3  C   UNL     1       0.707  -0.490  -1.238  0.00  0.00    +0.207 C 
ATOM      4  O   UNL     1       1.704  -1.174  -1.140  0.00  0.00    -0.277 OA
ATOM      5  N   UNL     1       0.231  -0.164  -2.456  0.00  0.00    -0.242 N 
ATOM      6  C   UNL     1       0.862  -0.599  -3.565  0.00  0.00    +0.303 C 
ATOM      7  O   UNL     1       1.860  -1.285  -3.466  0.00  0.00    -0.253 OA
ATOM      8  N   UNL     1       0.385  -0.273  -4.782  0.00  0.00    -0.313 N 
ATOM      9  H   UNL     1      -0.566   0.383  -2.534  0.00  0.00    +0.159 HD
ATOM     10  H   UNL     1      -0.412   0.274  -4.861  0.00  0.00    +0.146 HD
ATOM     11  H   UNL     1       0.839  -0.586  -5.580  0.00  0.00    +0.146 HD
ENDBRANCH   2   3
BRANCH   2  12
ATOM     12  N   UNL     1       0.713  -0.491   1.192  0.00  0.00    +0.388 N 
ATOM     13  C   UNL     1      -0.033  -0.131   2.426  0.00  0.00    -0.077 C 
ATOM     14  C   UNL     1       0.468  -1.132   3.489  0.00  0.00    -0.003 C 
ATOM     15  C   UNL     1       0.980  -2.346   2.687  0.00  0.00    +0.053 C 
ATOM     16  C   UNL     1       0.746  -1.976   1.206  0.00  0.00    -0.060 C 
ATOM     17  C   UNL     1       2.471  -2.566   2.950  0.00  0.00    +0.021 C 
ATOM     18  H   UNL     1       1.649  -0.116   1.222  0.00  0.00    -0.081 HD
BRANCH  15  19
ATOM     19  C   UNL     1       0.196  -3.581   3.048  0.00  0.00    +0.360 C 
ATOM     20  O   UNL     1      -0.681  -3.520   3.893  0.00  0.00    -0.246 OA
ATOM     21  O   UNL     1       0.438  -4.640   2.496  0.00  0.00    -0.246 OA
ENDBRANCH  15  19
ENDBRANCH   2  12
TORSDOF 3
