REMARK  Name = ZINC08724564
REMARK  7 active torsions:
REMARK  status: ('A' for Active; 'I' for Inactive)
REMARK    1  A    between atoms: C_1  and  C_2
REMARK    2  A    between atoms: C_5  and  C_28
REMARK    3  A    between atoms: C_6  and  C_8
REMARK    4  A    between atoms: C_8  and  N_9
REMARK    5  A    between atoms: C_17  and  C_23
REMARK    6  A    between atoms: C_19  and  C_22
REMARK    7  A    between atoms: N_24  and  C_27
REMARK                            x       y       z     vdW  Elec       q    Type
REMARK                         _______ _______ _______ _____ _____    ______ ____
ROOT
ATOM      1  N   UNL     1       3.276   3.502  -1.191  0.00  0.00    -0.255 N 
ATOM      2  C   UNL     1       3.219   4.606  -1.964  0.00  0.00    +0.283 A 
ATOM      3  O   UNL     1       2.669   5.614  -1.555  0.00  0.00    -0.265 OA
ATOM      4  C   UNL     1       3.798   4.584  -3.245  0.00  0.00    +0.153 A 
ATOM      5  C   UNL     1       4.420   3.416  -3.685  0.00  0.00    +0.170 A 
ATOM      6  N   UNL     1       4.888   3.643  -4.917  0.00  0.00    -0.195 NA
ATOM      7  C   UNL     1       4.605   4.867  -5.280  0.00  0.00    +0.219 A 
ATOM      8  N   UNL     1       3.924   5.494  -4.273  0.00  0.00    -0.297 N 
ATOM      9  C   UNL     1       3.454   6.875  -4.367  0.00  0.00    +0.133 C 
ATOM     10  C   UNL     1       4.079   7.540  -5.563  0.00  0.00    +0.056 C 
ATOM     11  N   UNL     1       4.709   6.920  -6.474  0.00  0.00    -0.187 NA
ATOM     12  N   UNL     1       4.899   5.528  -6.458  0.00  0.00    -0.206 N 
ATOM     13  C   UNL     1       3.949   9.036  -5.687  0.00  0.00    +0.064 C 
ATOM     14  C   UNL     1       1.931   6.886  -4.517  0.00  0.00    +0.037 C 
ATOM     15  N   UNL     1       4.446   2.316  -2.845  0.00  0.00    -0.279 N 
ATOM     16  C   UNL     1       3.883   2.384  -1.624  0.00  0.00    +0.334 A 
ATOM     17  O   UNL     1       3.919   1.409  -0.898  0.00  0.00    -0.246 OA
ATOM     18  C   UNL     1       5.094   1.077  -3.283  0.00  0.00    +0.155 C 
ATOM     19  H   UNL     1       5.222   5.052  -7.239  0.00  0.00    +0.177 HD
ENDROOT
BRANCH   1  20
ATOM     20  C   UNL     1       2.673   3.525   0.144  0.00  0.00    +0.165 C 
BRANCH  20  26
ATOM     21  C   UNL     1      -1.236   2.006  -2.588  0.00  0.00    +0.044 C 
ATOM     22  C   UNL     1      -0.619   2.305  -1.246  0.00  0.00    -0.050 A 
ATOM     23  C   UNL     1      -1.355   2.121  -0.090  0.00  0.00    +0.003 A 
ATOM     24  C   UNL     1      -0.791   2.401   1.140  0.00  0.00    +0.004 A 
ATOM     25  C   UNL     1       0.513   2.853   1.216  0.00  0.00    -0.046 A 
ATOM     26  C   UNL     1       1.251   3.031   0.061  0.00  0.00    -0.024 A 
ATOM     27  C   UNL     1       0.685   2.757  -1.170  0.00  0.00    +0.009 A 
ATOM     28  C   UNL     1       1.130   3.152   2.558  0.00  0.00    +0.044 C 
ENDBRANCH  20  26
ENDBRANCH   1  20
TORSDOF 2
