REMARK  Name = ZINC06572760
REMARK  8 active torsions:
REMARK  status: ('A' for Active; 'I' for Inactive)
REMARK    1  A    between atoms: C_1  and  C_2
REMARK    2  A    between atoms: C_5  and  N_9
REMARK    3  A    between atoms: C_6  and  C_8
REMARK    4  A    between atoms: N_9  and  C_10
REMARK    5  A    between atoms: C_10  and  N_12
REMARK    6  A    between atoms: N_12  and  N_13
REMARK    7  A    between atoms: C_14  and  C_16
REMARK    8  A    between atoms: C_19  and  N_22
REMARK                            x       y       z     vdW  Elec       q    Type
REMARK                         _______ _______ _______ _____ _____    ______ ____
ROOT
ATOM      1  N   UNL     1      -0.122  -6.184  -1.187  0.00  0.00    -0.245 N 
ATOM      2  H   UNL     1      -0.193  -6.665  -2.026  0.00  0.00    +0.172 HD
ENDROOT
BRANCH   1   3
ATOM      3  N   UNL     1      -0.106  -6.886   0.025  0.00  0.00    -0.231 N 
ATOM      4  C   UNL     1      -0.190  -8.232   0.024  0.00  0.00    +0.260 C 
ATOM      5  O   UNL     1      -0.279  -8.835  -1.027  0.00  0.00    -0.269 OA
ATOM      6  H   UNL     1      -0.035  -6.405   0.864  0.00  0.00    +0.173 HD
BRANCH   4   7
ATOM      7  C   UNL     1      -0.173  -8.974   1.303  0.00  0.00    +0.038 A 
ATOM      8  C   UNL     1      -0.077  -8.284   2.513  0.00  0.00    +0.015 A 
ATOM      9  C   UNL     1      -0.062  -8.982   3.702  0.00  0.00    +0.033 A 
ATOM     10  C   UNL     1      -0.142 -10.363   3.698  0.00  0.00    +0.126 A 
ATOM     11  C   UNL     1      -0.237 -11.053   2.503  0.00  0.00    +0.033 A 
ATOM     12  C   UNL     1      -0.259 -10.367   1.306  0.00  0.00    +0.015 A 
BRANCH  10  13
ATOM     13  N   UNL     1      -0.125 -11.106   4.979  0.00  0.00    +0.056 N 
ATOM     14  O   UNL     1      -0.042 -10.506   6.025  0.00  0.00    -0.126 OA
ATOM     15  O   UNL     1      -0.195 -12.313   4.978  0.00  0.00    -0.126 OA
ENDBRANCH  10  13
ENDBRANCH   4   7
ENDBRANCH   1   3
BRANCH   1  16
ATOM     16  C   UNL     1      -0.039  -4.838  -1.187  0.00  0.00    +0.151 C 
ATOM     17  S   UNL     1      -0.058  -3.979  -2.668  0.00  0.00    -0.017 S 
BRANCH  16  18
ATOM     18  N   UNL     1       0.059  -4.169  -0.021  0.00  0.00    -0.296 N 
ATOM     19  H   UNL     1       0.134  -4.658   0.814  0.00  0.00    +0.154 HD
BRANCH  18  24
ATOM     20  C   UNL     1       0.038   1.503   0.005  0.00  0.00    +0.044 C 
ATOM     21  C   UNL     1       0.044  -0.004  -0.002  0.00  0.00    -0.050 A 
ATOM     22  C   UNL     1       0.855  -0.687  -0.890  0.00  0.00    +0.005 A 
ATOM     23  C   UNL     1       0.863  -2.068  -0.898  0.00  0.00    +0.024 A 
ATOM     24  C   UNL     1       0.054  -2.771  -0.015  0.00  0.00    +0.036 A 
ATOM     25  C   UNL     1      -0.759  -2.082   0.875  0.00  0.00    -0.029 A 
ATOM     26  C   UNL     1      -0.758  -0.700   0.882  0.00  0.00    +0.008 A 
ATOM     27  C   UNL     1      -1.638  -2.840   1.836  0.00  0.00    +0.045 C 
ENDBRANCH  18  24
ENDBRANCH  16  18
ENDBRANCH   1  16
TORSDOF 6
