REMARK  Name = ZINC64383654
REMARK  3 active torsions:
REMARK  status: ('A' for Active; 'I' for Inactive)
REMARK    1  A    between atoms: C_3  and  C_6
REMARK    2  A    between atoms: C_8  and  C_12
REMARK    3  A    between atoms: C_15  and  C_18
REMARK                            x       y       z     vdW  Elec       q    Type
REMARK                         _______ _______ _______ _____ _____    ______ ____
ROOT
ATOM      1  C   UNL     1       6.500  -0.474   1.186  0.00  0.00    +0.322 C 
ATOM      2  N   UNL     1       7.873   0.055   1.190  0.00  0.00    -0.287 N 
ATOM      3  C   UNL     1       7.995   0.841   2.324  0.00  0.00    +0.175 C 
ATOM      4  N   UNL     1       6.890   0.859   3.002  0.00  0.00    -0.066 NA
ATOM      5  O   UNL     1       5.898   0.066   2.373  0.00  0.00    -0.367 OA
ATOM      6  H   UNL     1       8.559  -0.113   0.527  0.00  0.00    +0.151 HD
ENDROOT
BRANCH   1   9
ATOM      7  C   UNL     1       3.574   0.619  -0.029  0.00  0.00    +0.126 C 
ATOM      8  C   UNL     1       4.318  -0.508  -0.048  0.00  0.00    +0.040 C 
ATOM      9  C   UNL     1       5.748   0.002  -0.058  0.00  0.00    +0.215 C 
ATOM     10  N   UNL     1       5.584   1.465  -0.043  0.00  0.00    -0.174 NA
ATOM     11  N   UNL     1       4.377   1.716  -0.033  0.00  0.00    -0.150 NA
BRANCH   7  14
ATOM     12  C   UNL     1      -0.016   1.343   0.009  0.00  0.00    +0.042 A 
ATOM     13  C   UNL     1       1.325   1.774  -0.001  0.00  0.00    +0.051 A 
ATOM     14  C   UNL     1       2.097   0.654  -0.014  0.00  0.00    +0.154 A 
ATOM     15  O   UNL     1       1.280  -0.417  -0.012  0.00  0.00    -0.461 OA
ATOM     16  C   UNL     1       0.002  -0.004   0.002  0.00  0.00    +0.196 A 
ENDBRANCH   7  14
ENDBRANCH   1   9
BRANCH   3  17
ATOM     17  C   UNL     1       9.220   1.561   2.709  0.00  0.00    +0.055 A 
ATOM     18  C   UNL     1       9.448   2.356   3.805  0.00  0.00    +0.019 A 
ATOM     19  C   UNL     1      10.687   2.931   3.957  0.00  0.00    +0.008 A 
ATOM     20  C   UNL     1      11.646   2.698   3.022  0.00  0.00    +0.046 A 
ATOM     21  S   UNL     1      10.798   1.622   1.877  0.00  0.00    -0.094 S 
ENDBRANCH   3  17
TORSDOF 3
