REMARK  Name = ZINC54219807
REMARK  6 active torsions:
REMARK  status: ('A' for Active; 'I' for Inactive)
REMARK    1  A    between atoms: C_1  and  C_2
REMARK    2  A    between atoms: C_3  and  C_28
REMARK    3  A    between atoms: C_4  and  C_21
REMARK    4  A    between atoms: C_9  and  S_11
REMARK    5  A    between atoms: S_11  and  C_12
REMARK    6  A    between atoms: C_12  and  C_13
REMARK                            x       y       z     vdW  Elec       q    Type
REMARK                         _______ _______ _______ _____ _____    ______ ____
ROOT
ATOM      1  C   UNL     1      -0.719   0.588  -1.237  0.00  0.00    +0.062 C 
ATOM      2  C   UNL     1      -1.028   1.851  -1.998  0.00  0.00    +0.034 C 
ATOM      3  C   UNL     1      -0.646   3.170  -1.388  0.00  0.00    +0.148 C 
ATOM      4  C   UNL     1      -0.272   4.194  -2.467  0.00  0.00    +0.158 C 
ATOM      5  N   UNL     1      -1.234   4.067  -3.562  0.00  0.00    -0.220 N 
ATOM      6  C   UNL     1      -1.843   2.890  -3.869  0.00  0.00    +0.250 A 
ATOM      7  N   UNL     1      -2.625   3.101  -4.897  0.00  0.00    -0.184 NA
ATOM      8  C   UNL     1      -2.549   4.386  -5.263  0.00  0.00    +0.211 A 
ATOM      9  N   UNL     1      -1.707   5.013  -4.466  0.00  0.00    -0.141 NA
ATOM     10  N   UNL     1      -1.605   1.753  -3.151  0.00  0.00    -0.220 NA
ENDROOT
BRANCH   4  11
ATOM     11  C   UNL     1      -0.334   5.585  -1.891  0.00  0.00    -0.019 A 
ATOM     12  C   UNL     1      -0.152   5.781  -0.535  0.00  0.00    +0.006 A 
ATOM     13  C   UNL     1      -0.209   7.056  -0.005  0.00  0.00    +0.003 A 
ATOM     14  C   UNL     1      -0.447   8.138  -0.832  0.00  0.00    +0.038 A 
ATOM     15  C   UNL     1      -0.628   7.944  -2.191  0.00  0.00    +0.124 A 
ATOM     16  C   UNL     1      -0.566   6.666  -2.721  0.00  0.00    +0.044 A 
ATOM     17  F   UNL     1      -0.862   9.000  -3.000  0.00  0.00    -0.205 F 
ENDBRANCH   4  11
BRANCH   3  18
ATOM     18  C   UNL     1      -1.808   3.698  -0.588  0.00  0.00    +0.221 C 
ATOM     19  O   UNL     1      -2.706   4.295  -1.143  0.00  0.00    -0.275 OA
ATOM     20  N   UNL     1      -1.849   3.508   0.746  0.00  0.00    -0.329 N 
ATOM     21  H   UNL     1      -1.131   3.031   1.190  0.00  0.00    +0.145 HD
ATOM     22  H   UNL     1      -2.597   3.848   1.262  0.00  0.00    +0.145 HD
ENDBRANCH   3  18
BRANCH   8  23
ATOM     23  S   UNL     1      -3.433   5.122  -6.598  0.00  0.00    -0.080 S 
BRANCH  23  24
ATOM     24  C   UNL     1      -4.405   3.755  -7.287  0.00  0.00    +0.115 C 
BRANCH  24  25
ATOM     25  C   UNL     1      -5.219   4.255  -8.453  0.00  0.00    -0.002 A 
ATOM     26  C   UNL     1      -6.491   4.755  -8.244  0.00  0.00    +0.007 A 
ATOM     27  C   UNL     1      -7.237   5.214  -9.313  0.00  0.00    +0.000 A 
ATOM     28  C   UNL     1      -6.714   5.174 -10.592  0.00  0.00    +0.003 A 
ATOM     29  C   UNL     1      -5.442   4.675 -10.803  0.00  0.00    +0.038 A 
ATOM     30  C   UNL     1      -4.691   4.220  -9.732  0.00  0.00    +0.127 A 
ATOM     31  F   UNL     1      -3.447   3.736  -9.937  0.00  0.00    -0.205 F 
ENDBRANCH  24  25
ENDBRANCH  23  24
ENDBRANCH   8  23
TORSDOF 5
