REMARK  Name = ZINC45245723
REMARK  9 active torsions:
REMARK  status: ('A' for Active; 'I' for Inactive)
REMARK    1  A    between atoms: C_1  and  C_2
REMARK    2  A    between atoms: C_2  and  O_3
REMARK    3  A    between atoms: O_3  and  C_4
REMARK    4  A    between atoms: C_7  and  C_13
REMARK    5  A    between atoms: C_9  and  O_10
REMARK    6  A    between atoms: O_10  and  C_11
REMARK    7  A    between atoms: C_11  and  C_12
REMARK    8  A    between atoms: C_13  and  C_23
REMARK    9  A    between atoms: C_27  and  C_29
REMARK                            x       y       z     vdW  Elec       q    Type
REMARK                         _______ _______ _______ _____ _____    ______ ____
ROOT
ATOM      1  C   UNL     1       1.107  -6.044  -1.844  0.00  0.00    +0.168 C 
ATOM      2  C   UNL     1       0.062  -7.128  -1.796  0.00  0.00    +0.114 C 
ATOM      3  N   UNL     1      -0.427  -7.765  -0.793  0.00  0.00    -0.373 N 
ATOM      4  C   UNL     1      -1.435  -8.806  -1.029  0.00  0.00    +0.115 C 
ATOM      5  C   UNL     1      -2.273  -8.468  -2.263  0.00  0.00    +0.040 C 
ATOM      6  C   UNL     1      -1.354  -8.300  -3.483  0.00  0.00    +0.116 C 
ATOM      7  N   UNL     1      -0.313  -7.328  -3.112  0.00  0.00    -0.261 N 
ATOM      8  C   UNL     1       0.409  -6.507  -3.930  0.00  0.00    +0.182 C 
ATOM      9  N   UNL     1       1.238  -5.744  -3.281  0.00  0.00    -0.232 NA
ATOM     10  N   UNL     1       0.275  -6.489  -5.298  0.00  0.00    -0.331 N 
ATOM     11  H   UNL     1      -0.359  -7.081  -5.731  0.00  0.00    +0.145 HD
ATOM     12  H   UNL     1       0.815  -5.884  -5.831  0.00  0.00    +0.145 HD
ATOM     13  H   UNL     1      -0.134  -7.561   0.108  0.00  0.00    +0.161 HD
ENDROOT
BRANCH   1  17
ATOM     14  C   UNL     1      -0.216  -2.591   0.304  0.00  0.00    +0.162 A 
ATOM     15  C   UNL     1      -0.260  -3.840   0.901  0.00  0.00    +0.050 A 
ATOM     16  C   UNL     1       0.168  -4.955   0.204  0.00  0.00    +0.010 A 
ATOM     17  C   UNL     1       0.641  -4.826  -1.089  0.00  0.00    -0.005 A 
ATOM     18  C   UNL     1       0.688  -3.582  -1.690  0.00  0.00    +0.056 A 
ATOM     19  C   UNL     1       0.255  -2.462  -1.000  0.00  0.00    +0.162 A 
BRANCH  14  20
ATOM     20  O   UNL     1      -0.637  -1.493   0.988  0.00  0.00    -0.489 OA
BRANCH  20  22
ATOM     21  C   UNL     1      -1.535  -0.362   2.925  0.00  0.00    +0.048 C 
ATOM     22  C   UNL     1      -1.107  -1.701   2.321  0.00  0.00    +0.226 C 
ENDBRANCH  20  22
ENDBRANCH  14  20
BRANCH  19  23
ATOM     23  O   UNL     1       0.294  -1.239  -1.592  0.00  0.00    -0.489 OA
BRANCH  23  24
ATOM     24  C   UNL     1       0.789  -1.182  -2.931  0.00  0.00    +0.226 C 
ATOM     25  C   UNL     1       0.759   0.266  -3.426  0.00  0.00    +0.048 C 
ENDBRANCH  23  24
ENDBRANCH  19  23
ENDBRANCH   1  17
BRANCH   1  26
ATOM     26  C   UNL     1       2.416  -6.542  -1.286  0.00  0.00    -0.008 A 
ATOM     27  C   UNL     1       2.472  -7.039   0.004  0.00  0.00    +0.007 A 
ATOM     28  C   UNL     1       3.670  -7.498   0.522  0.00  0.00    +0.001 A 
ATOM     29  C   UNL     1       4.816  -7.462  -0.247  0.00  0.00    +0.008 A 
ATOM     30  C   UNL     1       4.765  -6.963  -1.547  0.00  0.00    -0.013 A 
ATOM     31  C   UNL     1       3.554  -6.507  -2.065  0.00  0.00    +0.015 A 
BRANCH  30  32
ATOM     32  C   UNL     1       5.993  -6.922  -2.377  0.00  0.00    +0.036 A 
ATOM     33  C   UNL     1       7.173  -6.371  -1.873  0.00  0.00    +0.014 A 
ATOM     34  C   UNL     1       8.293  -6.357  -2.688  0.00  0.00    +0.020 A 
ATOM     35  C   UNL     1       8.209  -6.884  -3.963  0.00  0.00    +0.114 A 
ATOM     36  N   UNL     1       7.082  -7.399  -4.415  0.00  0.00    -0.227 NA
ATOM     37  C   UNL     1       5.990  -7.440  -3.674  0.00  0.00    +0.221 A 
ATOM     38  F   UNL     1       4.859  -7.981  -4.177  0.00  0.00    -0.183 F 
ENDBRANCH  30  32
ENDBRANCH   1  26
TORSDOF 7
