REMARK  Name = ZINC06057281
REMARK  3 active torsions:
REMARK  status: ('A' for Active; 'I' for Inactive)
REMARK    1  A    between atoms: C_2  and  N_9
REMARK    2  A    between atoms: C_10  and  C_12
REMARK    3  A    between atoms: C_12  and  C_13
REMARK                            x       y       z     vdW  Elec       q    Type
REMARK                         _______ _______ _______ _____ _____    ______ ____
ROOT
ATOM      1  C   UNL     1      -2.458   0.921  -0.349  0.00  0.00    +0.025 C 
ATOM      2  C   UNL     1      -3.779   1.619  -0.192  0.00  0.00    +0.200 C 
ATOM      3  O   UNL     1      -3.916   2.392   0.732  0.00  0.00    -0.278 OA
ATOM      4  N   UNL     1      -4.812   1.431  -1.020  0.00  0.00    -0.315 N 
ATOM      5  C   UNL     1      -4.726   0.561  -2.197  0.00  0.00    +0.059 C 
ATOM      6  C   UNL     1      -4.472   1.435  -3.429  0.00  0.00    +0.020 C 
ATOM      7  C   UNL     1      -4.310   0.554  -4.667  0.00  0.00    +0.002 C 
ATOM      8  C   UNL     1      -3.110  -0.377  -4.469  0.00  0.00    -0.001 C 
ATOM      9  C   UNL     1      -3.368  -1.271  -3.256  0.00  0.00    -0.014 C 
ATOM     10  C   UNL     1      -3.569  -0.419  -2.010  0.00  0.00    -0.050 C 
ATOM     11  H   UNL     1      -5.648   1.886  -0.835  0.00  0.00    +0.149 HD
ATOM     12  N   UNL     1      -2.347   0.335  -1.694  0.00  0.00    +0.390 N 
ATOM     13  H   UNL     1      -1.538  -0.297  -1.725  0.00  0.00    -0.084 HD
ATOM     14  H   UNL     1      -2.221   1.086  -2.384  0.00  0.00    -0.084 HD
ENDROOT
BRANCH   1  15
ATOM     15  C   UNL     1      -1.326   1.929  -0.142  0.00  0.00    +0.089 C 
BRANCH  15  17
ATOM     16  N   UNL     1       1.143   1.898   0.001  0.00  0.00    -0.285 N 
ATOM     17  C   UNL     1      -0.003   1.208  -0.158  0.00  0.00    +0.216 C 
ATOM     18  O   UNL     1       0.031   0.006  -0.318  0.00  0.00    -0.276 OA
ATOM     19  H   UNL     1       1.123   2.867   0.053  0.00  0.00    +0.155 HD
BRANCH  16  21
ATOM     20  C   UNL     1       3.520   1.795  -0.417  0.00  0.00    +0.043 A 
ATOM     21  C   UNL     1       2.363   1.219   0.092  0.00  0.00    +0.036 A 
ATOM     22  C   UNL     1       2.420  -0.030   0.696  0.00  0.00    +0.043 A 
ATOM     23  C   UNL     1       3.626  -0.702   0.778  0.00  0.00    +0.044 A 
ATOM     24  C   UNL     1       4.777  -0.126   0.270  0.00  0.00    +0.040 A 
ATOM     25  C   UNL     1       4.723   1.121  -0.327  0.00  0.00    +0.044 A 
ATOM     26 CL   UNL     1       6.170   1.841  -0.962  0.00  0.00    -0.083 Cl
ATOM     27 CL   UNL     1       3.697  -2.267   1.527  0.00  0.00    -0.083 Cl
ENDBRANCH  16  21
ENDBRANCH  15  17
ENDBRANCH   1  15
TORSDOF 3
