REMARK  Name = ZINC01752331
REMARK  10 active torsions:
REMARK  status: ('A' for Active; 'I' for Inactive)
REMARK    1  A    between atoms: CG1_1  and  CB_2
REMARK    2  A    between atoms: CB_2  and  CG2_3
REMARK    3  A    between atoms: CB_2  and  CA_4
REMARK    4  A    between atoms: CA_4  and  C_6
REMARK    5  A    between atoms: CA_4  and  N_8
REMARK    6  A    between atoms: C_10  and  CA_12
REMARK    7  A    between atoms: CA_12  and  N_23
REMARK    8  A    between atoms: C_13  and  C_14
REMARK    9  A    between atoms: C_18  and  N_20
REMARK   10  A    between atoms: C_24  and  C_26
REMARK                            x       y       z     vdW  Elec       q    Type
REMARK                         _______ _______ _______ _____ _____    ______ ____
ROOT
ATOM      1  CA  UNL     1      -2.528   1.174  -0.012  0.00  0.00    +0.097 C 
ATOM      2  C   UNL     1      -3.746   1.719  -0.234  0.00  0.00    +0.036 C 
ENDROOT
BRANCH   2   3
ATOM      3  C   UNL     1      -3.925   3.177  -0.152  0.00  0.00    -0.021 A 
ATOM      4  C   UNL     1      -3.033   3.954   0.593  0.00  0.00    +0.008 A 
ATOM      5  C   UNL     1      -3.208   5.320   0.664  0.00  0.00    +0.003 A 
ATOM      6  C   UNL     1      -4.262   5.922  -0.001  0.00  0.00    +0.033 A 
ATOM      7  C   UNL     1      -5.149   5.160  -0.741  0.00  0.00    +0.127 A 
ATOM      8  C   UNL     1      -4.985   3.793  -0.825  0.00  0.00    +0.040 A 
BRANCH   7   9
ATOM      9  N   UNL     1      -6.273   5.814  -1.448  0.00  0.00    +0.056 N 
ATOM     10  O   UNL     1      -6.416   7.021  -1.379  0.00  0.00    -0.126 OA
ATOM     11  O   UNL     1      -7.055   5.144  -2.099  0.00  0.00    -0.126 OA
ENDBRANCH   7   9
ENDBRANCH   2   3
BRANCH   1  14
ATOM     12  N   UNL     1      -1.167  -0.830   0.292  0.00  0.00    -0.297 N 
ATOM     13  H   UNL     1      -0.408  -0.257   0.487  0.00  0.00    +0.150 HD
ATOM     14  C   UNL     1      -2.377  -0.287   0.055  0.00  0.00    +0.259 C 
ATOM     15  O   UNL     1      -3.346  -1.006  -0.103  0.00  0.00    -0.269 OA
BRANCH  12  16
ATOM     16  CA  UNL     1      -0.996  -2.284   0.255  0.00  0.00    +0.189 C 
BRANCH  16  18
ATOM     17  CG1 UNL     1      -2.822  -2.542   1.940  0.00  0.00    +0.009 C 
ATOM     18  CB  UNL     1      -1.365  -2.877   1.616  0.00  0.00    +0.014 C 
ATOM     19  CG2 UNL     1      -1.186  -4.396   1.577  0.00  0.00    +0.009 C 
ENDBRANCH  16  18
BRANCH  16  20
ATOM     20  C   UNL     1       0.440  -2.614  -0.064  0.00  0.00    +0.376 C 
ATOM     21  O   UNL     1       1.239  -1.724  -0.242  0.00  0.00    -0.244 OA
ATOM     22  OXT UNL     1       0.832  -3.894  -0.150  0.00  0.00    -0.244 OA
ENDBRANCH  16  20
ENDBRANCH  12  16
ENDBRANCH   1  14
BRANCH   1  23
ATOM     23  N   UNL     1      -1.412   2.000   0.152  0.00  0.00    -0.277 N 
ATOM     24  C   UNL     1      -0.673   1.917   1.276  0.00  0.00    +0.248 C 
ATOM     25  O   UNL     1      -1.023   1.185   2.182  0.00  0.00    -0.270 OA
ATOM     26  H   UNL     1      -1.170   2.632  -0.542  0.00  0.00    +0.155 HD
BRANCH  24  27
ATOM     27  C   UNL     1       0.567   2.712   1.405  0.00  0.00    +0.037 A 
ATOM     28  C   UNL     1       0.974   3.549   0.365  0.00  0.00    +0.013 A 
ATOM     29  C   UNL     1       2.130   4.292   0.494  0.00  0.00    +0.001 A 
ATOM     30  C   UNL     1       2.889   4.201   1.647  0.00  0.00    +0.000 A 
ATOM     31  C   UNL     1       2.494   3.369   2.680  0.00  0.00    +0.001 A 
ATOM     32  C   UNL     1       1.338   2.625   2.566  0.00  0.00    +0.013 A 
ENDBRANCH  24  27
ENDBRANCH   1  23
TORSDOF 8
