REMARK  Name = ZINC05014680
REMARK  4 active torsions:
REMARK  status: ('A' for Active; 'I' for Inactive)
REMARK    1  A    between atoms: C_1  and  C_2
REMARK    2  A    between atoms: C_6  and  C_11
REMARK    3  A    between atoms: C_6  and  C_17
REMARK    4  A    between atoms: C_8  and  C_10
REMARK                            x       y       z     vdW  Elec       q    Type
REMARK                         _______ _______ _______ _____ _____    ______ ____
ROOT
ATOM      1  C   UNL     1      -1.740   4.247  -2.299  0.00  0.00    +0.008 C 
ATOM      2  C   UNL     1      -0.880   3.410  -1.349  0.00  0.00    -0.011 C 
ATOM      3  C   UNL     1      -0.889   1.950  -1.807  0.00  0.00    +0.005 C 
ATOM      4  C   UNL     1      -0.029   1.113  -0.858  0.00  0.00    +0.028 C 
ATOM      5  C   UNL     1      -0.597   1.206   0.560  0.00  0.00    +0.148 C 
ATOM      6  C   UNL     1      -0.588   2.666   1.018  0.00  0.00    +0.031 C 
ATOM      7  C   UNL     1      -1.448   3.503   0.068  0.00  0.00    -0.010 C 
ATOM      8  C   UNL     1      -2.883   2.974   0.079  0.00  0.00    +0.008 C 
ENDROOT
BRANCH   5   9
ATOM      9  C   UNL     1      -2.010   0.685   0.571  0.00  0.00    +0.237 C 
ATOM     10  O   UNL     1      -2.473   0.166  -0.422  0.00  0.00    -0.274 OA
ATOM     11  N   UNL     1      -2.761   0.796   1.685  0.00  0.00    -0.239 N 
ATOM     12  C   UNL     1      -4.026   0.329   1.694  0.00  0.00    +0.303 C 
ATOM     13  O   UNL     1      -4.489  -0.192   0.699  0.00  0.00    -0.253 OA
ATOM     14  N   UNL     1      -4.777   0.440   2.808  0.00  0.00    -0.313 N 
ATOM     15  H   UNL     1      -2.392   1.211   2.479  0.00  0.00    +0.159 HD
ATOM     16  H   UNL     1      -4.407   0.856   3.603  0.00  0.00    +0.146 HD
ATOM     17  H   UNL     1      -5.686   0.104   2.815  0.00  0.00    +0.146 HD
ENDBRANCH   5   9
BRANCH   5  18
ATOM     18  C   UNL     1       0.250   0.382   1.496  0.00  0.00    +0.371 C 
ATOM     19  O   UNL     1       0.803   0.908   2.432  0.00  0.00    -0.245 OA
ATOM     20  O   UNL     1       0.389  -0.937   1.288  0.00  0.00    -0.245 OA
ENDBRANCH   5  18
TORSDOF 2
