REMARK  Name = ZINC59829722
REMARK  9 active torsions:
REMARK  status: ('A' for Active; 'I' for Inactive)
REMARK    1  A    between atoms: C_1  and  C_2
REMARK    2  A    between atoms: C_2  and  C_26
REMARK    3  A    between atoms: N_3  and  N_4
REMARK    4  A    between atoms: C_8  and  S_11
REMARK    5  A    between atoms: N_9  and  N_10
REMARK    6  A    between atoms: S_11  and  C_12
REMARK    7  A    between atoms: C_12  and  C_13
REMARK    8  A    between atoms: N_15  and  C_16
REMARK    9  A    between atoms: C_31  and  O_32
REMARK                            x       y       z     vdW  Elec       q    Type
REMARK                         _______ _______ _______ _____ _____    ______ ____
ROOT
ATOM      1  N   UNL     1      -0.003   0.033   2.340  0.00  0.00    -0.204 N 
ATOM      2  C   UNL     1       0.022  -0.667   3.538  0.00  0.00    +0.254 A 
ATOM      3  N   UNL     1       0.041  -1.971   3.668  0.00  0.00    -0.109 NA
ATOM      4  N   UNL     1       0.062  -2.269   5.036  0.00  0.00    -0.119 NA
ATOM      5  C   UNL     1       0.055  -1.137   5.698  0.00  0.00    +0.210 A 
ATOM      6  N   UNL     1       0.036  -0.117   4.790  0.00  0.00    -0.211 N 
ATOM      7  H   UNL     1      -0.011   1.003   2.345  0.00  0.00    +0.178 HD
ENDROOT
BRANCH   1  10
ATOM      8  C   UNL     1      -0.051   1.501   0.010  0.00  0.00    +0.068 C 
ATOM      9  C   UNL     1      -0.038  -0.006   0.002  0.00  0.00    +0.067 C 
ATOM     10  N   UNL     1      -0.015  -0.661   1.123  0.00  0.00    -0.184 NA
BRANCH   9  11
ATOM     11  C   UNL     1      -0.051  -0.736  -1.278  0.00  0.00    +0.039 A 
ATOM     12  C   UNL     1      -0.069  -0.035  -2.486  0.00  0.00    +0.013 A 
ATOM     13  C   UNL     1      -0.082  -0.725  -3.680  0.00  0.00    +0.001 A 
ATOM     14  C   UNL     1      -0.076  -2.109  -3.687  0.00  0.00    +0.004 A 
ATOM     15  C   UNL     1      -0.058  -2.814  -2.498  0.00  0.00    +0.046 A 
ATOM     16  C   UNL     1      -0.039  -2.138  -1.290  0.00  0.00    +0.126 A 
BRANCH  16  17
ATOM     17  O   UNL     1      -0.015  -2.829  -0.121  0.00  0.00    -0.506 OA
ATOM     18  H   UNL     1      -0.891  -3.037   0.231  0.00  0.00    +0.292 HD
ENDBRANCH  16  17
ENDBRANCH   9  11
ENDBRANCH   1  10
BRANCH   6  19
ATOM     19  N   UNL     1       0.029   1.218   5.080  0.00  0.00    -0.294 N 
ATOM     20  H   UNL     1      -0.915   1.563   5.172  0.00  0.00    +0.163 HD
ATOM     21  H   UNL     1       0.566   1.409   5.913  0.00  0.00    +0.163 HD
ENDBRANCH   6  19
BRANCH   5  22
ATOM     22  S   UNL     1       0.074  -0.962   7.451  0.00  0.00    -0.075 S 
BRANCH  22  23
ATOM     23  C   UNL     1       0.104  -2.669   8.063  0.00  0.00    +0.173 C 
BRANCH  23  24
ATOM     24  C   UNL     1       0.122  -2.663   9.569  0.00  0.00    +0.227 C 
ATOM     25  O   UNL     1       0.115  -1.610  10.172  0.00  0.00    -0.275 OA
ATOM     26  N   UNL     1       0.146  -3.828  10.248  0.00  0.00    -0.285 N 
ATOM     27  H   UNL     1       0.084  -4.669   9.769  0.00  0.00    +0.155 HD
BRANCH  26  28
ATOM     28  C   UNL     1       0.260  -3.822  11.644  0.00  0.00    +0.037 A 
ATOM     29  C   UNL     1       0.984  -4.819  12.285  0.00  0.00    +0.027 A 
ATOM     30  C   UNL     1       1.096  -4.815  13.662  0.00  0.00    +0.051 A 
ATOM     31  C   UNL     1       0.488  -3.816  14.408  0.00  0.00    +0.162 A 
ATOM     32  C   UNL     1      -0.235  -2.816  13.769  0.00  0.00    +0.164 A 
ATOM     33  C   UNL     1      -0.345  -2.818  12.387  0.00  0.00    +0.072 A 
ATOM     34  O   UNL     1      -0.833  -1.823  14.483  0.00  0.00    -0.485 OA
ATOM     35  C   UNL     1      -1.011  -2.056  15.885  0.00  0.00    +0.270 C 
ATOM     36  C   UNL     1       0.303  -2.611  16.451  0.00  0.00    +0.270 C 
ATOM     37  O   UNL     1       0.607  -3.831  15.765  0.00  0.00    -0.485 OA
ENDBRANCH  26  28
ENDBRANCH  23  24
ENDBRANCH  22  23
ENDBRANCH   5  22
TORSDOF 8
