REMARK  Name = ZINC64671048
REMARK  8 active torsions:
REMARK  status: ('A' for Active; 'I' for Inactive)
REMARK    1  A    between atoms: C_1  and  C_2
REMARK    2  A    between atoms: C_4  and  C_24
REMARK    3  A    between atoms: N_6  and  C_13
REMARK    4  A    between atoms: C_13  and  C_14
REMARK    5  A    between atoms: C_14  and  C_15
REMARK    6  A    between atoms: C_27  and  O_32
REMARK    7  A    between atoms: C_28  and  O_30
REMARK    8  A    between atoms: O_30  and  C_31
REMARK                            x       y       z     vdW  Elec       q    Type
REMARK                         _______ _______ _______ _____ _____    ______ ____
ROOT
ATOM      1  C   UNL     1       0.259   1.395  -0.479  0.00  0.00    +0.067 C 
ATOM      2  C   UNL     1       0.120  -0.085  -0.230  0.00  0.00    +0.064 C 
ATOM      3  C   UNL     1      -1.020  -0.721  -0.169  0.00  0.00    +0.013 C 
ATOM      4  C   UNL     1      -2.487  -0.968  -0.431  0.00  0.00    +0.137 C 
ATOM      5  N   UNL     1      -2.490  -2.309  -1.066  0.00  0.00    -0.288 N 
ATOM      6  C   UNL     1      -1.371  -2.992  -0.698  0.00  0.00    +0.247 C 
ATOM      7  O   UNL     1      -1.042  -4.092  -1.088  0.00  0.00    -0.273 OA
ATOM      8  C   UNL     1      -0.621  -2.137   0.278  0.00  0.00    +0.243 C 
ATOM      9  N   UNL     1       0.825  -2.108   0.187  0.00  0.00    -0.170 NA
ATOM     10  N   UNL     1       1.162  -0.935  -0.045  0.00  0.00    -0.158 NA
ENDROOT
BRANCH   4  11
ATOM     11  C   UNL     1      -3.043   0.072  -1.369  0.00  0.00    -0.019 A 
ATOM     12  C   UNL     1      -3.882   1.059  -0.886  0.00  0.00    +0.009 A 
ATOM     13  C   UNL     1      -4.395   2.015  -1.743  0.00  0.00    +0.049 A 
ATOM     14  C   UNL     1      -4.069   1.986  -3.089  0.00  0.00    +0.158 A 
ATOM     15  C   UNL     1      -3.224   0.992  -3.576  0.00  0.00    +0.162 A 
ATOM     16  C   UNL     1      -2.710   0.040  -2.711  0.00  0.00    +0.055 A 
BRANCH  15  17
ATOM     17  O   UNL     1      -2.901   0.959  -4.896  0.00  0.00    -0.491 OA
ATOM     18  C   UNL     1      -2.030  -0.090  -5.325  0.00  0.00    +0.277 C 
ENDBRANCH  15  17
BRANCH  14  19
ATOM     19  O   UNL     1      -4.573   2.925  -3.934  0.00  0.00    -0.503 OA
ATOM     20  H   UNL     1      -4.020   3.714  -4.020  0.00  0.00    +0.292 HD
ENDBRANCH  14  19
ENDBRANCH   4  11
BRANCH   5  21
ATOM     21  C   UNL     1      -3.538  -2.821  -1.953  0.00  0.00    +0.113 C 
BRANCH  21  22
ATOM     22  C   UNL     1      -4.535  -3.649  -1.140  0.00  0.00    +0.052 C 
BRANCH  22  23
ATOM     23  C   UNL     1      -5.570  -4.237  -2.064  0.00  0.00    -0.040 C 
ATOM     24  C   UNL     1      -5.558  -5.471  -2.618  0.00  0.00    -0.001 A 
ATOM     25  C   UNL     1      -4.613  -6.591  -2.531  0.00  0.00    +0.010 A 
ATOM     26  C   UNL     1      -4.877  -7.727  -3.216  0.00  0.00    +0.001 A 
ATOM     27  C   UNL     1      -6.027  -7.861  -4.005  0.00  0.00    +0.002 A 
ATOM     28  C   UNL     1      -6.942  -6.877  -4.135  0.00  0.00    +0.026 A 
ATOM     29  C   UNL     1      -6.765  -5.638  -3.458  0.00  0.00    +0.043 A 
ATOM     30  N   UNL     1      -7.496  -4.550  -3.425  0.00  0.00    -0.380 N 
ATOM     31  C   UNL     1      -6.836  -3.571  -2.554  0.00  0.00    +0.144 C 
ATOM     32  H   UNL     1      -8.334  -4.416  -3.894  0.00  0.00    +0.160 HD
ENDBRANCH  22  23
ENDBRANCH  21  22
ENDBRANCH   5  21
TORSDOF 6
