REMARK  Name = ZINC39295725
REMARK  5 active torsions:
REMARK  status: ('A' for Active; 'I' for Inactive)
REMARK    1  A    between atoms: C_7  and  O_29
REMARK    2  A    between atoms: C_9  and  C_14
REMARK    3  A    between atoms: C_14  and  C_16
REMARK    4  A    between atoms: C_14  and  N_22
REMARK    5  A    between atoms: N_22  and  C_23
REMARK                            x       y       z     vdW  Elec       q    Type
REMARK                         _______ _______ _______ _____ _____    ______ ____
ROOT
ATOM      1  C   UNL     1       2.635  -2.828  -2.030  0.00  0.00    -0.041 C 
ENDROOT
BRANCH   1   9
ATOM      2  C   UNL     1       0.097  -0.216   2.064  0.00  0.00    +0.000 A 
ATOM      3  C   UNL     1       1.037   0.792   1.958  0.00  0.00    +0.002 A 
ATOM      4  C   UNL     1       2.246   0.520   1.342  0.00  0.00    +0.027 A 
ATOM      5  C   UNL     1       2.500  -0.740   0.851  0.00  0.00    +0.094 A 
ATOM      6  C   UNL     1       1.581  -1.770   0.959  0.00  0.00    +0.007 A 
ATOM      7  C   UNL     1       0.360  -1.474   1.575  0.00  0.00    +0.008 A 
ATOM      8  C   UNL     1       2.008  -3.112   0.415  0.00  0.00    +0.169 C 
ATOM      9  C   UNL     1       3.163  -2.975  -0.602  0.00  0.00    +0.155 C 
ATOM     10  S   UNL     1       3.915  -1.407   0.002  0.00  0.00    +0.001 S 
ATOM     11  O   UNL     1       4.176  -0.518  -1.075  0.00  0.00    -0.169 OA
ATOM     12  O   UNL     1       4.886  -1.662   1.007  0.00  0.00    -0.169 OA
BRANCH   8  13
ATOM     13  O   UNL     1       0.893  -3.730  -0.229  0.00  0.00    -0.385 OA
ATOM     14  H   UNL     1       0.144  -3.902   0.359  0.00  0.00    +0.210 HD
ENDBRANCH   8  13
ENDBRANCH   1   9
BRANCH   1  15
ATOM     15  C   UNL     1       3.799  -2.925  -3.018  0.00  0.00    -0.023 C 
ATOM     16  C   UNL     1       4.480  -4.288  -2.871  0.00  0.00    +0.002 C 
ATOM     17  C   UNL     1       5.644  -4.385  -3.858  0.00  0.00    +0.000 C 
ATOM     18  C   UNL     1       6.656  -3.275  -3.565  0.00  0.00    +0.000 C 
ATOM     19  C   UNL     1       5.975  -1.913  -3.712  0.00  0.00    +0.000 C 
ATOM     20  C   UNL     1       4.811  -1.816  -2.725  0.00  0.00    +0.002 C 
ENDBRANCH   1  15
BRANCH   1  21
ATOM     21  N   UNL     1       1.667  -3.898  -2.307  0.00  0.00    +0.384 N 
ATOM     22  H   UNL     1       1.988  -4.758  -1.888  0.00  0.00    -0.085 HD
ATOM     23  H   UNL     1       0.769  -3.649  -1.919  0.00  0.00    -0.085 HD
BRANCH  21  24
ATOM     24  C   UNL     1       1.540  -4.080  -3.759  0.00  0.00    -0.071 C 
ATOM     25  C   UNL     1       0.952  -2.812  -4.382  0.00  0.00    -0.016 C 
ATOM     26  C   UNL     1       0.819  -3.001  -5.894  0.00  0.00    -0.002 C 
ATOM     27  C   UNL     1      -0.105  -4.186  -6.181  0.00  0.00    -0.000 C 
ATOM     28  C   UNL     1       0.482  -5.454  -5.559  0.00  0.00    -0.002 C 
ATOM     29  C   UNL     1       0.615  -5.265  -4.046  0.00  0.00    -0.016 C 
ENDBRANCH  21  24
ENDBRANCH   1  21
TORSDOF 5
