REMARK  Name = ZINC01700363
REMARK  6 active torsions:
REMARK  status: ('A' for Active; 'I' for Inactive)
REMARK    1  A    between atoms: C_5  and  S_8
REMARK    2  A    between atoms: S_8  and  N_11
REMARK    3  A    between atoms: C_16  and  C_19
REMARK    4  A    between atoms: C_19  and  S_20
REMARK    5  A    between atoms: S_20  and  C_21
REMARK    6  A    between atoms: C_21  and  C_22
REMARK                            x       y       z     vdW  Elec       q    Type
REMARK                         _______ _______ _______ _____ _____    ______ ____
ROOT
ATOM      1  C   UNL     1       0.644   4.590  -2.378  0.00  0.00    +0.047 A 
ATOM      2  C   UNL     1       0.316   3.509  -1.562  0.00  0.00    +0.056 A 
ATOM      3  C   UNL     1      -1.004   3.341  -1.164  0.00  0.00    +0.128 A 
ATOM      4  C   UNL     1      -1.982   4.217  -1.586  0.00  0.00    +0.060 A 
ATOM      5  C   UNL     1      -1.650   5.284  -2.401  0.00  0.00    +0.125 A 
ATOM      6  C   UNL     1      -0.336   5.470  -2.792  0.00  0.00    +0.069 A 
ATOM      7 CL   UNL     1       0.083   6.814  -3.808  0.00  0.00    -0.081 Cl
ATOM      8  S   UNL     1      -1.426   2.002  -0.096  0.00  0.00    +0.062 S 
ATOM      9  O   UNL     1      -2.434   1.248  -0.754  0.00  0.00    -0.153 OA
ATOM     10  O   UNL     1      -1.598   2.550   1.204  0.00  0.00    -0.153 OA
ATOM     11  N   UNL     1      -0.059   1.047  -0.044  0.00  0.00    -0.169 NA
ATOM     12  C   UNL     1       1.230   1.767  -0.000  0.00  0.00    +0.169 C 
ATOM     13  N   UNL     1       1.324   2.630  -1.175  0.00  0.00    -0.325 N 
ATOM     14  H   UNL     1      -0.107   0.078  -0.047  0.00  0.00    +0.150 HD
ATOM     15  H   UNL     1       2.130   2.589  -1.713  0.00  0.00    +0.148 HD
ENDROOT
BRANCH   5  16
ATOM     16  S   UNL     1      -2.899   6.404  -2.942  0.00  0.00    +0.057 S 
ATOM     17  O   UNL     1      -2.735   6.548  -4.346  0.00  0.00    -0.153 OA
ATOM     18  O   UNL     1      -4.118   5.965  -2.358  0.00  0.00    -0.153 OA
BRANCH  16  19
ATOM     19  N   UNL     1      -2.557   7.879  -2.271  0.00  0.00    -0.203 NA
ATOM     20  H   UNL     1      -1.780   7.984  -1.700  0.00  0.00    +0.144 HD
ATOM     21  H   UNL     1      -3.134   8.638  -2.450  0.00  0.00    +0.144 HD
ENDBRANCH  16  19
ENDBRANCH   5  16
BRANCH  12  22
ATOM     22  C   UNL     1       1.299   2.618   1.269  0.00  0.00    +0.109 C 
BRANCH  22  23
ATOM     23  S   UNL     1       2.944   3.371   1.404  0.00  0.00    -0.149 S 
BRANCH  23  24
ATOM     24  C   UNL     1       2.862   4.333   2.939  0.00  0.00    +0.182 C 
BRANCH  24  25
ATOM     25  C   UNL     1       4.203   5.030   3.176  0.00  0.00    +0.399 C 
ATOM     26  F   UNL     1       4.481   5.885   2.104  0.00  0.00    -0.170 F 
ATOM     27  F   UNL     1       4.140   5.772   4.360  0.00  0.00    -0.170 F 
ATOM     28  F   UNL     1       5.215   4.069   3.282  0.00  0.00    -0.170 F 
ENDBRANCH  24  25
ENDBRANCH  23  24
ENDBRANCH  22  23
ENDBRANCH  12  22
TORSDOF 6
