REMARK  Name = ZINC36597544
REMARK  17 active torsions:
REMARK  status: ('A' for Active; 'I' for Inactive)
REMARK    1  A    between atoms: C_1  and  C_2
REMARK    2  A    between atoms: C_2  and  C_3
REMARK    3  A    between atoms: C_3  and  C_4
REMARK    4  A    between atoms: C_4  and  N_5
REMARK    5  A    between atoms: C_6  and  C_8
REMARK    6  A    between atoms: C_8  and  C_10
REMARK    7  A    between atoms: C_8  and  N_15
REMARK    8  A    between atoms: C_10  and  C_11
REMARK    9  A    between atoms: C_10  and  C_13
REMARK   10  A    between atoms: C_11  and  C_12
REMARK   11  A    between atoms: C_13  and  C_14
REMARK   12  A    between atoms: N_15  and  C_16
REMARK   13  A    between atoms: C_16  and  C_17
REMARK   14  A    between atoms: C_20  and  C_22
REMARK   15  A    between atoms: C_23  and  C_25
REMARK   16  A    between atoms: C_26  and  O_32
REMARK   17  A    between atoms: C_30  and  O_31
REMARK                            x       y       z     vdW  Elec       q    Type
REMARK                         _______ _______ _______ _____ _____    ______ ____
ROOT
ATOM      1  N   UNL     1       2.416  -7.138  -3.712  0.00  0.00    -0.278 N 
ATOM      2  C   UNL     1       1.427  -7.787  -4.356  0.00  0.00    +0.255 C 
ATOM      3  O   UNL     1       0.600  -7.160  -4.990  0.00  0.00    -0.270 OA
ENDROOT
BRANCH   2   4
ATOM      4  C   UNL     1       1.347  -9.256  -4.292  0.00  0.00    +0.119 A 
ATOM      5  C   UNL     1       0.469  -9.877  -3.392  0.00  0.00    +0.133 A 
ATOM      6  C   UNL     1       0.401 -11.260  -3.340  0.00  0.00    +0.046 A 
ATOM      7  C   UNL     1       1.195 -12.027  -4.172  0.00  0.00    +0.007 A 
ATOM      8  C   UNL     1       2.064 -11.425  -5.063  0.00  0.00    +0.046 A 
ATOM      9  C   UNL     1       2.143 -10.044  -5.136  0.00  0.00    +0.133 A 
BRANCH   9  10
ATOM     10  O   UNL     1       2.992  -9.456  -6.015  0.00  0.00    -0.506 OA
ATOM     11  H   UNL     1       3.902  -9.384  -5.695  0.00  0.00    +0.292 HD
ENDBRANCH   9  10
BRANCH   5  12
ATOM     12  O   UNL     1      -0.311  -9.126  -2.574  0.00  0.00    -0.506 OA
ATOM     13  H   UNL     1      -1.172  -8.900  -2.950  0.00  0.00    +0.292 HD
ENDBRANCH   5  12
ENDBRANCH   2   4
BRANCH   1  14
ATOM     14  C   UNL     1       2.427  -5.673  -3.673  0.00  0.00    +0.166 C 
BRANCH  14  16
ATOM     15  N   UNL     1       1.243  -4.392  -1.920  0.00  0.00    -0.314 N 
ATOM     16  C   UNL     1       2.264  -5.207  -2.249  0.00  0.00    +0.234 C 
ATOM     17  O   UNL     1       3.052  -5.566  -1.400  0.00  0.00    -0.274 OA
ATOM     18  H   UNL     1       0.656  -4.046  -2.610  0.00  0.00    +0.149 HD
BRANCH  15  19
ATOM     19  C   UNL     1       1.019  -4.028  -0.518  0.00  0.00    +0.104 C 
BRANCH  19  20
ATOM     20  C   UNL     1      -0.194  -3.100  -0.420  0.00  0.00    +0.018 C 
BRANCH  20  22
ATOM     21  C   UNL     1      -1.641  -1.793   1.142  0.00  0.00    +0.004 C 
ATOM     22  C   UNL     1      -0.428  -2.720   1.043  0.00  0.00    -0.002 C 
ENDBRANCH  20  22
ENDBRANCH  19  20
ENDBRANCH  15  19
ENDBRANCH  14  16
BRANCH  14  23
ATOM     23  C   UNL     1       3.756  -5.158  -4.229  0.00  0.00    +0.018 C 
BRANCH  23  24
ATOM     24  C   UNL     1       3.887  -5.567  -5.698  0.00  0.00    +0.002 C 
ATOM     25  C   UNL     1       4.061  -7.084  -5.792  0.00  0.00    +0.004 C 
ENDBRANCH  23  24
BRANCH  23  26
ATOM     26  C   UNL     1       3.799  -3.633  -4.118  0.00  0.00    +0.002 C 
ATOM     27  C   UNL     1       3.997  -3.233  -2.655  0.00  0.00    +0.004 C 
ENDBRANCH  23  26
ENDBRANCH  14  23
ENDBRANCH   1  14
BRANCH   1  28
ATOM     28  C   UNL     1       3.481  -7.896  -3.050  0.00  0.00    +0.183 C 
BRANCH  28  29
ATOM     29  C   UNL     1       3.007  -8.345  -1.692  0.00  0.00    +0.122 A 
ATOM     30  C   UNL     1       2.465  -9.542  -1.404  0.00  0.00    +0.046 A 
ATOM     31  C   UNL     1       2.169  -9.536  -0.021  0.00  0.00    +0.045 A 
ATOM     32  C   UNL     1       2.549  -8.336   0.453  0.00  0.00    +0.102 A 
ATOM     33  O   UNL     1       3.061  -7.621  -0.562  0.00  0.00    -0.463 OA
ATOM     34  C   UNL     1       2.425  -7.874   1.882  0.00  0.00    +0.086 C 
ENDBRANCH  28  29
ENDBRANCH   1  28
TORSDOF 13
