REMARK  Name = ZINC04866364
REMARK  9 active torsions:
REMARK  status: ('A' for Active; 'I' for Inactive)
REMARK    1  A    between atoms: C_1  and  C_2
REMARK    2  A    between atoms: C_2  and  O_3
REMARK    3  A    between atoms: O_3  and  C_4
REMARK    4  A    between atoms: C_7  and  C_13
REMARK    5  A    between atoms: C_8  and  O_10
REMARK    6  A    between atoms: O_10  and  C_11
REMARK    7  A    between atoms: C_11  and  C_12
REMARK    8  A    between atoms: N_14  and  N_15
REMARK    9  A    between atoms: C_16  and  C_17
REMARK                            x       y       z     vdW  Elec       q    Type
REMARK                         _______ _______ _______ _____ _____    ______ ____
ROOT
ATOM      1  C   UNL     1      -3.263  -6.201  -2.131  0.00  0.00    +0.144 C 
ATOM      2  N   UNL     1      -4.194  -6.785  -1.423  0.00  0.00    -0.180 NA
ENDROOT
BRANCH   1   6
ATOM      3  C   UNL     1      -3.785  -2.196  -3.435  0.00  0.00    +0.124 A 
ATOM      4  C   UNL     1      -2.623  -2.888  -3.761  0.00  0.00    +0.046 A 
ATOM      5  C   UNL     1      -2.449  -4.187  -3.340  0.00  0.00    +0.016 A 
ATOM      6  C   UNL     1      -3.443  -4.816  -2.582  0.00  0.00    +0.037 A 
ATOM      7  C   UNL     1      -4.616  -4.114  -2.254  0.00  0.00    +0.133 A 
ATOM      8  C   UNL     1      -4.776  -2.808  -2.679  0.00  0.00    +0.092 A 
BRANCH   3   9
ATOM      9  O   UNL     1      -3.949  -0.915  -3.854  0.00  0.00    -0.492 OA
BRANCH   9  11
ATOM     10  C   UNL     1      -3.253   1.092  -5.007  0.00  0.00    +0.048 C 
ATOM     11  C   UNL     1      -2.892  -0.346  -4.629  0.00  0.00    +0.225 C 
ENDBRANCH   9  11
ENDBRANCH   3   9
BRANCH   7  12
ATOM     12  O   UNL     1      -5.586  -4.715  -1.520  0.00  0.00    -0.491 OA
BRANCH  12  13
ATOM     13  C   UNL     1      -6.751  -3.941  -1.225  0.00  0.00    +0.226 C 
ATOM     14  C   UNL     1      -7.725  -4.779  -0.395  0.00  0.00    +0.048 C 
ENDBRANCH  12  13
ENDBRANCH   7  12
ENDBRANCH   1   6
BRANCH   2  15
ATOM     15  N   UNL     1      -4.035  -8.003  -1.027  0.00  0.00    -0.263 N 
ATOM     16  C   UNL     1      -4.971  -8.590  -0.315  0.00  0.00    +0.143 C 
ATOM     17  N   UNL     1      -6.125  -7.904   0.009  0.00  0.00    -0.342 N 
ATOM     18  H   UNL     1      -6.195  -6.955  -0.182  0.00  0.00    +0.144 HD
ATOM     19  H   UNL     1      -6.865  -8.370   0.428  0.00  0.00    +0.144 HD
ATOM     20  H   UNL     1      -3.225  -8.485  -1.255  0.00  0.00    +0.190 HD
BRANCH  16  21
ATOM     21  C   UNL     1      -4.789  -9.983   0.138  0.00  0.00    +0.187 A 
ATOM     22  C   UNL     1      -5.479 -10.618   1.269  0.00  0.00    +0.191 A 
ATOM     23  N   UNL     1      -5.062 -11.851   1.363  0.00  0.00    -0.033 NA
ATOM     24  O   UNL     1      -4.114 -12.072   0.335  0.00  0.00    -0.240 OA
ATOM     25  N   UNL     1      -3.989 -10.868  -0.402  0.00  0.00    -0.044 NA
ATOM     26  N   UNL     1      -6.415 -10.011   2.095  0.00  0.00    -0.339 N 
ATOM     27  H   UNL     1      -6.580  -9.058   2.022  0.00  0.00    +0.144 HD
ATOM     28  H   UNL     1      -6.903 -10.540   2.746  0.00  0.00    +0.144 HD
ENDBRANCH  16  21
ENDBRANCH   2  15
TORSDOF 7
