REMARK  Name = ZINC65462840
REMARK  8 active torsions:
REMARK  status: ('A' for Active; 'I' for Inactive)
REMARK    1  A    between atoms: C_1  and  C_2
REMARK    2  A    between atoms: C_2  and  C_3
REMARK    3  A    between atoms: C_3  and  N_4
REMARK    4  A    between atoms: C_5  and  C_26
REMARK    5  A    between atoms: C_6  and  C_10
REMARK    6  A    between atoms: C_7  and  C_9
REMARK    7  A    between atoms: C_10  and  N_11
REMARK    8  A    between atoms: C_15  and  C_23
REMARK                            x       y       z     vdW  Elec       q    Type
REMARK                         _______ _______ _______ _____ _____    ______ ____
ROOT
ATOM      1  N   UNL     1       0.008  -5.669  -1.853  0.00  0.00    -0.324 N 
ATOM      2  C   UNL     1       0.271  -6.761  -2.649  0.00  0.00    +0.132 A 
ATOM      3  C   UNL     1       1.643  -7.164  -2.954  0.00  0.00    +0.039 A 
ATOM      4  C   UNL     1       2.745  -6.471  -2.459  0.00  0.00    +0.028 A 
ATOM      5  C   UNL     1       4.026  -6.906  -2.787  0.00  0.00    +0.064 A 
ATOM      6  C   UNL     1       4.205  -8.034  -3.609  0.00  0.00    +0.017 A 
ATOM      7  C   UNL     1       3.137  -8.717  -4.098  0.00  0.00    +0.027 A 
ATOM      8  C   UNL     1       1.834  -8.300  -3.783  0.00  0.00    +0.052 A 
ATOM      9  N   UNL     1       0.755  -8.945  -4.242  0.00  0.00    -0.327 N 
ATOM     10  C   UNL     1      -0.462  -8.540  -3.937  0.00  0.00    +0.192 A 
ATOM     11  N   UNL     1      -0.713  -7.489  -3.163  0.00  0.00    -0.201 NA
ATOM     12  N   UNL     1      -1.533  -9.248  -4.444  0.00  0.00    -0.329 N 
ATOM     13  H   UNL     1       0.741  -5.149  -1.486  0.00  0.00    +0.148 HD
ATOM     14  H   UNL     1      -1.379 -10.022  -5.009  0.00  0.00    +0.145 HD
ATOM     15  H   UNL     1      -2.440  -8.973  -4.236  0.00  0.00    +0.145 HD
ATOM     16  H   UNL     1       0.871  -9.724  -4.810  0.00  0.00    +0.169 HD
ENDROOT
BRANCH   5  17
ATOM     17  C   UNL     1       5.200  -6.183  -2.271  0.00  0.00    +0.387 C 
ATOM     18  O   UNL     1       5.048  -5.201  -1.556  0.00  0.00    -0.241 OA
ATOM     19  O   UNL     1       6.327  -6.563  -2.557  0.00  0.00    -0.241 OA
ENDBRANCH   5  17
BRANCH   1  20
ATOM     20  C   UNL     1      -1.377  -5.293  -1.559  0.00  0.00    +0.142 C 
BRANCH  20  23
ATOM     21  N   UNL     1      -1.413  -1.998   0.005  0.00  0.00    -0.268 N 
ATOM     22  C   UNL     1      -1.408  -2.786  -1.091  0.00  0.00    +0.041 A 
ATOM     23  C   UNL     1      -1.388  -4.073  -0.673  0.00  0.00    +0.013 A 
ATOM     24  C   UNL     1      -1.382  -4.072   0.726  0.00  0.00    +0.065 A 
ATOM     25  N   UNL     1      -1.391  -2.829   1.133  0.00  0.00    -0.176 NA
ATOM     26  C   UNL     1      -1.361  -5.292   1.610  0.00  0.00    +0.068 C 
ATOM     27  C   UNL     1      -1.421  -2.317  -2.523  0.00  0.00    +0.065 C 
BRANCH  21  28
ATOM     28  C   UNL     1      -1.433  -0.534   0.013  0.00  0.00    +0.143 C 
BRANCH  28  30
ATOM     29  C   UNL     1      -0.019   1.526   0.010  0.00  0.00    +0.005 C 
ATOM     30  C   UNL     1       0.002  -0.004   0.002  0.00  0.00    +0.020 C 
ENDBRANCH  28  30
ENDBRANCH  21  28
ENDBRANCH  20  23
ENDBRANCH   1  20
TORSDOF 5
