REMARK  Name = ZINC37298427
REMARK  7 active torsions:
REMARK  status: ('A' for Active; 'I' for Inactive)
REMARK    1  A    between atoms: C_4  and  O_18
REMARK    2  A    between atoms: C_5  and  C_7
REMARK    3  A    between atoms: C_7  and  N_8
REMARK    4  A    between atoms: N_8  and  C_9
REMARK    5  A    between atoms: C_14  and  N_15
REMARK    6  A    between atoms: O_18  and  C_19
REMARK    7  A    between atoms: C_19  and  C_20
REMARK                            x       y       z     vdW  Elec       q    Type
REMARK                         _______ _______ _______ _____ _____    ______ ____
ROOT
ATOM      1  C   UNL     1       0.497  -2.228   0.221  0.00  0.00    +0.140 C 
ENDROOT
BRANCH   1   6
ATOM      2  C   UNL     1      -1.281   1.081   0.597  0.00  0.00    +0.001 A 
ATOM      3  C   UNL     1      -0.232   1.976   0.492  0.00  0.00    +0.004 A 
ATOM      4  C   UNL     1       1.055   1.513   0.299  0.00  0.00    +0.046 A 
ATOM      5  C   UNL     1       1.294   0.149   0.211  0.00  0.00    +0.127 A 
ATOM      6  C   UNL     1       0.240  -0.746   0.317  0.00  0.00    +0.011 A 
ATOM      7  C   UNL     1      -1.045  -0.278   0.509  0.00  0.00    +0.009 A 
BRANCH   5   8
ATOM      8  O   UNL     1       2.560  -0.309   0.021  0.00  0.00    -0.477 OA
BRANCH   8   9
ATOM      9  C   UNL     1       3.596   0.670  -0.080  0.00  0.00    +0.346 C 
BRANCH   9  10
ATOM     10  C   UNL     1       4.889  -0.003  -0.283  0.00  0.00    +0.104 C 
ATOM     11  N   UNL     1       5.887  -0.522  -0.439  0.00  0.00    -0.193 NA
ENDBRANCH   9  10
ENDBRANCH   8   9
ENDBRANCH   5   8
ENDBRANCH   1   6
BRANCH   1  12
ATOM     12  N   UNL     1       0.997  -2.722   1.507  0.00  0.00    -0.338 N 
ATOM     13  H   UNL     1       1.112  -2.109   2.250  0.00  0.00    +0.146 HD
BRANCH  12  14
ATOM     14  C   UNL     1       1.308  -4.074   1.663  0.00  0.00    +0.058 A 
ATOM     15  C   UNL     1       1.030  -4.975   0.642  0.00  0.00    +0.025 A 
ATOM     16  C   UNL     1       1.339  -6.311   0.799  0.00  0.00    +0.002 A 
ATOM     17  C   UNL     1       1.924  -6.754   1.971  0.00  0.00    +0.002 A 
ATOM     18  C   UNL     1       2.201  -5.861   2.989  0.00  0.00    +0.034 A 
ATOM     19  C   UNL     1       1.900  -4.522   2.836  0.00  0.00    +0.147 A 
BRANCH  19  20
ATOM     20  N   UNL     1       2.203  -3.565   3.925  0.00  0.00    +0.058 N 
ATOM     21  O   UNL     1       2.595  -2.453   3.660  0.00  0.00    -0.126 OA
ATOM     22  O   UNL     1       2.058  -3.896   5.078  0.00  0.00    -0.126 OA
ENDBRANCH  19  20
ENDBRANCH  12  14
ENDBRANCH   1  12
TORSDOF 7
