REMARK  Name = ZINC58180120
REMARK  5 active torsions:
REMARK  status: ('A' for Active; 'I' for Inactive)
REMARK    1  A    between atoms: C_1  and  C_2
REMARK    2  A    between atoms: C_5  and  C_27
REMARK    3  A    between atoms: N_8  and  S_10
REMARK    4  A    between atoms: S_10  and  N_13
REMARK    5  A    between atoms: C_22  and  C_24
REMARK                            x       y       z     vdW  Elec       q    Type
REMARK                         _______ _______ _______ _____ _____    ______ ____
ROOT
ATOM      1  N   UNL     1       2.156  -3.058  -0.318  0.00  0.00    -0.150 NA
ATOM      2  C   UNL     1       1.498  -4.188  -0.983  0.00  0.00    +0.146 C 
ATOM      3  C   UNL     1       1.549  -3.997  -2.478  0.00  0.00    -0.028 A 
ATOM      4  C   UNL     1       0.770  -4.835  -3.265  0.00  0.00    +0.005 A 
ATOM      5  C   UNL     1       0.782  -4.716  -4.639  0.00  0.00    +0.000 A 
ATOM      6  C   UNL     1       1.578  -3.756  -5.237  0.00  0.00    +0.000 A 
ATOM      7  C   UNL     1       2.349  -2.921  -4.456  0.00  0.00    +0.004 A 
ATOM      8  C   UNL     1       2.334  -3.034  -3.071  0.00  0.00    -0.041 A 
ATOM      9  C   UNL     1       3.181  -2.070  -2.283  0.00  0.00    +0.065 C 
ATOM     10  C   UNL     1       3.437  -2.598  -0.877  0.00  0.00    +0.171 C 
ENDROOT
BRANCH  10  11
ATOM     11  C   UNL     1       4.002  -1.496  -0.019  0.00  0.00    +0.230 C 
ATOM     12  O   UNL     1       3.426  -0.431   0.059  0.00  0.00    -0.274 OA
ATOM     13  N   UNL     1       5.147  -1.693   0.664  0.00  0.00    -0.328 N 
ATOM     14  H   UNL     1       5.608  -2.544   0.602  0.00  0.00    +0.145 HD
ATOM     15  H   UNL     1       5.511  -0.984   1.216  0.00  0.00    +0.145 HD
ENDBRANCH  10  11
BRANCH   1  16
ATOM     16  S   UNL     1       1.481  -2.325   1.005  0.00  0.00    +0.100 S 
ATOM     17  O   UNL     1       2.555  -1.790   1.765  0.00  0.00    -0.141 OA
ATOM     18  O   UNL     1       0.549  -3.249   1.550  0.00  0.00    -0.141 OA
BRANCH  16  24
ATOM     19  C   UNL     1       1.454   2.564  -0.359  0.00  0.00    +0.009 C 
ATOM     20  C   UNL     1       1.120   1.094  -0.621  0.00  0.00    +0.002 C 
ATOM     21  C   UNL     1      -0.233   0.995  -1.330  0.00  0.00    +0.009 C 
ATOM     22  C   UNL     1      -0.552  -0.473  -1.621  0.00  0.00    +0.002 C 
ATOM     23  C   UNL     1      -0.642  -1.244  -0.300  0.00  0.00    +0.113 C 
ATOM     24  N   UNL     1       0.601  -1.035   0.454  0.00  0.00    -0.166 NA
ATOM     25  C   UNL     1       1.050   0.341   0.712  0.00  0.00    +0.113 C 
ATOM     26  C   UNL     1      -1.888  -0.568  -2.361  0.00  0.00    +0.009 C 
ENDBRANCH  16  24
ENDBRANCH   1  16
TORSDOF 3
