REMARK  Name = ZINC10013298
REMARK  11 active torsions:
REMARK  status: ('A' for Active; 'I' for Inactive)
REMARK    1  A    between atoms: C_1  and  C_2
REMARK    2  A    between atoms: C_2  and  C_3
REMARK    3  A    between atoms: C_9  and  C_10
REMARK    4  A    between atoms: C_9  and  N_74
REMARK    5  A    between atoms: C_10  and  C_11
REMARK    6  A    between atoms: C_11  and  N_12
REMARK    7  A    between atoms: C_13  and  C_15
REMARK    8  A    between atoms: C_16  and  C_36
REMARK    9  A    between atoms: N_22  and  C_25
REMARK   10  A    between atoms: C_25  and  C_26
REMARK   11  A    between atoms: C_33  and  C_35
REMARK                            x       y       z     vdW  Elec       q    Type
REMARK                         _______ _______ _______ _____ _____    ______ ____
ROOT
ATOM      1  C   UNL     1       1.469   2.977  -1.695  0.00  0.00    +0.079 A 
ATOM      2  C   UNL     1       2.648   2.352  -1.980  0.00  0.00    -0.017 A 
ATOM      3  C   UNL     1       3.733   3.096  -2.448  0.00  0.00    +0.076 A 
ATOM      4  C   UNL     1       3.515   4.487  -2.582  0.00  0.00    +0.116 A 
ATOM      5  S   UNL     1       1.829   4.686  -2.064  0.00  0.00    -0.064 S 
ATOM      6  N   UNL     1       4.465   5.306  -3.012  0.00  0.00    -0.230 NA
ATOM      7  C   UNL     1       5.653   4.869  -3.333  0.00  0.00    +0.203 A 
ATOM      8  N   UNL     1       5.981   3.556  -3.245  0.00  0.00    -0.290 N 
ATOM      9  C   UNL     1       5.091   2.638  -2.821  0.00  0.00    +0.263 A 
ATOM     10  O   UNL     1       5.396   1.461  -2.746  0.00  0.00    -0.267 OA
ATOM     11  C   UNL     1       2.777   0.862  -1.795  0.00  0.00    +0.046 C 
ENDROOT
BRANCH   1  13
ATOM     12  N   UNL     1      -0.852   3.178  -0.977  0.00  0.00    -0.311 N 
ATOM     13  C   UNL     1       0.218   2.391  -1.202  0.00  0.00    +0.251 C 
ATOM     14  O   UNL     1       0.146   1.193  -1.002  0.00  0.00    -0.270 OA
ATOM     15  H   UNL     1      -0.794   4.133  -1.137  0.00  0.00    +0.149 HD
BRANCH  12  16
ATOM     16  C   UNL     1      -2.103   2.592  -0.490  0.00  0.00    +0.102 C 
BRANCH  16  17
ATOM     17  C   UNL     1      -3.150   3.694  -0.318  0.00  0.00    +0.000 C 
BRANCH  17  18
ATOM     18  C   UNL     1      -4.457   3.081   0.190  0.00  0.00    -0.077 C 
BRANCH  18  24
ATOM     19  C   UNL     1      -6.803   3.568   0.532  0.00  0.00    -0.069 C 
ATOM     20  C   UNL     1      -7.840   4.694   0.555  0.00  0.00    -0.015 C 
ATOM     21  C   UNL     1      -7.518   5.655   1.702  0.00  0.00    -0.003 C 
ATOM     22  C   UNL     1      -6.098   6.199   1.520  0.00  0.00    -0.019 C 
ATOM     23  C   UNL     1      -5.112   5.029   1.469  0.00  0.00    -0.078 C 
ATOM     24  N   UNL     1      -5.462   4.156   0.329  0.00  0.00    +0.382 N 
ATOM     25  H   UNL     1      -5.471   4.717  -0.530  0.00  0.00    -0.081 HD
BRANCH  19  27
ATOM     26  C   UNL     1      -6.968   3.366  -1.952  0.00  0.00    +0.002 C 
ATOM     27  C   UNL     1      -7.109   2.617  -0.626  0.00  0.00    -0.019 C 
ENDBRANCH  19  27
ENDBRANCH  18  24
ENDBRANCH  17  18
ENDBRANCH  16  17
ENDBRANCH  12  16
ENDBRANCH   1  13
BRANCH   8  28
ATOM     28  C   UNL     1       7.331   3.128  -3.620  0.00  0.00    +0.222 C 
BRANCH  28  29
ATOM     29  C   UNL     1       7.359   2.783  -5.087  0.00  0.00    +0.236 C 
ATOM     30  O   UNL     1       6.351   2.886  -5.753  0.00  0.00    -0.274 OA
ATOM     31  N   UNL     1       8.505   2.361  -5.658  0.00  0.00    -0.297 N 
ATOM     32  C   UNL     1       9.757   2.332  -4.890  0.00  0.00    +0.108 C 
ATOM     33  C   UNL     1      10.827   3.111  -5.661  0.00  0.00    +0.019 C 
ATOM     34  C   UNL     1      10.944   2.543  -7.078  0.00  0.00    +0.003 C 
ATOM     35  C   UNL     1       9.608   2.706  -7.807  0.00  0.00    +0.022 C 
ATOM     36  C   UNL     1       8.524   1.917  -7.058  0.00  0.00    +0.073 C 
ATOM     37  C   UNL     1       7.160   2.182  -7.699  0.00  0.00    +0.028 C 
ENDBRANCH  28  29
ENDBRANCH   8  28
TORSDOF 8
