REMARK  Name = ZINC42910679
REMARK  11 active torsions:
REMARK  status: ('A' for Active; 'I' for Inactive)
REMARK    1  A    between atoms: C_1  and  C_2
REMARK    2  A    between atoms: C_4  and  C_29
REMARK    3  A    between atoms: N_5  and  C_7
REMARK    4  A    between atoms: C_10  and  C_13
REMARK    5  A    between atoms: C_13  and  C_14
REMARK    6  A    between atoms: C_14  and  N_15
REMARK    7  A    between atoms: N_18  and  C_19
REMARK    8  A    between atoms: C_21  and  C_27
REMARK    9  A    between atoms: C_21  and  C_28
REMARK   10  A    between atoms: C_23  and  C_25
REMARK   11  A    between atoms: C_23  and  C_26
REMARK                            x       y       z     vdW  Elec       q    Type
REMARK                         _______ _______ _______ _____ _____    ______ ____
ROOT
ATOM      1  N   UNL     1       1.467  -8.233   4.189  0.00  0.00    -0.299 N 
ATOM      2  C   UNL     1       2.507  -9.089   4.124  0.00  0.00    +0.300 C 
ATOM      3  O   UNL     1       3.456  -8.839   3.407  0.00  0.00    -0.253 OA
ATOM      4  N   UNL     1       2.494 -10.222   4.854  0.00  0.00    -0.297 N 
ATOM      5  H   UNL     1       0.710  -8.433   4.761  0.00  0.00    +0.150 HD
ATOM      6  H   UNL     1       1.736 -10.421   5.426  0.00  0.00    +0.151 HD
ENDROOT
BRANCH   4   7
ATOM      7  C   UNL     1       3.626 -11.153   4.784  0.00  0.00    +0.072 C 
ATOM      8  C   UNL     1       4.691 -10.727   5.796  0.00  0.00    +0.009 C 
ATOM      9  C   UNL     1       5.873 -11.696   5.743  0.00  0.00    -0.072 C 
ATOM     10  N   UNL     1       5.456 -13.079   5.921  0.00  0.00    +0.386 N 
ATOM     11  C   UNL     1       4.311 -13.543   5.154  0.00  0.00    -0.072 C 
ATOM     12  C   UNL     1       3.148 -12.557   5.153  0.00  0.00    +0.009 C 
ATOM     13  C   UNL     1       4.698 -13.895   3.715  0.00  0.00    -0.010 C 
ATOM     14  C   UNL     1       3.807 -14.847   5.817  0.00  0.00    -0.010 C 
ATOM     15  C   UNL     1       6.812 -11.336   6.918  0.00  0.00    -0.010 C 
ATOM     16  C   UNL     1       6.664 -11.494   4.452  0.00  0.00    -0.010 C 
ATOM     17  H   UNL     1       6.253 -13.684   5.709  0.00  0.00    -0.084 HD
ATOM     18  H   UNL     1       5.261 -13.230   6.914  0.00  0.00    -0.084 HD
ENDBRANCH   4   7
BRANCH   1  19
ATOM     19  C   UNL     1       1.481  -7.002   3.395  0.00  0.00    +0.110 C 
BRANCH  19  20
ATOM     20  C   UNL     1       0.193  -6.216   3.650  0.00  0.00    +0.054 C 
BRANCH  20  24
ATOM     21  C   UNL     1       0.234  -2.625   1.334  0.00  0.00    +0.066 A 
ATOM     22  C   UNL     1      -0.306  -3.788   0.803  0.00  0.00    +0.028 A 
ATOM     23  C   UNL     1      -0.317  -4.948   1.554  0.00  0.00    +0.006 A 
ATOM     24  C   UNL     1       0.208  -4.950   2.833  0.00  0.00    -0.046 A 
ATOM     25  C   UNL     1       0.746  -3.792   3.365  0.00  0.00    +0.006 A 
ATOM     26  C   UNL     1       0.766  -2.631   2.616  0.00  0.00    +0.028 A 
BRANCH  21  31
ATOM     27  C   UNL     1       1.790   1.623  -0.700  0.00  0.00    +0.067 C 
ATOM     28  C   UNL     1       0.948   0.433  -0.319  0.00  0.00    +0.061 A 
ATOM     29  C   UNL     1      -0.355   0.175  -0.760  0.00  0.00    +0.047 A 
ATOM     30  C   UNL     1      -0.763  -0.985  -0.197  0.00  0.00    +0.042 A 
ATOM     31  N   UNL     1       0.247  -1.447   0.574  0.00  0.00    -0.237 N 
ATOM     32  N   UNL     1       1.312  -0.541   0.476  0.00  0.00    -0.171 NA
ATOM     33  C   UNL     1      -2.104  -1.645  -0.393  0.00  0.00    +0.066 C 
ENDBRANCH  21  31
ENDBRANCH  20  24
ENDBRANCH  19  20
ENDBRANCH   1  19
TORSDOF 5
