REMARK  Name = ZINC49146915
REMARK  10 active torsions:
REMARK  status: ('A' for Active; 'I' for Inactive)
REMARK    1  A    between atoms: C_1  and  C_2
REMARK    2  A    between atoms: C_2  and  C_3
REMARK    3  A    between atoms: C_3  and  C_5
REMARK    4  A    between atoms: C_3  and  N_8
REMARK    5  A    between atoms: C_5  and  C_6
REMARK    6  A    between atoms: C_5  and  C_7
REMARK    7  A    between atoms: C_9  and  C_20
REMARK    8  A    between atoms: C_10  and  C_19
REMARK    9  A    between atoms: C_14  and  C_18
REMARK   10  A    between atoms: C_16  and  N_17
REMARK                            x       y       z     vdW  Elec       q    Type
REMARK                         _______ _______ _______ _____ _____    ______ ____
ROOT
ATOM      1  N   UNL     1       0.910  -1.839  -1.357  0.00  0.00    -0.326 N 
ATOM      2  C   UNL     1       2.099  -2.521  -1.392  0.00  0.00    +0.021 A 
ATOM      3  C   UNL     1       1.865  -3.841  -1.470  0.00  0.00    -0.017 A 
ATOM      4  C   UNL     1       0.413  -4.013  -1.486  0.00  0.00    +0.062 A 
ATOM      5  C   UNL     1      -0.136  -2.719  -1.407  0.00  0.00    +0.147 A 
ATOM      6  N   UNL     1      -1.461  -2.590  -1.398  0.00  0.00    -0.214 NA
ATOM      7  C   UNL     1      -2.240  -3.649  -1.458  0.00  0.00    +0.130 A 
ATOM      8  N   UNL     1      -1.767  -4.880  -1.530  0.00  0.00    -0.217 NA
ATOM      9  C   UNL     1      -0.457  -5.111  -1.553  0.00  0.00    +0.129 A 
ATOM     10  C   UNL     1      -3.734  -3.448  -1.445  0.00  0.00    +0.088 C 
ATOM     11  C   UNL     1       2.900  -4.935  -1.530  0.00  0.00    +0.046 C 
ATOM     12  C   UNL     1       3.465  -1.884  -1.351  0.00  0.00    +0.064 C 
ENDROOT
BRANCH   9  13
ATOM     13  N   UNL     1       0.034  -6.402  -1.627  0.00  0.00    -0.343 N 
ATOM     14  H   UNL     1       0.991  -6.557  -1.633  0.00  0.00    +0.144 HD
ATOM     15  H   UNL     1      -0.580  -7.152  -1.673  0.00  0.00    +0.144 HD
ENDBRANCH   9  13
BRANCH   1  16
ATOM     16  C   UNL     1       0.779  -0.383  -1.272  0.00  0.00    +0.091 C 
BRANCH  16  17
ATOM     17  C   UNL     1       0.014   0.133  -2.493  0.00  0.00    +0.006 C 
ATOM     18  C   UNL     1      -0.006   1.662  -2.474  0.00  0.00    +0.009 C 
ATOM     19  C   UNL     1       0.704  -0.353  -3.769  0.00  0.00    +0.009 C 
ENDBRANCH  16  17
BRANCH  16  21
ATOM     20  C   UNL     1       0.841  -0.417   1.226  0.00  0.00    +0.006 C 
ATOM     21  C   UNL     1       0.016  -0.013   0.002  0.00  0.00    +0.022 C 
ENDBRANCH  16  21
ENDBRANCH   1  16
TORSDOF 4
