REMARK  Name = ZINC60455760
REMARK  8 active torsions:
REMARK  status: ('A' for Active; 'I' for Inactive)
REMARK    1  A    between atoms: C_1  and  C_2
REMARK    2  A    between atoms: C_5  and  N_9
REMARK    3  A    between atoms: C_6  and  C_8
REMARK    4  A    between atoms: N_9  and  C_10
REMARK    5  A    between atoms: C_10  and  C_11
REMARK    6  A    between atoms: N_15  and  C_16
REMARK    7  A    between atoms: C_17  and  C_23
REMARK    8  A    between atoms: C_21  and  C_22
REMARK                            x       y       z     vdW  Elec       q    Type
REMARK                         _______ _______ _______ _____ _____    ______ ____
ROOT
ATOM      1  C   UNL     1       0.175  -6.879  -1.814  0.00  0.00    +0.173 A 
ATOM      2  N   UNL     1       1.313  -7.299  -1.327  0.00  0.00    -0.111 NA
ATOM      3  N   UNL     1       1.129  -7.919  -0.217  0.00  0.00    -0.023 NA
ATOM      4  N   UNL     1      -0.125  -7.940   0.079  0.00  0.00    -0.039 NA
ATOM      5  N   UNL     1      -0.794  -7.255  -0.951  0.00  0.00    -0.195 N 
ENDROOT
BRANCH   5   6
ATOM      6  C   UNL     1      -2.172  -7.017  -1.061  0.00  0.00    +0.075 A 
ATOM      7  C   UNL     1      -2.982  -7.921  -1.734  0.00  0.00    -0.025 A 
ATOM      8  C   UNL     1      -4.339  -7.684  -1.841  0.00  0.00    +0.005 A 
ATOM      9  C   UNL     1      -4.890  -6.547  -1.278  0.00  0.00    +0.001 A 
ATOM     10  C   UNL     1      -4.085  -5.645  -0.607  0.00  0.00    +0.005 A 
ATOM     11  C   UNL     1      -2.729  -5.880  -0.491  0.00  0.00    -0.025 A 
ATOM     12  C   UNL     1      -1.854  -4.900   0.246  0.00  0.00    +0.046 C 
ATOM     13  C   UNL     1      -2.382  -9.159  -2.349  0.00  0.00    +0.046 C 
ENDBRANCH   5   6
BRANCH   1  14
ATOM     14  C   UNL     1      -0.020  -6.112  -3.096  0.00  0.00    +0.180 C 
BRANCH  14  15
ATOM     15  N   UNL     1       0.103  -4.676  -2.830  0.00  0.00    -0.336 N 
ATOM     16  H   UNL     1       0.258  -4.362  -1.925  0.00  0.00    +0.147 HD
BRANCH  15  21
ATOM     17  C   UNL     1      -0.329  -0.955  -7.087  0.00  0.00    +0.044 C 
ATOM     18  C   UNL     1      -0.214  -1.944  -5.956  0.00  0.00    -0.050 A 
ATOM     19  C   UNL     1      -0.330  -3.299  -6.209  0.00  0.00    +0.005 A 
ATOM     20  C   UNL     1      -0.225  -4.208  -5.175  0.00  0.00    +0.023 A 
ATOM     21  C   UNL     1      -0.003  -3.760  -3.878  0.00  0.00    +0.030 A 
ATOM     22  C   UNL     1       0.112  -2.398  -3.627  0.00  0.00    -0.029 A 
ATOM     23  C   UNL     1       0.012  -1.495  -4.668  0.00  0.00    +0.008 A 
ATOM     24  C   UNL     1       0.352  -1.908  -2.223  0.00  0.00    +0.045 C 
ENDBRANCH  15  21
ENDBRANCH  14  15
ENDBRANCH   1  14
TORSDOF 4
