REMARK  Name = ZINC42737252
REMARK  9 active torsions:
REMARK  status: ('A' for Active; 'I' for Inactive)
REMARK    1  A    between atoms: C_1  and  C_2
REMARK    2  A    between atoms: C_2  and  N_3
REMARK    3  A    between atoms: N_3  and  C_4
REMARK    4  A    between atoms: N_3  and  C_9
REMARK    5  A    between atoms: C_4  and  C_5
REMARK    6  A    between atoms: C_9  and  C_11
REMARK    7  A    between atoms: C_9  and  C_12
REMARK    8  A    between atoms: N_14  and  C_15
REMARK    9  A    between atoms: C_20  and  N_21
REMARK                            x       y       z     vdW  Elec       q    Type
REMARK                         _______ _______ _______ _____ _____    ______ ____
ROOT
ATOM      1  C   UNL     1      -0.726  -2.189  -1.764  0.00  0.00    +0.203 C 
ATOM      2  O   UNL     1      -1.616  -1.366  -1.727  0.00  0.00    -0.277 OA
ATOM      3  N   UNL     1      -1.023  -3.497  -1.902  0.00  0.00    -0.285 N 
ATOM      4  H   UNL     1      -0.319  -4.162  -1.851  0.00  0.00    +0.155 HD
ENDROOT
BRANCH   3   5
ATOM      5  C   UNL     1      -2.350  -3.895  -2.119  0.00  0.00    +0.054 A 
ATOM      6  C   UNL     1      -3.395  -3.117  -1.645  0.00  0.00    +0.026 A 
ATOM      7  C   UNL     1      -4.703  -3.511  -1.860  0.00  0.00    +0.022 A 
ATOM      8  C   UNL     1      -4.973  -4.682  -2.547  0.00  0.00    +0.043 A 
ATOM      9  C   UNL     1      -3.936  -5.463  -3.023  0.00  0.00    +0.044 A 
ATOM     10  C   UNL     1      -2.621  -5.071  -2.817  0.00  0.00    +0.047 A 
ATOM     11 CL   UNL     1      -6.617  -5.170  -2.812  0.00  0.00    -0.083 Cl
BRANCH  10  12
ATOM     12  N   UNL     1      -1.570  -5.857  -3.302  0.00  0.00    -0.356 N 
ATOM     13  H   UNL     1      -0.652  -5.584  -3.153  0.00  0.00    +0.142 HD
ATOM     14  H   UNL     1      -1.761  -6.675  -3.787  0.00  0.00    +0.142 HD
ENDBRANCH  10  12
ENDBRANCH   3   5
BRANCH   1  15
ATOM     15  C   UNL     1       0.712  -1.750  -1.658  0.00  0.00    +0.017 C 
ATOM     16  C   UNL     1       1.371  -1.823  -3.036  0.00  0.00    -0.004 C 
BRANCH  15  17
ATOM     17  N   UNL     1       0.767  -0.369  -1.161  0.00  0.00    +0.393 N 
ATOM     18  H   UNL     1       0.232   0.230  -1.773  0.00  0.00    -0.080 HD
BRANCH  17  20
ATOM     19  C   UNL     1       1.098  -1.103   1.151  0.00  0.00    -0.017 C 
ATOM     20  C   UNL     1       0.203  -0.313   0.194  0.00  0.00    -0.081 C 
ENDBRANCH  17  20
BRANCH  17  21
ATOM     21  C   UNL     1       2.163   0.085  -1.130  0.00  0.00    +0.037 C 
BRANCH  21  22
ATOM     22  C   UNL     1       2.212   1.559  -0.724  0.00  0.00    +0.376 C 
ATOM     23  F   UNL     1       1.780   1.692   0.601  0.00  0.00    -0.173 F 
ATOM     24  F   UNL     1       3.524   2.032  -0.836  0.00  0.00    -0.173 F 
ATOM     25  F   UNL     1       1.375   2.302  -1.563  0.00  0.00    -0.173 F 
ENDBRANCH  21  22
ENDBRANCH  17  21
ENDBRANCH  15  17
ENDBRANCH   1  15
TORSDOF 7
