REMARK  Name = ZINC56896342
REMARK  10 active torsions:
REMARK  status: ('A' for Active; 'I' for Inactive)
REMARK    1  A    between atoms: C_1  and  C_2
REMARK    2  A    between atoms: C_2  and  C_4
REMARK    3  A    between atoms: C_2  and  N_14
REMARK    4  A    between atoms: C_4  and  O_5
REMARK    5  A    between atoms: O_5  and  C_6
REMARK    6  A    between atoms: N_17  and  C_18
REMARK    7  A    between atoms: C_20  and  C_26
REMARK    8  A    between atoms: C_20  and  C_27
REMARK    9  A    between atoms: C_22  and  C_24
REMARK   10  A    between atoms: C_22  and  C_25
REMARK                            x       y       z     vdW  Elec       q    Type
REMARK                         _______ _______ _______ _____ _____    ______ ____
ROOT
ATOM      1  N   UNL     1       0.789  -0.150  -1.133  0.00  0.00    -0.294 N 
ATOM      2  C   UNL     1       2.135  -0.224  -1.150  0.00  0.00    +0.300 C 
ATOM      3  O   UNL     1       2.776   0.150  -0.187  0.00  0.00    -0.253 OA
ATOM      4  N   UNL     1       2.769  -0.712  -2.234  0.00  0.00    -0.297 N 
ATOM      5  H   UNL     1       0.277  -0.449  -1.901  0.00  0.00    +0.151 HD
ATOM      6  H   UNL     1       2.258  -1.010  -3.002  0.00  0.00    +0.151 HD
ENDROOT
BRANCH   4   7
ATOM      7  C   UNL     1       4.236  -0.791  -2.252  0.00  0.00    +0.072 C 
ATOM      8  C   UNL     1       4.805   0.541  -2.742  0.00  0.00    +0.009 C 
ATOM      9  C   UNL     1       6.331   0.470  -2.779  0.00  0.00    -0.072 C 
ATOM     10  N   UNL     1       6.809  -0.662  -3.559  0.00  0.00    +0.386 N 
ATOM     11  C   UNL     1       6.189  -1.956  -3.322  0.00  0.00    -0.072 C 
ATOM     12  C   UNL     1       4.668  -1.886  -3.227  0.00  0.00    +0.009 C 
ATOM     13  C   UNL     1       6.759  -2.637  -2.075  0.00  0.00    -0.010 C 
ATOM     14  C   UNL     1       6.532  -2.863  -4.527  0.00  0.00    -0.010 C 
ATOM     15  C   UNL     1       6.895   0.468  -1.358  0.00  0.00    -0.010 C 
ATOM     16  C   UNL     1       6.834   1.759  -3.470  0.00  0.00    -0.010 C 
ATOM     17  H   UNL     1       6.707  -0.433  -4.551  0.00  0.00    -0.084 HD
ATOM     18  H   UNL     1       7.816  -0.754  -3.408  0.00  0.00    -0.084 HD
ENDBRANCH   4   7
BRANCH   1  20
ATOM     19  C   UNL     1       0.035   1.906  -0.045  0.00  0.00    +0.031 C 
ATOM     20  C   UNL     1       0.099   0.380   0.046  0.00  0.00    +0.109 C 
BRANCH  20  21
ATOM     21  C   UNL     1      -1.321  -0.188   0.104  0.00  0.00    +0.251 C 
BRANCH  21  22
ATOM     22  O   UNL     1      -2.070   0.285  -1.017  0.00  0.00    -0.487 OA
BRANCH  22  23
ATOM     23  C   UNL     1      -3.361  -0.129  -1.117  0.00  0.00    +0.156 A 
ATOM     24  C   UNL     1      -3.897  -0.968  -0.152  0.00  0.00    +0.051 A 
ATOM     25  C   UNL     1      -5.209  -1.389  -0.254  0.00  0.00    +0.042 A 
ATOM     26  C   UNL     1      -5.990  -0.973  -1.319  0.00  0.00    +0.126 A 
ATOM     27  C   UNL     1      -5.458  -0.135  -2.284  0.00  0.00    +0.080 A 
ATOM     28  C   UNL     1      -4.146   0.293  -2.182  0.00  0.00    +0.168 A 
ATOM     29  F   UNL     1      -3.628   1.115  -3.120  0.00  0.00    -0.202 F 
ATOM     30  F   UNL     1      -7.273  -1.386  -1.417  0.00  0.00    -0.205 F 
ENDBRANCH  22  23
ENDBRANCH  21  22
ENDBRANCH  20  21
ENDBRANCH   1  20
TORSDOF 5
