REMARK  Name = ZINC12512808
REMARK  6 active torsions:
REMARK  status: ('A' for Active; 'I' for Inactive)
REMARK    1  A    between atoms: C_4  and  C_7
REMARK    2  A    between atoms: C_7  and  C_9
REMARK    3  A    between atoms: C_7  and  N_14
REMARK    4  A    between atoms: N_14  and  C_15
REMARK    5  A    between atoms: C_15  and  C_16
REMARK    6  A    between atoms: N_22  and  C_23
REMARK                            x       y       z     vdW  Elec       q    Type
REMARK                         _______ _______ _______ _____ _____    ______ ____
ROOT
ATOM      1  C   UNL     1       0.024   0.005  -0.320  0.00  0.00    +0.150 A 
ATOM      2  N   UNL     1       1.174  -0.620  -0.506  0.00  0.00    -0.198 NA
ATOM      3  C   UNL     1       2.312   0.070  -0.524  0.00  0.00    +0.217 A 
ATOM      4  N   UNL     1       2.292   1.387  -0.354  0.00  0.00    -0.181 NA
ATOM      5  C   UNL     1       1.134   2.011  -0.167  0.00  0.00    +0.224 A 
ATOM      6  N   UNL     1      -0.001   1.315  -0.151  0.00  0.00    -0.198 NA
ATOM      7  N   UNL     1       1.107   3.381   0.009  0.00  0.00    -0.284 N 
ATOM      8  N   UNL     1       3.513  -0.583  -0.718  0.00  0.00    -0.327 N 
ATOM      9  H   UNL     1       0.144   3.909   0.073  0.00  0.00    +0.155 HD
ATOM     10  H   UNL     1       4.453  -0.012  -0.733  0.00  0.00    +0.145 HD
ATOM     11  H   UNL     1       3.529  -1.674  -0.859  0.00  0.00    +0.145 HD
ENDROOT
BRANCH   7  12
ATOM     12  C   UNL     1       2.304   4.097   0.107  0.00  0.00    +0.034 A 
ATOM     13  C   UNL     1       3.415   3.517   0.705  0.00  0.00    +0.023 A 
ATOM     14  C   UNL     1       4.598   4.224   0.795  0.00  0.00    +0.002 A 
ATOM     15  C   UNL     1       4.673   5.514   0.300  0.00  0.00    +0.000 A 
ATOM     16  C   UNL     1       3.567   6.097  -0.290  0.00  0.00    +0.002 A 
ATOM     17  C   UNL     1       2.383   5.392  -0.388  0.00  0.00    +0.023 A 
ENDBRANCH   7  12
BRANCH   1  18
ATOM     18  C   UNL     1      -1.262  -0.780  -0.301  0.00  0.00    +0.158 C 
BRANCH  18  19
ATOM     19  N   UNL     1      -1.807  -0.860  -1.663  0.00  0.00    -0.298 NA
ATOM     20  H   UNL     1      -1.069  -1.357  -2.309  0.00  0.00    +0.123 HD
BRANCH  19  21
ATOM     21  C   UNL     1      -3.064  -1.620  -1.683  0.00  0.00    +0.122 C 
BRANCH  21  25
ATOM     22  C   UNL     1      -3.662  -3.284  -5.571  0.00  0.00    +0.000 A 
ATOM     23  C   UNL     1      -3.972  -4.026  -4.447  0.00  0.00    +0.000 A 
ATOM     24  C   UNL     1      -3.779  -3.487  -3.188  0.00  0.00    +0.005 A 
ATOM     25  C   UNL     1      -3.275  -2.207  -3.054  0.00  0.00    -0.026 A 
ATOM     26  C   UNL     1      -2.970  -1.463  -4.179  0.00  0.00    +0.005 A 
ATOM     27  C   UNL     1      -3.159  -2.003  -5.437  0.00  0.00    +0.000 A 
ENDBRANCH  21  25
BRANCH  21  28
ATOM     28  C   UNL     1      -4.212  -0.702  -1.348  0.00  0.00    +0.011 A 
ATOM     29  C   UNL     1      -5.300  -0.942  -0.576  0.00  0.00    +0.013 A 
ATOM     30  C   UNL     1      -6.235   0.062  -0.406  0.00  0.00    +0.008 A 
ATOM     31  C   UNL     1      -6.037   1.256  -1.016  0.00  0.00    +0.045 A 
ATOM     32  S   UNL     1      -4.486   0.987  -1.858  0.00  0.00    -0.100 S 
ENDBRANCH  21  28
ENDBRANCH  19  21
ENDBRANCH  18  19
ENDBRANCH   1  18
TORSDOF 6
