REMARK  Name = ZINC53944919
REMARK  5 active torsions:
REMARK  status: ('A' for Active; 'I' for Inactive)
REMARK    1  A    between atoms: C_1  and  C_2
REMARK    2  A    between atoms: C_14  and  C_15
REMARK    3  A    between atoms: N_17  and  C_18
REMARK    4  A    between atoms: C_18  and  C_20
REMARK    5  A    between atoms: C_18  and  C_26
REMARK                            x       y       z     vdW  Elec       q    Type
REMARK                         _______ _______ _______ _____ _____    ______ ____
ROOT
ATOM      1  C   UNL     1       0.032  -0.371   2.488  0.00  0.00    +0.280 C 
ATOM      2  O   UNL     1       0.019   0.817   2.746  0.00  0.00    -0.267 OA
ATOM      3  N   UNL     1       0.054  -1.278   3.485  0.00  0.00    -0.294 N 
ATOM      4  H   UNL     1       0.065  -2.225   3.279  0.00  0.00    +0.150 HD
ENDROOT
BRANCH   1  18
ATOM      5  C   UNL     1      -0.018   1.503   0.010  0.00  0.00    +0.048 C 
ATOM      6  C   UNL     1       0.002  -0.004   0.002  0.00  0.00    +0.008 A 
ATOM      7  C   UNL     1       0.008  -0.842  -1.141  0.00  0.00    +0.024 A 
ATOM      8  C   UNL     1      -0.002  -0.585  -2.528  0.00  0.00    +0.012 A 
ATOM      9  C   UNL     1       0.007  -1.601  -3.421  0.00  0.00    +0.009 A 
ATOM     10  C   UNL     1       0.027  -2.941  -2.977  0.00  0.00    -0.014 A 
ATOM     11  C   UNL     1       0.037  -4.004  -3.893  0.00  0.00    +0.008 A 
ATOM     12  C   UNL     1       0.058  -5.288  -3.439  0.00  0.00    +0.001 A 
ATOM     13  C   UNL     1       0.069  -5.565  -2.075  0.00  0.00    +0.001 A 
ATOM     14  C   UNL     1       0.059  -4.558  -1.157  0.00  0.00    +0.012 A 
ATOM     15  C   UNL     1       0.039  -3.224  -1.590  0.00  0.00    +0.025 A 
ATOM     16  C   UNL     1       0.029  -2.157  -0.664  0.00  0.00    +0.144 A 
ATOM     17  O   UNL     1       0.034  -2.106   0.680  0.00  0.00    -0.449 OA
ATOM     18  C   UNL     1       0.024  -0.819   1.089  0.00  0.00    +0.193 A 
ENDBRANCH   1  18
BRANCH   3  19
ATOM     19  C   UNL     1       0.062  -0.831   4.881  0.00  0.00    +0.190 C 
BRANCH  19  20
ATOM     20  C   UNL     1       0.686  -1.896   5.745  0.00  0.00    -0.018 A 
ATOM     21  C   UNL     1       0.413  -3.229   5.504  0.00  0.00    +0.006 A 
ATOM     22  C   UNL     1       0.985  -4.207   6.298  0.00  0.00    +0.000 A 
ATOM     23  C   UNL     1       1.830  -3.850   7.332  0.00  0.00    +0.000 A 
ATOM     24  C   UNL     1       2.104  -2.516   7.572  0.00  0.00    +0.000 A 
ATOM     25  C   UNL     1       1.535  -1.540   6.776  0.00  0.00    +0.006 A 
ENDBRANCH  19  20
BRANCH  19  26
ATOM     26  C   UNL     1      -1.352  -0.579   5.335  0.00  0.00    +0.235 C 
ATOM     27  O   UNL     1      -2.276  -0.755   4.570  0.00  0.00    -0.274 OA
ATOM     28  N   UNL     1      -1.591  -0.158   6.593  0.00  0.00    -0.328 N 
ATOM     29  H   UNL     1      -0.852  -0.017   7.206  0.00  0.00    +0.145 HD
ATOM     30  H   UNL     1      -2.501   0.004   6.886  0.00  0.00    +0.145 HD
ENDBRANCH  19  26
ENDBRANCH   3  19
TORSDOF 4
