REMARK  Name = ZINC64084036
REMARK  10 active torsions:
REMARK  status: ('A' for Active; 'I' for Inactive)
REMARK    1  A    between atoms: C_1  and  C_2
REMARK    2  A    between atoms: C_5  and  C_32
REMARK    3  A    between atoms: C_6  and  N_8
REMARK    4  A    between atoms: C_10  and  C_21
REMARK    5  A    between atoms: C_12  and  C_15
REMARK    6  A    between atoms: C_21  and  N_22
REMARK    7  A    between atoms: N_22  and  C_23
REMARK    8  A    between atoms: N_22  and  C_24
REMARK    9  A    between atoms: C_24  and  C_25
REMARK   10  A    between atoms: C_29  and  C_31
REMARK                            x       y       z     vdW  Elec       q    Type
REMARK                         _______ _______ _______ _____ _____    ______ ____
ROOT
ATOM      1  N   UNL     1      -0.264  -3.034   2.216  0.00  0.00    -0.266 N 
ATOM      2  C   UNL     1       0.619  -3.026   3.393  0.00  0.00    +0.131 C 
ATOM      3  C   UNL     1       0.005  -4.051   4.376  0.00  0.00    +0.045 C 
ATOM      4  C   UNL     1      -1.450  -4.145   3.842  0.00  0.00    +0.108 C 
ATOM      5  N   UNL     1      -1.251  -3.971   2.382  0.00  0.00    -0.232 NA
ATOM      6  H   UNL     1      -0.997  -4.845   1.948  0.00  0.00    +0.145 HD
ENDROOT
BRANCH   1  12
ATOM      7  C   UNL     1       1.804  -2.147  -2.153  0.00  0.00    +0.044 C 
ATOM      8  C   UNL     1       0.875  -1.753  -1.034  0.00  0.00    -0.049 A 
ATOM      9  C   UNL     1       0.162  -0.570  -1.113  0.00  0.00    +0.004 A 
ATOM     10  C   UNL     1      -0.692  -0.204  -0.089  0.00  0.00    +0.005 A 
ATOM     11  C   UNL     1      -0.835  -1.019   1.017  0.00  0.00    -0.028 A 
ATOM     12  C   UNL     1      -0.121  -2.208   1.099  0.00  0.00    +0.048 A 
ATOM     13  C   UNL     1       0.732  -2.575   0.066  0.00  0.00    +0.028 A 
ATOM     14  C   UNL     1      -1.765  -0.619   2.133  0.00  0.00    +0.046 C 
ENDBRANCH   1  12
BRANCH   4  15
ATOM     15  C   UNL     1      -2.052  -5.491   4.150  0.00  0.00    -0.029 A 
ATOM     16  C   UNL     1      -1.743  -6.584   3.362  0.00  0.00    +0.005 A 
ATOM     17  C   UNL     1      -2.295  -7.819   3.645  0.00  0.00    +0.000 A 
ATOM     18  C   UNL     1      -3.156  -7.962   4.717  0.00  0.00    +0.000 A 
ATOM     19  C   UNL     1      -3.465  -6.870   5.506  0.00  0.00    +0.000 A 
ATOM     20  C   UNL     1      -2.909  -5.635   5.226  0.00  0.00    +0.005 A 
ENDBRANCH   4  15
BRANCH   3  21
ATOM     21  C   UNL     1       0.716  -5.402   4.279  0.00  0.00    +0.091 C 
BRANCH  21  22
ATOM     22  N   UNL     1       2.099  -5.262   4.753  0.00  0.00    -0.298 NA
ATOM     23  C   UNL     1       2.135  -4.952   6.189  0.00  0.00    +0.105 C 
BRANCH  22  24
ATOM     24  C   UNL     1       2.882  -6.470   4.457  0.00  0.00    +0.156 C 
BRANCH  24  25
ATOM     25  C   UNL     1       4.340  -6.203   4.730  0.00  0.00    +0.099 A 
ATOM     26  H   UNL     1       5.153  -8.104   4.941  0.00  0.00    +0.167 HD
ATOM     27  N   UNL     1       4.896  -5.025   4.809  0.00  0.00    -0.349 N 
ATOM     28  C   UNL     1       6.205  -5.170   5.065  0.00  0.00    +0.105 A 
ATOM     29  C   UNL     1       6.470  -6.487   5.147  0.00  0.00    +0.030 A 
ATOM     30  N   UNL     1       5.286  -7.143   4.940  0.00  0.00    -0.346 N 
ATOM     31  C   UNL     1       7.811  -7.118   5.420  0.00  0.00    +0.065 C 
ATOM     32  H   UNL     1       4.435  -4.178   4.701  0.00  0.00    +0.166 HD
ENDBRANCH  24  25
ENDBRANCH  22  24
ENDBRANCH  21  22
ENDBRANCH   3  21
TORSDOF 6
