REMARK  Name = ZINC04803083
REMARK  4 active torsions:
REMARK  status: ('A' for Active; 'I' for Inactive)
REMARK    1  A    between atoms: N_4  and  N_5
REMARK    2  A    between atoms: C_6  and  C_7
REMARK    3  A    between atoms: C_6  and  C_9
REMARK    4  A    between atoms: C_12  and  N_15
REMARK                            x       y       z     vdW  Elec       q    Type
REMARK                         _______ _______ _______ _____ _____    ______ ____
ROOT
ATOM      1  N   UNL     1      -0.378   1.839  -0.064  0.00  0.00    -0.175 NA
ATOM      2  C   UNL     1       0.564   2.719   0.081  0.00  0.00    +0.079 C 
ENDROOT
BRANCH   1   6
ATOM      3  H   UNL     1      -2.628   0.822  -0.077  0.00  0.00    +0.159 HD
ATOM      4  C   UNL     1      -1.056  -0.461  -0.252  0.00  0.00    +0.187 C 
ATOM      5  N   UNL     1      -0.739  -1.793  -0.386  0.00  0.00    -0.370 N 
ATOM      6  N   UNL     1      -0.056   0.483  -0.201  0.00  0.00    -0.248 N 
ATOM      7  H   UNL     1       0.190  -2.067  -0.444  0.00  0.00    +0.159 HD
ATOM      8  H   UNL     1      -1.444  -2.458  -0.422  0.00  0.00    +0.159 HD
ATOM      9  H   UNL     1       0.873   0.209  -0.259  0.00  0.00    +0.192 HD
ATOM     10  N   UNL     1      -2.343  -0.152  -0.177  0.00  0.00    -0.370 N 
ATOM     11  H   UNL     1      -3.052  -0.893  -0.220  0.00  0.00    +0.159 HD
ENDBRANCH   1   6
BRANCH   2  12
ATOM     12  C   UNL     1       0.223   4.129   0.347  0.00  0.00    -0.001 A 
ATOM     13  C   UNL     1       1.235   5.077   0.509  0.00  0.00    +0.012 A 
ATOM     14  C   UNL     1       0.908   6.395   0.753  0.00  0.00    +0.033 A 
ATOM     15  C   UNL     1      -0.419   6.776   0.849  0.00  0.00    +0.126 A 
ATOM     16  C   UNL     1      -1.427   5.840   0.695  0.00  0.00    +0.033 A 
ATOM     17  C   UNL     1      -1.115   4.520   0.445  0.00  0.00    +0.012 A 
BRANCH  15  18
ATOM     18  N   UNL     1      -0.762   8.191   1.117  0.00  0.00    +0.056 N 
ATOM     19  O   UNL     1      -1.929   8.529   1.202  0.00  0.00    -0.126 OA
ATOM     20  O   UNL     1       0.122   9.016   1.254  0.00  0.00    -0.126 OA
ENDBRANCH  15  18
ENDBRANCH   2  12
BRANCH   2  21
ATOM     21  C   UNL     1       2.008   2.300  -0.024  0.00  0.00    +0.137 C 
ATOM     22 BR   UNL     1       2.638   1.675   1.730  0.00  0.00    -0.085 Br
ENDBRANCH   2  21
TORSDOF 4
