REMARK  Name = ZINC01420983
REMARK  7 active torsions:
REMARK  status: ('A' for Active; 'I' for Inactive)
REMARK    1  A    between atoms: C_1  and  O_2
REMARK    2  A    between atoms: O_2  and  C_3
REMARK    3  A    between atoms: C_3  and  C_5
REMARK    4  A    between atoms: C_6  and  N_26
REMARK    5  A    between atoms: C_12  and  C_24
REMARK    6  A    between atoms: C_15  and  C_17
REMARK    7  A    between atoms: C_24  and  O_25
REMARK                            x       y       z     vdW  Elec       q    Type
REMARK                         _______ _______ _______ _____ _____    ______ ____
ROOT
ATOM      1  C   UNL     1      -2.365   0.932  -0.085  0.00  0.00    +0.108 C 
ATOM      2  C   UNL     1      -1.239   1.615   0.250  0.00  0.00    +0.196 C 
ATOM      3  O   UNL     1      -1.248   2.952   0.372  0.00  0.00    -0.435 OA
ATOM      4  C   UNL     1      -2.419   3.609   0.550  0.00  0.00    +0.215 A 
ATOM      5  C   UNL     1      -2.397   4.927   1.090  0.00  0.00    +0.228 A 
ATOM      6  O   UNL     1      -1.344   5.470   1.387  0.00  0.00    -0.284 OA
ATOM      7  C   UNL     1      -3.639   5.588   1.270  0.00  0.00    +0.098 A 
ATOM      8  C   UNL     1      -4.769   4.941   0.926  0.00  0.00    +0.134 A 
ATOM      9  O   UNL     1      -4.756   3.709   0.424  0.00  0.00    -0.457 OA
ATOM     10  C   UNL     1      -3.604   3.047   0.236  0.00  0.00    +0.163 A 
ATOM     11  C   UNL     1      -3.659   1.653  -0.338  0.00  0.00    +0.131 C 
ENDROOT
BRANCH  11  12
ATOM     12  C   UNL     1      -3.902   1.734  -1.823  0.00  0.00    -0.029 A 
ATOM     13  C   UNL     1      -5.036   1.162  -2.369  0.00  0.00    +0.005 A 
ATOM     14  C   UNL     1      -5.261   1.236  -3.731  0.00  0.00    +0.003 A 
ATOM     15  C   UNL     1      -4.352   1.882  -4.548  0.00  0.00    +0.038 A 
ATOM     16  C   UNL     1      -3.216   2.455  -4.002  0.00  0.00    +0.124 A 
ATOM     17  C   UNL     1      -2.995   2.385  -2.637  0.00  0.00    +0.043 A 
ATOM     18  F   UNL     1      -2.328   3.087  -4.799  0.00  0.00    -0.205 F 
ENDBRANCH  11  12
BRANCH   2  19
ATOM     19  N   UNL     1      -0.076   0.927   0.472  0.00  0.00    -0.329 N 
ATOM     20  H   UNL     1       0.765   1.276   0.138  0.00  0.00    +0.145 HD
ATOM     21  H   UNL     1      -0.092   0.093   0.967  0.00  0.00    +0.145 HD
ENDBRANCH   2  19
BRANCH   1  22
ATOM     22  C   UNL     1      -2.320  -0.465  -0.196  0.00  0.00    +0.341 C 
ATOM     23  O   UNL     1      -1.254  -1.048  -0.110  0.00  0.00    -0.245 OA
BRANCH  22  25
ATOM     24  C   UNL     1      -3.337  -2.584  -0.502  0.00  0.00    +0.280 C 
ATOM     25  O   UNL     1      -3.458  -1.164  -0.399  0.00  0.00    -0.465 OA
ENDBRANCH  22  25
ENDBRANCH   1  22
BRANCH   8  26
ATOM     26  C   UNL     1      -6.092   5.637   1.115  0.00  0.00    +0.230 C 
BRANCH  26  27
ATOM     27  O   UNL     1      -6.422   6.364  -0.071  0.00  0.00    -0.387 OA
ATOM     28  H   UNL     1      -7.263   6.838  -0.021  0.00  0.00    +0.210 HD
ENDBRANCH  26  27
ENDBRANCH   8  26
TORSDOF 6
