REMARK  Name = ZINC09320818
REMARK  8 active torsions:
REMARK  status: ('A' for Active; 'I' for Inactive)
REMARK    1  A    between atoms: C_1  and  C_2
REMARK    2  A    between atoms: C_2  and  O_3
REMARK    3  A    between atoms: O_3  and  C_4
REMARK    4  A    between atoms: C_4  and  C_6
REMARK    5  A    between atoms: C_7  and  S_15
REMARK    6  A    between atoms: S_15  and  N_18
REMARK    7  A    between atoms: C_21  and  C_24
REMARK    8  A    between atoms: C_21  and  N_61
REMARK                            x       y       z     vdW  Elec       q    Type
REMARK                         _______ _______ _______ _____ _____    ______ ____
ROOT
ATOM      1  N   UNL     1      -3.531  -2.605   0.537  0.00  0.00    -0.177 NA
ATOM      2  C   UNL     1      -2.696  -3.262  -0.477  0.00  0.00    +0.108 C 
ATOM      3  C   UNL     1      -1.254  -2.770  -0.322  0.00  0.00    +0.014 C 
ATOM      4  C   UNL     1      -1.230  -1.241  -0.383  0.00  0.00    +0.015 C 
ATOM      5  C   UNL     1      -2.062  -0.671   0.769  0.00  0.00    +0.014 C 
ATOM      6  C   UNL     1      -3.514  -1.138   0.626  0.00  0.00    +0.108 C 
ENDROOT
BRANCH   4  12
ATOM      7  C   UNL     1       0.225   0.693  -0.400  0.00  0.00    -0.077 C 
ATOM      8  C   UNL     1       1.690   1.135  -0.421  0.00  0.00    -0.019 C 
ATOM      9  C   UNL     1       2.371   0.689   0.876  0.00  0.00    -0.004 C 
ATOM     10  C   UNL     1       2.242  -0.830   1.014  0.00  0.00    -0.019 C 
ATOM     11  C   UNL     1       0.761  -1.215   0.994  0.00  0.00    -0.077 C 
ATOM     12  N   UNL     1       0.170  -0.780  -0.290  0.00  0.00    +0.389 N 
ATOM     13  H   UNL     1       0.709  -1.192  -1.061  0.00  0.00    -0.080 HD
ENDBRANCH   4  12
BRANCH   4  14
ATOM     14  C   UNL     1      -1.810  -0.782  -1.696  0.00  0.00    +0.200 C 
ATOM     15  O   UNL     1      -2.963  -0.411  -1.753  0.00  0.00    -0.278 OA
ATOM     16  N   UNL     1      -1.047  -0.784  -2.807  0.00  0.00    -0.330 N 
ATOM     17  H   UNL     1      -0.149  -1.149  -2.777  0.00  0.00    +0.145 HD
ATOM     18  H   UNL     1      -1.396  -0.420  -3.635  0.00  0.00    +0.145 HD
ENDBRANCH   4  14
BRANCH   1  19
ATOM     19  S   UNL     1      -4.475  -3.500   1.562  0.00  0.00    +0.063 S 
ATOM     20  O   UNL     1      -5.525  -2.648   1.997  0.00  0.00    -0.153 OA
ATOM     21  O   UNL     1      -4.719  -4.739   0.911  0.00  0.00    -0.153 OA
BRANCH  19  23
ATOM     22  C   UNL     1      -2.605  -4.888   2.953  0.00  0.00    +0.124 A 
ATOM     23  C   UNL     1      -3.500  -3.863   2.984  0.00  0.00    +0.134 A 
ATOM     24  C   UNL     1      -3.641  -3.091   4.150  0.00  0.00    +0.016 A 
ATOM     25  C   UNL     1      -4.514  -1.995   4.378  0.00  0.00    +0.011 A 
ATOM     26  C   UNL     1      -4.529  -1.357   5.576  0.00  0.00    +0.001 A 
ATOM     27  C   UNL     1      -3.701  -1.748   6.622  0.00  0.00    +0.001 A 
ATOM     28  C   UNL     1      -2.840  -2.812   6.445  0.00  0.00    +0.016 A 
ATOM     29  C   UNL     1      -2.813  -3.470   5.234  0.00  0.00    +0.022 A 
ATOM     30  S   UNL     1      -1.892  -4.844   4.588  0.00  0.00    -0.080 S 
BRANCH  22  31
ATOM     31  C   UNL     1      -2.302  -5.805   1.847  0.00  0.00    +0.348 C 
ATOM     32  O   UNL     1      -2.962  -5.766   0.827  0.00  0.00    -0.244 OA
BRANCH  31  33
ATOM     33  O   UNL     1      -1.292  -6.690   1.963  0.00  0.00    -0.461 OA
BRANCH  33  35
ATOM     34  C   UNL     1       0.126  -8.493   1.145  0.00  0.00    +0.048 C 
ATOM     35  C   UNL     1      -1.049  -7.566   0.830  0.00  0.00    +0.229 C 
ENDBRANCH  33  35
ENDBRANCH  31  33
ENDBRANCH  22  31
ENDBRANCH  19  23
ENDBRANCH   1  19
TORSDOF 7
