REMARK  Name = ZINC19973155
REMARK  10 active torsions:
REMARK  status: ('A' for Active; 'I' for Inactive)
REMARK    1  A    between atoms: C_1  and  C_2
REMARK    2  A    between atoms: C_4  and  C_38
REMARK    3  A    between atoms: C_9  and  C_14
REMARK    4  A    between atoms: C_14  and  C_16
REMARK    5  A    between atoms: C_14  and  N_25
REMARK    6  A    between atoms: N_20  and  C_21
REMARK    7  A    between atoms: C_21  and  C_22
REMARK    8  A    between atoms: C_21  and  C_23
REMARK    9  A    between atoms: C_21  and  C_24
REMARK   10  A    between atoms: N_28  and  C_31
REMARK                            x       y       z     vdW  Elec       q    Type
REMARK                         _______ _______ _______ _____ _____    ______ ____
ROOT
ATOM      1  C   UNL     1       1.183   3.725   0.046  0.00  0.00    +0.162 C 
ENDROOT
BRANCH   1  10
ATOM      2  C   UNL     1      -1.364  -3.259   0.638  0.00  0.00    +0.044 C 
ATOM      3  C   UNL     1      -0.223  -2.275   0.597  0.00  0.00    -0.050 A 
ATOM      4  C   UNL     1       1.083  -2.731   0.715  0.00  0.00    +0.008 A 
ATOM      5  C   UNL     1       2.141  -1.849   0.681  0.00  0.00    -0.026 A 
ATOM      6  C   UNL     1       1.901  -0.487   0.526  0.00  0.00    +0.052 A 
ATOM      7  C   UNL     1       0.575  -0.029   0.406  0.00  0.00    -0.001 A 
ATOM      8  C   UNL     1      -0.483  -0.943   0.444  0.00  0.00    +0.013 A 
ATOM      9  C   UNL     1       0.333   1.405   0.243  0.00  0.00    +0.021 A 
ATOM     10  C   UNL     1       1.398   2.243   0.213  0.00  0.00    +0.042 A 
ATOM     11  C   UNL     1       2.708   1.732   0.337  0.00  0.00    +0.254 A 
ATOM     12  O   UNL     1       3.651   2.503   0.308  0.00  0.00    -0.268 OA
ATOM     13  N   UNL     1       2.941   0.417   0.487  0.00  0.00    -0.322 N 
ATOM     14  H   UNL     1       3.979   0.065   0.580  0.00  0.00    +0.169 HD
ATOM     15  C   UNL     1       3.554  -2.358   0.810  0.00  0.00    +0.046 C 
ENDBRANCH   1  10
BRANCH   1  16
ATOM     16  N   UNL     1       1.837   4.443   1.149  0.00  0.00    -0.286 NA
ATOM     17  C   UNL     1       1.348   3.965   2.450  0.00  0.00    +0.104 C 
ATOM     18  C   UNL     1       2.109   4.679   3.570  0.00  0.00    +0.120 C 
ATOM     19  N   UNL     1       1.920   6.130   3.440  0.00  0.00    -0.325 N 
ATOM     20  C   UNL     1       2.408   6.607   2.139  0.00  0.00    +0.120 C 
ATOM     21  C   UNL     1       1.647   5.894   1.019  0.00  0.00    +0.104 C 
BRANCH  19  22
ATOM     22  C   UNL     1       2.542   6.813   4.490  0.00  0.00    +0.065 A 
ATOM     23  C   UNL     1       2.420   8.192   4.593  0.00  0.00    +0.026 A 
ATOM     24  C   UNL     1       3.033   8.863   5.633  0.00  0.00    +0.002 A 
ATOM     25  C   UNL     1       3.775   8.165   6.567  0.00  0.00    +0.003 A 
ATOM     26  C   UNL     1       3.904   6.792   6.467  0.00  0.00    +0.040 A 
ATOM     27  C   UNL     1       3.290   6.113   5.431  0.00  0.00    +0.144 A 
ATOM     28  F   UNL     1       3.417   4.771   5.332  0.00  0.00    -0.204 F 
ENDBRANCH  19  22
ENDBRANCH   1  16
BRANCH   1  29
ATOM     29  C   UNL     1       1.774   4.174  -1.265  0.00  0.00    +0.174 A 
ATOM     30  N   UNL     1       3.048   4.240  -1.568  0.00  0.00    -0.111 NA
ATOM     31  N   UNL     1       3.148   4.667  -2.779  0.00  0.00    -0.023 NA
ATOM     32  N   UNL     1       1.971   4.882  -3.255  0.00  0.00    -0.043 NA
ATOM     33  N   UNL     1       1.097   4.590  -2.352  0.00  0.00    -0.222 N 
BRANCH  33  34
ATOM     34  C   UNL     1      -0.358   4.692  -2.484  0.00  0.00    +0.059 C 
ATOM     35  C   UNL     1      -0.892   5.712  -1.477  0.00  0.00    +0.036 C 
ATOM     36  C   UNL     1      -0.711   5.143  -3.903  0.00  0.00    +0.036 C 
ATOM     37  C   UNL     1      -0.992   3.326  -2.211  0.00  0.00    +0.036 C 
ENDBRANCH  33  34
ENDBRANCH   1  29
TORSDOF 5
