REMARK  Name = ZINC49978982
REMARK  6 active torsions:
REMARK  status: ('A' for Active; 'I' for Inactive)
REMARK    1  A    between atoms: C_1  and  C_2
REMARK    2  A    between atoms: C_6  and  N_8
REMARK    3  A    between atoms: N_8  and  C_9
REMARK    4  A    between atoms: N_8  and  S_10
REMARK    5  A    between atoms: S_10  and  C_13
REMARK    6  A    between atoms: C_15  and  N_20
REMARK                            x       y       z     vdW  Elec       q    Type
REMARK                         _______ _______ _______ _____ _____    ______ ____
ROOT
ATOM      1  S   UNL     1      -0.646  -4.296   2.479  0.00  0.00    +0.076 S 
ATOM      2  O   UNL     1      -0.026  -5.239   1.615  0.00  0.00    -0.150 OA
ATOM      3  O   UNL     1      -0.698  -4.473   3.888  0.00  0.00    -0.150 OA
ENDROOT
BRANCH   1   4
ATOM      4  C   UNL     1      -2.312  -4.130   1.930  0.00  0.00    +0.129 A 
ATOM      5  C   UNL     1      -2.754  -4.850   0.838  0.00  0.00    +0.053 A 
ATOM      6  C   UNL     1      -4.067  -4.719   0.406  0.00  0.00    +0.027 A 
ATOM      7  C   UNL     1      -4.933  -3.863   1.075  0.00  0.00    +0.024 A 
ATOM      8  C   UNL     1      -4.486  -3.144   2.166  0.00  0.00    +0.024 A 
ATOM      9  C   UNL     1      -3.178  -3.281   2.597  0.00  0.00    +0.068 A 
ATOM     10 CL   UNL     1      -2.620  -2.382   3.974  0.00  0.00    -0.082 Cl
BRANCH   6  11
ATOM     11  N   UNL     1      -4.517  -5.447  -0.699  0.00  0.00    -0.358 N 
ATOM     12  H   UNL     1      -3.912  -6.044  -1.165  0.00  0.00    +0.142 HD
ATOM     13  H   UNL     1      -5.434  -5.354  -1.000  0.00  0.00    +0.142 HD
ENDBRANCH   6  11
ENDBRANCH   1   4
BRANCH   1  14
ATOM     14  N   UNL     1       0.105  -2.845   2.211  0.00  0.00    -0.206 N 
ATOM     15  C   UNL     1       0.524  -2.016   3.345  0.00  0.00    +0.157 C 
BRANCH  14  21
ATOM     16  C   UNL     1       0.859   0.842  -0.950  0.00  0.00    +0.044 C 
ATOM     17  C   UNL     1       0.710  -0.628  -0.657  0.00  0.00    -0.049 A 
ATOM     18  C   UNL     1       0.805  -1.550  -1.684  0.00  0.00    +0.003 A 
ATOM     19  C   UNL     1       0.669  -2.901  -1.420  0.00  0.00    +0.002 A 
ATOM     20  C   UNL     1       0.436  -3.333  -0.129  0.00  0.00    +0.025 A 
ATOM     21  C   UNL     1       0.340  -2.410   0.904  0.00  0.00    +0.051 A 
ATOM     22  C   UNL     1       0.483  -1.055   0.636  0.00  0.00    +0.028 A 
ENDBRANCH  14  21
ENDBRANCH   1  14
TORSDOF 4
