REMARK  Name = ZINC39595829
REMARK  8 active torsions:
REMARK  status: ('A' for Active; 'I' for Inactive)
REMARK    1  A    between atoms: C_1  and  C_2
REMARK    2  A    between atoms: C_2  and  C_4
REMARK    3  A    between atoms: C_2  and  O_32
REMARK    4  A    between atoms: C_4  and  N_5
REMARK    5  A    between atoms: C_6  and  C_8
REMARK    6  A    between atoms: C_19  and  C_21
REMARK    7  A    between atoms: C_23  and  C_28
REMARK    8  A    between atoms: O_32  and  C_33
REMARK                            x       y       z     vdW  Elec       q    Type
REMARK                         _______ _______ _______ _____ _____    ______ ____
ROOT
ATOM      1  C   UNL     1       1.620  -3.904   1.875  0.00  0.00    +0.100 C 
ATOM      2  C   UNL     1       0.219  -4.545   1.757  0.00  0.00    +0.121 C 
ATOM      3  N   UNL     1       0.314  -5.800   2.540  0.00  0.00    -0.296 N 
ATOM      4  C   UNL     1       1.132  -5.436   3.722  0.00  0.00    +0.115 C 
ATOM      5  C   UNL     1       2.215  -4.491   3.166  0.00  0.00    -0.004 C 
ATOM      6  C   UNL     1       3.488  -5.272   2.853  0.00  0.00    -0.010 C 
ATOM      7  C   UNL     1       4.092  -5.798   4.159  0.00  0.00    -0.082 C 
ATOM      8  N   UNL     1       4.393  -4.671   5.050  0.00  0.00    +0.379 N 
ATOM      9  C   UNL     1       3.151  -3.980   5.420  0.00  0.00    -0.082 C 
ATOM     10  C   UNL     1       2.507  -3.378   4.168  0.00  0.00    -0.010 C 
ATOM     11  C   UNL     1      -0.221  -7.001   2.243  0.00  0.00    +0.247 C 
ATOM     12  O   UNL     1      -0.779  -7.171   1.177  0.00  0.00    -0.270 OA
ATOM     13  H   UNL     1       4.846  -5.015   5.883  0.00  0.00    -0.086 HD
ATOM     14  H   UNL     1       5.007  -4.026   4.577  0.00  0.00    -0.086 HD
ENDROOT
BRANCH  11  15
ATOM     15  C   UNL     1      -0.130  -8.111   3.216  0.00  0.00    +0.040 A 
ATOM     16  C   UNL     1      -0.188  -9.434   2.775  0.00  0.00    +0.025 A 
ATOM     17  C   UNL     1      -0.102 -10.467   3.686  0.00  0.00    +0.058 A 
ATOM     18  C   UNL     1       0.042 -10.194   5.035  0.00  0.00    +0.050 A 
ATOM     19  C   UNL     1       0.100  -8.883   5.480  0.00  0.00    +0.125 A 
ATOM     20  C   UNL     1       0.021  -7.840   4.576  0.00  0.00    +0.051 A 
ATOM     21  F   UNL     1       0.240  -8.623   6.798  0.00  0.00    -0.205 F 
BRANCH  17  22
ATOM     22  C   UNL     1      -0.165 -11.895   3.211  0.00  0.00    +0.418 C 
ATOM     23  F   UNL     1       1.127 -12.350   2.927  0.00  0.00    -0.166 F 
ATOM     24  F   UNL     1      -0.731 -12.694   4.211  0.00  0.00    -0.166 F 
ATOM     25  F   UNL     1      -0.950 -11.968   2.056  0.00  0.00    -0.166 F 
ENDBRANCH  17  22
ENDBRANCH  11  15
BRANCH   1  27
ATOM     26  N   UNL     1       2.483  -1.616   1.501  0.00  0.00    -0.312 N 
ATOM     27  C   UNL     1       1.504  -2.405   1.985  0.00  0.00    +0.218 C 
ATOM     28  O   UNL     1       0.529  -1.910   2.510  0.00  0.00    -0.275 OA
ATOM     29  H   UNL     1       3.262  -2.013   1.081  0.00  0.00    +0.149 HD
BRANCH  26  30
ATOM     30  C   UNL     1       2.370  -0.159   1.607  0.00  0.00    +0.148 C 
BRANCH  30  32
ATOM     31  C   UNL     1       3.547   2.008   1.207  0.00  0.00    +0.053 C 
ATOM     32  C   UNL     1       3.605   0.495   0.985  0.00  0.00    +0.187 C 
BRANCH  32  33
ATOM     33  O   UNL     1       3.634   0.220  -0.417  0.00  0.00    -0.488 OA
BRANCH  33  34
ATOM     34  C   UNL     1       4.848   0.255  -1.027  0.00  0.00    +0.121 A 
ATOM     35  C   UNL     1       5.998   0.442  -0.275  0.00  0.00    +0.048 A 
ATOM     36  C   UNL     1       7.231   0.477  -0.897  0.00  0.00    +0.042 A 
ATOM     37  C   UNL     1       7.320   0.326  -2.270  0.00  0.00    +0.124 A 
ATOM     38  C   UNL     1       6.172   0.139  -3.022  0.00  0.00    +0.042 A 
ATOM     39  C   UNL     1       4.939   0.097  -2.402  0.00  0.00    +0.048 A 
ATOM     40  F   UNL     1       8.526   0.360  -2.877  0.00  0.00    -0.205 F 
ENDBRANCH  33  34
ENDBRANCH  32  33
ENDBRANCH  30  32
ENDBRANCH  26  30
ENDBRANCH   1  27
TORSDOF 7
