REMARK  Name = ZINC34256005
REMARK  9 active torsions:
REMARK  status: ('A' for Active; 'I' for Inactive)
REMARK    1  A    between atoms: C_1  and  C_2
REMARK    2  A    between atoms: C_2  and  C_4
REMARK    3  A    between atoms: C_2  and  O_33
REMARK    4  A    between atoms: C_4  and  C_30
REMARK    5  A    between atoms: C_9  and  C_12
REMARK    6  A    between atoms: N_23  and  C_26
REMARK    7  A    between atoms: C_26  and  C_27
REMARK    8  A    between atoms: C_26  and  C_28
REMARK    9  A    between atoms: C_26  and  C_29
REMARK                            x       y       z     vdW  Elec       q    Type
REMARK                         _______ _______ _______ _____ _____    ______ ____
ROOT
ATOM      1  C   UNL     1       0.636  -0.246   1.313  0.00  0.00    +0.074 C 
ATOM      2  C   UNL     1       0.524  -1.764   1.210  0.00  0.00    +0.088 C 
ATOM      3  C   UNL     1       0.982  -2.094   2.681  0.00  0.00    +0.077 C 
ATOM      4  C   UNL     1       0.174  -1.185   3.503  0.00  0.00    -0.025 C 
ATOM      5  N   UNL     1       0.022   0.049   2.648  0.00  0.00    +0.397 N 
ATOM      6  C   UNL     1       1.317  -3.494   2.583  0.00  0.00    +0.225 C 
ATOM      7  O   UNL     1       1.187  -4.346   3.437  0.00  0.00    -0.275 OA
ATOM      8  N   UNL     1       1.814  -3.652   1.314  0.00  0.00    -0.236 N 
ATOM      9  C   UNL     1       1.565  -2.569   0.497  0.00  0.00    +0.225 C 
ATOM     10  O   UNL     1       2.079  -2.312  -0.570  0.00  0.00    -0.275 OA
ATOM     11  H   UNL     1       0.495   0.831   3.077  0.00  0.00    -0.083 HD
ATOM     12  H   UNL     1      -0.958   0.260   2.536  0.00  0.00    -0.083 HD
ENDROOT
BRANCH   4  13
ATOM     13  C   UNL     1      -1.164  -1.806   3.815  0.00  0.00    -0.039 A 
ATOM     14  C   UNL     1      -2.245  -1.569   2.987  0.00  0.00    +0.023 A 
ATOM     15  C   UNL     1      -3.473  -2.138   3.272  0.00  0.00    +0.043 A 
ATOM     16  C   UNL     1      -3.619  -2.945   4.387  0.00  0.00    +0.041 A 
ATOM     17  C   UNL     1      -2.538  -3.183   5.215  0.00  0.00    +0.061 A 
ATOM     18  C   UNL     1      -1.307  -2.616   4.926  0.00  0.00    +0.061 A 
ATOM     19 CL   UNL     1       0.053  -2.919   5.961  0.00  0.00    -0.082 Cl
ATOM     20 CL   UNL     1      -2.721  -4.194   6.614  0.00  0.00    -0.082 Cl
ATOM     21 CL   UNL     1      -4.831  -1.840   2.233  0.00  0.00    -0.083 Cl
ENDBRANCH   4  13
BRANCH   8  22
ATOM     22  C   UNL     1       2.525  -4.852   0.864  0.00  0.00    +0.036 C 
ATOM     23  C   UNL     1       2.610  -5.856   2.016  0.00  0.00    +0.031 C 
ATOM     24  C   UNL     1       1.770  -5.483  -0.308  0.00  0.00    +0.031 C 
ATOM     25  C   UNL     1       3.937  -4.470   0.415  0.00  0.00    +0.031 C 
ENDBRANCH   8  22
BRANCH   1  26
ATOM     26  C   UNL     1       2.078   0.189   1.281  0.00  0.00    +0.349 C 
ATOM     27  O   UNL     1       2.563   0.764   2.241  0.00  0.00    -0.248 OA
ATOM     28  O   UNL     1       2.761  -0.035   0.296  0.00  0.00    -0.248 OA
ENDBRANCH   1  26
BRANCH   1  30
ATOM     29  C   UNL     1      -0.126   1.948   0.392  0.00  0.00    +0.037 C 
ATOM     30  C   UNL     1      -0.156   0.431   0.192  0.00  0.00    +0.112 C 
BRANCH  30  31
ATOM     31  O   UNL     1       0.431   0.105  -1.069  0.00  0.00    -0.393 OA
ATOM     32  H   UNL     1       1.351   0.387  -1.160  0.00  0.00    +0.210 HD
ENDBRANCH  30  31
ENDBRANCH   1  30
TORSDOF 5
