REMARK  Name = ZINC37896701
REMARK  3 active torsions:
REMARK  status: ('A' for Active; 'I' for Inactive)
REMARK    1  A    between atoms: C_3  and  C_11
REMARK    2  A    between atoms: C_16  and  C_19
REMARK    3  A    between atoms: C_19  and  O_20
REMARK                            x       y       z     vdW  Elec       q    Type
REMARK                         _______ _______ _______ _____ _____    ______ ____
ROOT
ATOM      1  C   UNL     1      -0.074   1.904   0.533  0.00  0.00    +0.020 C 
ATOM      2  C   UNL     1       1.381   2.374   0.462  0.00  0.00    +0.016 C 
ATOM      3  C   UNL     1       2.225   1.580   1.462  0.00  0.00    +0.093 C 
ATOM      4  C   UNL     1       2.179   0.093   1.094  0.00  0.00    +0.122 C 
ATOM      5  N   UNL     1       0.775  -0.332   1.018  0.00  0.00    -0.285 N 
ATOM      6  C   UNL     1      -0.145   0.421   0.155  0.00  0.00    +0.109 C 
ATOM      7  C   UNL     1       0.339  -1.393   1.726  0.00  0.00    +0.300 C 
ATOM      8  O   UNL     1       1.087  -1.953   2.504  0.00  0.00    -0.253 OA
ATOM      9  N   UNL     1      -0.925  -1.833   1.571  0.00  0.00    -0.313 N 
ATOM     10  H   UNL     1      -1.498  -1.436   0.896  0.00  0.00    +0.146 HD
ATOM     11  H   UNL     1      -1.262  -2.548   2.134  0.00  0.00    +0.146 HD
ENDROOT
BRANCH   3  12
ATOM     12  C   UNL     1       3.651   2.067   1.415  0.00  0.00    +0.220 C 
ATOM     13  O   UNL     1       4.064   2.638   0.428  0.00  0.00    -0.275 OA
ATOM     14  N   UNL     1       4.466   1.867   2.469  0.00  0.00    -0.301 N 
ATOM     15  C   UNL     1       3.953   1.267   3.709  0.00  0.00    +0.108 C 
ATOM     16  C   UNL     1       4.827   0.063   4.072  0.00  0.00    +0.025 C 
ATOM     17  C   UNL     1       6.291   0.503   4.146  0.00  0.00    +0.017 C 
ATOM     18  C   UNL     1       6.736   1.028   2.779  0.00  0.00    +0.025 C 
ATOM     19  C   UNL     1       5.886   2.238   2.399  0.00  0.00    +0.108 C 
BRANCH  17  20
ATOM     20  C   UNL     1       7.163  -0.690   4.542  0.00  0.00    +0.159 C 
BRANCH  20  21
ATOM     21  O   UNL     1       8.512  -0.254   4.724  0.00  0.00    -0.395 OA
ATOM     22  H   UNL     1       9.122  -0.960   4.978  0.00  0.00    +0.209 HD
ENDBRANCH  20  21
ENDBRANCH  17  20
ENDBRANCH   3  12
TORSDOF 3
