REMARK  Name = ZINC21013287
REMARK  6 active torsions:
REMARK  status: ('A' for Active; 'I' for Inactive)
REMARK    1  A    between atoms: C_1  and  C_2
REMARK    2  A    between atoms: C_4  and  N_20
REMARK    3  A    between atoms: C_6  and  C_9
REMARK    4  A    between atoms: C_7  and  C_8
REMARK    5  A    between atoms: C_9  and  C_11
REMARK    6  A    between atoms: C_9  and  N_19
REMARK                            x       y       z     vdW  Elec       q    Type
REMARK                         _______ _______ _______ _____ _____    ______ ____
ROOT
ATOM      1  C   UNL     1       3.723  -0.710  -0.090  0.00  0.00    -0.010 C 
ENDROOT
BRANCH   1   7
ATOM      2  C   UNL     1       0.955   3.421  -0.658  0.00  0.00    +0.044 C 
ATOM      3  C   UNL     1       1.056   1.920  -0.566  0.00  0.00    -0.045 A 
ATOM      4  C   UNL     1      -0.082   1.143  -0.669  0.00  0.00    +0.036 A 
ATOM      5  C   UNL     1       0.011  -0.234  -0.585  0.00  0.00    +0.127 A 
ATOM      6  C   UNL     1       1.242  -0.833  -0.398  0.00  0.00    +0.035 A 
ATOM      7  C   UNL     1       2.381  -0.056  -0.295  0.00  0.00    -0.052 A 
ATOM      8  C   UNL     1       2.288   1.320  -0.380  0.00  0.00    -0.046 A 
ATOM      9  C   UNL     1       3.529   2.168  -0.268  0.00  0.00    +0.044 C 
BRANCH   5  10
ATOM     10  N   UNL     1      -1.209  -1.066  -0.696  0.00  0.00    +0.056 N 
ATOM     11  O   UNL     1      -2.294  -0.538  -0.860  0.00  0.00    -0.126 OA
ATOM     12  O   UNL     1      -1.127  -2.279  -0.622  0.00  0.00    -0.126 OA
ENDBRANCH   5  10
ENDBRANCH   1   7
BRANCH   1  13
ATOM     13  C   UNL     1       3.525  -2.132   0.369  0.00  0.00    -0.021 A 
ATOM     14  C   UNL     1       3.519  -3.161  -0.553  0.00  0.00    +0.020 A 
ATOM     15  C   UNL     1       3.338  -4.466  -0.132  0.00  0.00    +0.018 A 
ATOM     16  C   UNL     1       3.161  -4.742   1.212  0.00  0.00    +0.018 A 
ATOM     17  C   UNL     1       3.167  -3.713   2.135  0.00  0.00    +0.039 A 
ATOM     18  C   UNL     1       3.354  -2.407   1.714  0.00  0.00    +0.125 A 
ATOM     19  F   UNL     1       3.364  -1.402   2.617  0.00  0.00    -0.205 F 
ATOM     20 BR   UNL     1       3.330  -5.874  -1.394  0.00  0.00    -0.050 Br
ENDBRANCH   1  13
BRANCH   1  21
ATOM     21  N   UNL     1       4.469  -0.704  -1.356  0.00  0.00    +0.385 N 
ATOM     22  H   UNL     1       5.449  -1.181  -1.207  0.00  0.00    -0.089 HD
ATOM     23  H   UNL     1       4.614   0.334  -1.691  0.00  0.00    -0.089 HD
ATOM     24  H   UNL     1       3.903  -1.259  -2.118  0.00  0.00    -0.089 HD
ENDBRANCH   1  21
TORSDOF 4
