REMARK  Name = ZINC42458529
REMARK  9 active torsions:
REMARK  status: ('A' for Active; 'I' for Inactive)
REMARK    1  A    between atoms: C_1  and  C_2
REMARK    2  A    between atoms: C_2  and  C_4
REMARK    3  A    between atoms: C_2  and  C_16
REMARK    4  A    between atoms: C_4  and  N_5
REMARK    5  A    between atoms: N_5  and  C_6
REMARK    6  A    between atoms: C_9  and  C_13
REMARK    7  A    between atoms: C_13  and  C_14
REMARK    8  A    between atoms: C_13  and  C_15
REMARK    9  A    between atoms: N_17  and  O_18
REMARK                            x       y       z     vdW  Elec       q    Type
REMARK                         _______ _______ _______ _____ _____    ______ ____
ROOT
ATOM      1  N   UNL     1       2.148  -0.104   1.172  0.00  0.00    -0.317 N 
ATOM      2  C   UNL     1       2.569   1.177   1.745  0.00  0.00    +0.130 C 
ATOM      3  C   UNL     1       3.079  -0.930   0.563  0.00  0.00    +0.124 A 
ATOM      4  C   UNL     1       2.674  -2.100  -0.083  0.00  0.00    +0.067 A 
ATOM      5  C   UNL     1       3.640  -2.890  -0.674  0.00  0.00    +0.049 A 
ATOM      6  N   UNL     1       4.910  -2.515  -0.610  0.00  0.00    -0.240 NA
ATOM      7  C   UNL     1       5.260  -1.405   0.007  0.00  0.00    +0.223 A 
ATOM      8  N   UNL     1       4.371  -0.619   0.580  0.00  0.00    -0.221 NA
ENDROOT
BRANCH   5   9
ATOM      9  C   UNL     1       3.255  -4.162  -1.384  0.00  0.00    +0.032 C 
ATOM     10  C   UNL     1       3.158  -5.303  -0.369  0.00  0.00    +0.014 C 
ATOM     11  C   UNL     1       1.901  -3.974  -2.071  0.00  0.00    +0.014 C 
ENDBRANCH   5   9
BRANCH   1  12
ATOM     12  C   UNL     1       0.742  -0.511   1.242  0.00  0.00    +0.117 C 
BRANCH  12  14
ATOM     13  C   UNL     1      -0.019   1.526   0.010  0.00  0.00    +0.017 C 
ATOM     14  C   UNL     1       0.002  -0.004   0.002  0.00  0.00    +0.070 C 
BRANCH  14  15
ATOM     15  C   UNL     1      -1.412  -0.526   0.013  0.00  0.00    +0.136 C 
ATOM     16  N   UNL     1      -2.364   0.200   0.498  0.00  0.00    -0.076 NA
ATOM     17  N   UNL     1      -1.688  -1.775  -0.495  0.00  0.00    -0.344 N 
ATOM     18  H   UNL     1      -0.973  -2.320  -0.860  0.00  0.00    +0.144 HD
ATOM     19  H   UNL     1      -2.599  -2.111  -0.489  0.00  0.00    +0.144 HD
BRANCH  16  20
ATOM     20  O   UNL     1      -3.692  -0.291   0.509  0.00  0.00    -0.408 OA
ATOM     21  H   UNL     1      -4.335   0.322   0.891  0.00  0.00    +0.328 HD
ENDBRANCH  16  20
ENDBRANCH  14  15
ENDBRANCH  12  14
ENDBRANCH   1  12
TORSDOF 5
