REMARK  Name = ZINC63684002
REMARK  7 active torsions:
REMARK  status: ('A' for Active; 'I' for Inactive)
REMARK    1  A    between atoms: C_1  and  C_2
REMARK    2  A    between atoms: C_2  and  C_3
REMARK    3  A    between atoms: C_3  and  C_4
REMARK    4  A    between atoms: C_4  and  C_5
REMARK    5  A    between atoms: C_5  and  C_6
REMARK    6  A    between atoms: C_6  and  N_7
REMARK    7  A    between atoms: C_10  and  C_16
REMARK                            x       y       z     vdW  Elec       q    Type
REMARK                         _______ _______ _______ _____ _____    ______ ____
ROOT
ATOM      1  N   UNL     1      -4.202  -4.630   0.017  0.00  0.00    -0.288 N 
ATOM      2  C   UNL     1      -4.820  -4.863   1.192  0.00  0.00    +0.260 A 
ATOM      3  O   UNL     1      -4.240  -4.652   2.243  0.00  0.00    -0.267 OA
ATOM      4  C   UNL     1      -6.139  -5.349   1.197  0.00  0.00    +0.070 A 
ATOM      5  C   UNL     1      -6.766  -5.576   0.007  0.00  0.00    +0.257 A 
ATOM      6  N   UNL     1      -6.100  -5.326  -1.165  0.00  0.00    -0.302 N 
ATOM      7  C   UNL     1      -4.839  -4.855  -1.146  0.00  0.00    +0.163 A 
ATOM      8  S   UNL     1      -4.032  -4.544  -2.624  0.00  0.00    -0.013 S 
ATOM      9  O   UNL     1      -8.032  -6.043  -0.017  0.00  0.00    -0.267 OA
ATOM     10  H   UNL     1      -6.541  -5.486  -2.014  0.00  0.00    +0.171 HD
ENDROOT
BRANCH   4  11
ATOM     11  C   UNL     1      -6.851  -5.617   2.498  0.00  0.00    -0.003 C 
ATOM     12  C   UNL     1      -6.140  -6.744   3.251  0.00  0.00    +0.097 C 
ATOM     13  C   UNL     1      -6.826  -6.846   4.609  0.00  0.00    -0.041 C 
ATOM     14  C   UNL     1      -7.197  -8.111   4.748  0.00  0.00    -0.001 A 
ATOM     15  C   UNL     1      -7.816  -8.835   5.870  0.00  0.00    +0.010 A 
ATOM     16  C   UNL     1      -8.080 -10.152   5.661  0.00  0.00    +0.001 A 
ATOM     17  C   UNL     1      -7.792 -10.814   4.463  0.00  0.00    +0.002 A 
ATOM     18  C   UNL     1      -7.217 -10.228   3.383  0.00  0.00    +0.026 A 
ATOM     19  C   UNL     1      -6.888  -8.845   3.483  0.00  0.00    +0.043 A 
ATOM     20  N   UNL     1      -6.307  -8.047   2.609  0.00  0.00    -0.379 N 
ATOM     21  C   UNL     1      -7.058  -5.626   5.468  0.00  0.00    +0.014 C 
ATOM     22  C   UNL     1      -7.651  -4.554   4.535  0.00  0.00    -0.077 C 
ATOM     23  N   UNL     1      -6.822  -4.409   3.336  0.00  0.00    +0.386 N 
ATOM     24  H   UNL     1      -5.870  -4.226   3.616  0.00  0.00    -0.085 HD
ATOM     25  H   UNL     1      -6.040  -8.272   1.704  0.00  0.00    +0.160 HD
ATOM     26  H   UNL     1      -7.159  -3.626   2.796  0.00  0.00    -0.085 HD
ENDBRANCH   4  11
BRANCH   1  27
ATOM     27  C   UNL     1      -2.827  -4.123   0.007  0.00  0.00    +0.127 C 
BRANCH  27  28
ATOM     28  C   UNL     1      -2.848  -2.593   0.015  0.00  0.00    +0.022 C 
BRANCH  28  29
ATOM     29  C   UNL     1      -1.413  -2.063   0.004  0.00  0.00    +0.002 C 
BRANCH  29  30
ATOM     30  C   UNL     1      -1.433  -0.534   0.013  0.00  0.00    -0.000 C 
BRANCH  30  32
ATOM     31  C   UNL     1      -0.019   1.526   0.010  0.00  0.00    +0.004 C 
ATOM     32  C   UNL     1       0.002  -0.004   0.002  0.00  0.00    -0.003 C 
ENDBRANCH  30  32
ENDBRANCH  29  30
ENDBRANCH  28  29
ENDBRANCH  27  28
ENDBRANCH   1  27
TORSDOF 6
