REMARK  Name = ZINC12465983
REMARK  6 active torsions:
REMARK  status: ('A' for Active; 'I' for Inactive)
REMARK    1  A    between atoms: C_1  and  C_2
REMARK    2  A    between atoms: C_7  and  C_8
REMARK    3  A    between atoms: N_10  and  N_11
REMARK    4  A    between atoms: C_15  and  C_19
REMARK    5  A    between atoms: C_15  and  C_20
REMARK    6  A    between atoms: C_17  and  C_18
REMARK                            x       y       z     vdW  Elec       q    Type
REMARK                         _______ _______ _______ _____ _____    ______ ____
ROOT
ATOM      1  C   UNL     1      -0.979   1.733  -0.048  0.00  0.00    +0.044 C 
ATOM      2  C   UNL     1      -1.142   0.235  -0.085  0.00  0.00    -0.046 A 
ATOM      3  C   UNL     1      -1.498  -0.374  -1.277  0.00  0.00    +0.013 A 
ATOM      4  C   UNL     1      -1.652  -1.761  -1.319  0.00  0.00    +0.000 A 
ATOM      5  C   UNL     1      -1.439  -2.476  -0.151  0.00  0.00    +0.055 A 
ATOM      6  C   UNL     1      -1.083  -1.877   1.047  0.00  0.00    +0.032 A 
ATOM      7  C   UNL     1      -0.928  -0.494   1.073  0.00  0.00    -0.036 A 
ATOM      8  C   UNL     1      -0.535   0.203   2.349  0.00  0.00    +0.045 C 
ATOM      9  C   UNL     1      -0.962  -2.994   2.009  0.00  0.00    +0.152 C 
ATOM     10  N   UNL     1      -0.642  -2.921   3.280  0.00  0.00    -0.184 NA
ATOM     11  C   UNL     1      -1.278  -4.211   1.230  0.00  0.00    +0.272 C 
ATOM     12  O   UNL     1      -1.290  -5.351   1.659  0.00  0.00    -0.268 OA
ATOM     13  N   UNL     1      -1.551  -3.843  -0.036  0.00  0.00    -0.256 N 
ATOM     14  C   UNL     1      -1.927  -4.585  -1.251  0.00  0.00    +0.056 C 
ATOM     15  C   UNL     1      -2.160  -3.805  -2.525  0.00  0.00    +0.002 C 
ATOM     16  C   UNL     1      -2.030  -2.482  -2.550  0.00  0.00    -0.043 C 
ATOM     17  C   UNL     1      -2.267  -1.722  -3.829  0.00  0.00    +0.044 C 
ATOM     18  C   UNL     1      -0.824  -5.609  -1.529  0.00  0.00    +0.036 C 
ATOM     19  C   UNL     1      -3.207  -5.364  -0.943  0.00  0.00    +0.036 C 
ENDROOT
BRANCH  10  20
ATOM     20  N   UNL     1      -0.605  -1.775   3.871  0.00  0.00    -0.282 N 
ATOM     21  H   UNL     1      -1.299  -1.119   3.702  0.00  0.00    +0.164 HD
ATOM     22  H   UNL     1       0.118  -1.569   4.485  0.00  0.00    +0.164 HD
ENDBRANCH  10  20
TORSDOF 1
