REMARK  Name = ZINC37142897
REMARK  6 active torsions:
REMARK  status: ('A' for Active; 'I' for Inactive)
REMARK    1  A    between atoms: C_1  and  C_2
REMARK    2  A    between atoms: C_2  and  C_3
REMARK    3  A    between atoms: C_3  and  S_4
REMARK    4  A    between atoms: S_4  and  N_7
REMARK    5  A    between atoms: C_10  and  N_13
REMARK    6  A    between atoms: N_13  and  C_14
REMARK                            x       y       z     vdW  Elec       q    Type
REMARK                         _______ _______ _______ _____ _____    ______ ____
ROOT
ATOM      1  N   UNL     1       1.685  -2.992  -2.302  0.00  0.00    -0.181 NA
ATOM      2  C   UNL     1       0.875  -3.059  -3.526  0.00  0.00    +0.107 C 
ATOM      3  C   UNL     1       1.190  -4.369  -4.255  0.00  0.00    +0.001 C 
ATOM      4  C   UNL     1       2.699  -4.465  -4.494  0.00  0.00    -0.069 C 
ATOM      5  C   UNL     1       3.430  -4.473  -3.149  0.00  0.00    +0.001 C 
ATOM      6  C   UNL     1       3.141  -3.158  -2.408  0.00  0.00    +0.107 C 
ENDROOT
BRANCH   1   7
ATOM      7  S   UNL     1       0.971  -2.728  -0.831  0.00  0.00    +0.032 S 
ATOM      8  O   UNL     1       1.860  -3.311   0.113  0.00  0.00    -0.158 OA
ATOM      9  O   UNL     1      -0.354  -3.220  -0.978  0.00  0.00    -0.158 OA
BRANCH   7  10
ATOM     10  C   UNL     1       0.951  -0.925  -0.639  0.00  0.00    +0.185 C 
BRANCH  10  12
ATOM     11  C   UNL     1       0.290   0.960   0.861  0.00  0.00    +0.005 C 
ATOM     12  C   UNL     1       0.307  -0.561   0.700  0.00  0.00    +0.021 C 
ENDBRANCH  10  12
ENDBRANCH   7  10
ENDBRANCH   1   7
BRANCH   4  13
ATOM     13  N   UNL     1       3.001  -5.705  -5.222  0.00  0.00    +0.383 N 
ATOM     14  H   UNL     1       2.790  -6.499  -4.636  0.00  0.00    -0.085 HD
ATOM     15  H   UNL     1       2.441  -5.747  -6.061  0.00  0.00    -0.085 HD
BRANCH  13  16
ATOM     16  C   UNL     1       4.425  -5.726  -5.582  0.00  0.00    -0.071 C 
ATOM     17  C   UNL     1       4.710  -4.622  -6.602  0.00  0.00    -0.016 C 
ATOM     18  C   UNL     1       6.218  -4.377  -6.681  0.00  0.00    -0.002 C 
ATOM     19  C   UNL     1       6.804  -4.343  -5.268  0.00  0.00    -0.000 C 
ATOM     20  C   UNL     1       7.720  -5.551  -5.066  0.00  0.00    -0.000 C 
ATOM     21  C   UNL     1       6.870  -6.805  -4.856  0.00  0.00    -0.000 C 
ATOM     22  C   UNL     1       6.296  -7.263  -6.198  0.00  0.00    -0.002 C 
ATOM     23  C   UNL     1       4.776  -7.085  -6.191  0.00  0.00    -0.016 C 
ENDBRANCH  13  16
ENDBRANCH   4  13
TORSDOF 5
