REMARK  Name = ZINC11851105
REMARK  3 active torsions:
REMARK  status: ('A' for Active; 'I' for Inactive)
REMARK    1  A    between atoms: C_3  and  C_8
REMARK    2  A    between atoms: C_9  and  C_14
REMARK    3  A    between atoms: C_10  and  N_13
REMARK                            x       y       z     vdW  Elec       q    Type
REMARK                         _______ _______ _______ _____ _____    ______ ____
ROOT
ATOM      1  C   UNL     1       1.167   3.570   0.010  0.00  0.00    +0.133 A 
ATOM      2  C   UNL     1       2.126   4.472   0.678  0.00  0.00    +0.140 A 
ATOM      3  C   UNL     1       1.631   5.738   0.353  0.00  0.00    +0.233 A 
ATOM      4  O   UNL     1       0.541   5.528  -0.397  0.00  0.00    -0.338 OA
ATOM      5  N   UNL     1       0.305   4.359  -0.580  0.00  0.00    -0.075 NA
ENDROOT
BRANCH   1   8
ATOM      6  C   UNL     1       0.002  -0.004   0.002  0.00  0.00    +0.002 A 
ATOM      7  C   UNL     1      -0.017   1.376   0.010  0.00  0.00    +0.010 A 
ATOM      8  C   UNL     1       1.182   2.087   0.002  0.00  0.00    +0.006 A 
ATOM      9  C   UNL     1       2.394   1.400  -0.014  0.00  0.00    +0.030 A 
ATOM     10  C   UNL     1       2.401   0.019  -0.021  0.00  0.00    +0.042 A 
ATOM     11  C   UNL     1       1.207  -0.682  -0.013  0.00  0.00    +0.020 A 
ATOM     12 CL   UNL     1       3.910  -0.840  -0.040  0.00  0.00    -0.084 Cl
ENDBRANCH   1   8
BRANCH   3  13
ATOM     13  N   UNL     1       2.154   6.951   0.727  0.00  0.00    -0.326 N 
ATOM     14  H   UNL     1       2.954   6.986   1.276  0.00  0.00    +0.145 HD
ATOM     15  H   UNL     1       1.725   7.773   0.443  0.00  0.00    +0.145 HD
ENDBRANCH   3  13
BRANCH   2  16
ATOM     16  C   UNL     1       3.276   4.135   1.463  0.00  0.00    +0.107 C 
ATOM     17  N   UNL     1       4.188   3.867   2.085  0.00  0.00    -0.191 NA
ENDBRANCH   2  16
TORSDOF 3
