REMARK  Name = ZINC42398344
REMARK  7 active torsions:
REMARK  status: ('A' for Active; 'I' for Inactive)
REMARK    1  A    between atoms: C_1  and  N_2
REMARK    2  A    between atoms: N_2  and  C_3
REMARK    3  A    between atoms: N_2  and  C_10
REMARK    4  A    between atoms: C_3  and  C_4
REMARK    5  A    between atoms: C_10  and  C_12
REMARK    6  A    between atoms: C_10  and  C_14
REMARK    7  A    between atoms: C_12  and  N_13
REMARK                            x       y       z     vdW  Elec       q    Type
REMARK                         _______ _______ _______ _____ _____    ______ ____
ROOT
ATOM      1  C   UNL     1      -1.329  -0.630   0.075  0.00  0.00    +0.072 C 
ENDROOT
BRANCH   1   2
ATOM      2  C   UNL     1      -2.007  -0.299  -1.229  0.00  0.00    +0.003 A 
ATOM      3  C   UNL     1      -1.250   0.003  -2.345  0.00  0.00    +0.009 A 
ATOM      4  C   UNL     1      -1.871   0.306  -3.542  0.00  0.00    +0.016 A 
ATOM      5  C   UNL     1      -3.252   0.309  -3.623  0.00  0.00    +0.021 A 
ATOM      6  C   UNL     1      -4.012   0.008  -2.508  0.00  0.00    +0.054 A 
ATOM      7  C   UNL     1      -3.389  -0.302  -1.311  0.00  0.00    +0.129 A 
ATOM      8  F   UNL     1      -4.130  -0.601  -0.221  0.00  0.00    -0.205 F 
ATOM      9 BR   UNL     1      -4.102   0.725  -5.261  0.00  0.00    -0.050 Br
ENDBRANCH   1   2
BRANCH   1  11
ATOM     10  C   UNL     1      -0.098   1.455   0.047  0.00  0.00    +0.105 C 
ATOM     11  N   UNL     1       0.003  -0.009   0.106  0.00  0.00    -0.296 NA
BRANCH  11  12
ATOM     12  C   UNL     1       0.756  -0.438   1.292  0.00  0.00    +0.127 C 
BRANCH  12  13
ATOM     13  C   UNL     1       2.205  -0.058   1.131  0.00  0.00    +0.005 A 
ATOM     14  C   UNL     1       2.834   1.084   1.503  0.00  0.00    +0.027 A 
ATOM     15  C   UNL     1       4.188   1.216   1.252  0.00  0.00    +0.025 A 
ATOM     16  C   UNL     1       4.845   0.200   0.641  0.00  0.00    +0.060 A 
ATOM     17  S   UNL     1       3.540  -0.997   0.408  0.00  0.00    -0.099 S 
ATOM     18 BR   UNL     1       5.107   2.791   1.752  0.00  0.00    -0.050 Br
ENDBRANCH  12  13
ENDBRANCH  11  12
ENDBRANCH   1  11
BRANCH   1  19
ATOM     19  C   UNL     1      -1.187  -2.148   0.205  0.00  0.00    -0.062 C 
BRANCH  19  20
ATOM     20  N   UNL     1      -0.265  -2.644  -0.826  0.00  0.00    +0.379 N 
ATOM     21  H   UNL     1      -0.670  -2.495  -1.739  0.00  0.00    -0.090 HD
ATOM     22  H   UNL     1       0.611  -2.146  -0.762  0.00  0.00    -0.090 HD
ATOM     23  H   UNL     1      -0.103  -3.630  -0.687  0.00  0.00    -0.090 HD
ENDBRANCH  19  20
ENDBRANCH   1  19
TORSDOF 6
