REMARK  Name = ZINC40953851
REMARK  9 active torsions:
REMARK  status: ('A' for Active; 'I' for Inactive)
REMARK    1  A    between atoms: C_1  and  C_2
REMARK    2  A    between atoms: C_7  and  O_10
REMARK    3  A    between atoms: O_10  and  C_11
REMARK    4  A    between atoms: C_11  and  C_13
REMARK    5  A    between atoms: C_13  and  C_15
REMARK    6  A    between atoms: C_13  and  N_24
REMARK    7  A    between atoms: C_15  and  C_16
REMARK    8  A    between atoms: C_19  and  O_23
REMARK    9  A    between atoms: C_20  and  O_22
REMARK                            x       y       z     vdW  Elec       q    Type
REMARK                         _______ _______ _______ _____ _____    ______ ____
ROOT
ATOM      1  C   UNL     1       1.755  -4.265   4.105  0.00  0.00    +0.040 C 
ENDROOT
BRANCH   1   2
ATOM      2  N   UNL     1       1.524  -5.715   4.170  0.00  0.00    +0.387 N 
ATOM      3  H   UNL     1       1.899  -6.152   3.341  0.00  0.00    -0.089 HD
ATOM      4  H   UNL     1       1.982  -6.092   4.986  0.00  0.00    -0.089 HD
ATOM      5  H   UNL     1       0.533  -5.895   4.226  0.00  0.00    -0.089 HD
ENDBRANCH   1   2
BRANCH   1   6
ATOM      6  C   UNL     1       1.071  -3.702   2.886  0.00  0.00    +0.293 C 
ATOM      7  O   UNL     1       0.179  -4.319   2.354  0.00  0.00    -0.253 OA
BRANCH   6   8
ATOM      8  O   UNL     1       1.454  -2.514   2.391  0.00  0.00    -0.462 OA
BRANCH   8  14
ATOM      9  C   UNL     1      -0.019   1.526   0.010  0.00  0.00    +0.007 C 
ATOM     10  C   UNL     1       0.002  -0.004   0.002  0.00  0.00    -0.011 C 
ATOM     11  C   UNL     1       0.718  -0.497  -1.257  0.00  0.00    +0.003 C 
ATOM     12  C   UNL     1       0.739  -2.027  -1.265  0.00  0.00    +0.004 C 
ATOM     13  C   UNL     1       1.479  -2.534  -0.026  0.00  0.00    +0.044 C 
ATOM     14  C   UNL     1       0.763  -2.041   1.233  0.00  0.00    +0.177 C 
ATOM     15  C   UNL     1       0.742  -0.511   1.242  0.00  0.00    +0.048 C 
ENDBRANCH   8  14
ENDBRANCH   6   8
ENDBRANCH   1   6
BRANCH   1  16
ATOM     16  C   UNL     1       1.186  -3.602   5.361  0.00  0.00    +0.030 C 
BRANCH  16  17
ATOM     17  C   UNL     1       1.952  -4.074   6.569  0.00  0.00    -0.045 A 
ATOM     18  C   UNL     1       1.537  -5.203   7.251  0.00  0.00    +0.007 A 
ATOM     19  C   UNL     1       2.237  -5.640   8.361  0.00  0.00    +0.049 A 
ATOM     20  C   UNL     1       3.357  -4.947   8.791  0.00  0.00    +0.158 A 
ATOM     21  C   UNL     1       3.774  -3.811   8.104  0.00  0.00    +0.158 A 
ATOM     22  C   UNL     1       3.071  -3.381   6.990  0.00  0.00    +0.052 A 
BRANCH  21  23
ATOM     23  O   UNL     1       4.873  -3.127   8.523  0.00  0.00    -0.503 OA
ATOM     24  H   UNL     1       5.700  -3.430   8.125  0.00  0.00    +0.292 HD
ENDBRANCH  21  23
BRANCH  20  25
ATOM     25  O   UNL     1       4.046  -5.375   9.883  0.00  0.00    -0.503 OA
ATOM     26  H   UNL     1       4.755  -6.001   9.679  0.00  0.00    +0.292 HD
ENDBRANCH  20  25
ENDBRANCH  16  17
ENDBRANCH   1  16
TORSDOF 8
