REMARK  Name = ZINC35564519
REMARK  6 active torsions:
REMARK  status: ('A' for Active; 'I' for Inactive)
REMARK    1  A    between atoms: C_1  and  C_2
REMARK    2  A    between atoms: C_6  and  N_9
REMARK    3  A    between atoms: C_7  and  C_8
REMARK    4  A    between atoms: N_12  and  C_15
REMARK    5  A    between atoms: C_15  and  C_16
REMARK    6  A    between atoms: C_30  and  C_32
REMARK                            x       y       z     vdW  Elec       q    Type
REMARK                         _______ _______ _______ _____ _____    ______ ____
ROOT
ATOM      1  C   UNL     1       1.283  -3.680   7.061  0.00  0.00    +0.034 A 
ATOM      2  C   UNL     1       2.304  -2.916   7.546  0.00  0.00    +0.091 A 
ATOM      3  C   UNL     1       3.409  -3.554   8.138  0.00  0.00    +0.253 A 
ATOM      4  O   UNL     1       4.339  -2.902   8.582  0.00  0.00    -0.268 OA
ATOM      5  N   UNL     1       3.420  -4.903   8.205  0.00  0.00    -0.295 N 
ATOM      6  H   UNL     1       4.172  -5.364   8.609  0.00  0.00    +0.172 HD
ATOM      7  C   UNL     1       2.373  -5.613   7.704  0.00  0.00    +0.198 A 
ATOM      8  N   UNL     1       1.339  -5.007   7.156  0.00  0.00    -0.223 NA
ATOM      9  N   UNL     1       2.392  -6.980   7.776  0.00  0.00    -0.298 N 
ATOM     10  C   UNL     1       3.576  -7.686   8.283  0.00  0.00    +0.127 C 
ATOM     11  C   UNL     1       3.147  -8.595   9.441  0.00  0.00    +0.127 C 
ATOM     12  N   UNL     1       1.982  -9.382   9.013  0.00  0.00    -0.292 N 
ATOM     13  C   UNL     1       0.797  -8.676   8.506  0.00  0.00    +0.127 C 
ATOM     14  C   UNL     1       1.225  -7.767   7.353  0.00  0.00    +0.127 C 
ATOM     15  C   UNL     1       2.000 -10.728   9.084  0.00  0.00    +0.282 C 
ATOM     16  O   UNL     1       1.080 -11.374   8.617  0.00  0.00    -0.267 OA
ENDROOT
BRANCH  15  17
ATOM     17  C   UNL     1       3.128 -11.414   9.722  0.00  0.00    +0.189 A 
ATOM     18  C   UNL     1       3.343 -12.762   9.737  0.00  0.00    +0.054 A 
ATOM     19  C   UNL     1       4.532 -12.973  10.454  0.00  0.00    +0.042 A 
ATOM     20  C   UNL     1       4.984 -11.760  10.840  0.00  0.00    +0.196 A 
ATOM     21  O   UNL     1       4.139 -10.822  10.393  0.00  0.00    -0.458 OA
ENDBRANCH  15  17
BRANCH   1  22
ATOM     22  C   UNL     1       0.088  -3.021   6.423  0.00  0.00    -0.022 C 
BRANCH  22  26
ATOM     23  N   UNL     1      -0.093  -2.958   2.243  0.00  0.00    -0.333 N 
ATOM     24  C   UNL     1      -1.325  -3.322   2.960  0.00  0.00    +0.086 C 
ATOM     25  C   UNL     1      -1.202  -2.844   4.410  0.00  0.00    -0.059 C 
ATOM     26  N   UNL     1       0.026  -3.388   5.002  0.00  0.00    +0.385 N 
ATOM     27  C   UNL     1       1.200  -2.845   4.307  0.00  0.00    -0.059 C 
ATOM     28  C   UNL     1       1.196  -3.328   2.848  0.00  0.00    +0.086 C 
ATOM     29  H   UNL     1       0.022  -4.394   4.917  0.00  0.00    -0.081 HD
BRANCH  23  35
ATOM     30  C   UNL     1      -0.189   1.272  -0.257  0.00  0.00    +0.044 C 
ATOM     31  C   UNL     1      -0.193  -0.234  -0.222  0.00  0.00    -0.046 A 
ATOM     32  C   UNL     1      -0.249  -0.953  -1.402  0.00  0.00    +0.004 A 
ATOM     33  C   UNL     1      -0.254  -2.335  -1.375  0.00  0.00    +0.002 A 
ATOM     34  C   UNL     1      -0.202  -3.003  -0.167  0.00  0.00    +0.023 A 
ATOM     35  C   UNL     1      -0.145  -2.285   1.020  0.00  0.00    +0.033 A 
ATOM     36  C   UNL     1      -0.135  -0.896   0.989  0.00  0.00    -0.027 A 
ATOM     37  C   UNL     1      -0.068  -0.113   2.274  0.00  0.00    +0.046 C 
ENDBRANCH  23  35
ENDBRANCH  22  26
ENDBRANCH   1  22
TORSDOF 4
