REMARK  Name = ZINC25582886
REMARK  6 active torsions:
REMARK  status: ('A' for Active; 'I' for Inactive)
REMARK    1  A    between atoms: C_1  and  C_2
REMARK    2  A    between atoms: C_2  and  C_22
REMARK    3  A    between atoms: N_5  and  C_9
REMARK    4  A    between atoms: C_9  and  C_10
REMARK    5  A    between atoms: C_10  and  C_11
REMARK    6  A    between atoms: N_16  and  C_17
REMARK                            x       y       z     vdW  Elec       q    Type
REMARK                         _______ _______ _______ _____ _____    ______ ____
ROOT
ATOM      1  C   UNL     1       2.852   2.416  12.412  0.00  0.00    +0.047 C 
ATOM      2  C   UNL     1       3.130   2.888  10.983  0.00  0.00    +0.135 C 
ATOM      3  C   UNL     1       2.335   2.063   9.989  0.00  0.00    +0.251 C 
ATOM      4  O   UNL     1       2.412   0.868   9.802  0.00  0.00    -0.272 OA
ATOM      5  N   UNL     1       1.525   2.936   9.357  0.00  0.00    -0.224 N 
ATOM      6  C   UNL     1       1.691   4.183   9.814  0.00  0.00    +0.310 C 
ATOM      7  O   UNL     1       1.069   5.142   9.400  0.00  0.00    -0.252 OA
ATOM      8  N   UNL     1       2.623   4.256  10.781  0.00  0.00    -0.281 N 
ATOM      9  H   UNL     1       3.025   5.085  11.382  0.00  0.00    +0.152 HD
ENDROOT
BRANCH   2  10
ATOM     10  C   UNL     1       4.604   2.818  10.681  0.00  0.00    -0.013 A 
ATOM     11  C   UNL     1       5.152   1.653  10.178  0.00  0.00    +0.009 A 
ATOM     12  C   UNL     1       6.504   1.588   9.895  0.00  0.00    +0.041 A 
ATOM     13  C   UNL     1       7.312   2.688  10.126  0.00  0.00    +0.158 A 
ATOM     14  C   UNL     1       6.764   3.855  10.635  0.00  0.00    +0.159 A 
ATOM     15  C   UNL     1       5.409   3.918  10.912  0.00  0.00    +0.047 A 
ATOM     16  F   UNL     1       7.551   4.929  10.862  0.00  0.00    -0.202 F 
ATOM     17  F   UNL     1       8.634   2.624   9.855  0.00  0.00    -0.202 F 
ENDBRANCH   2  10
BRANCH   5  18
ATOM     18  C   UNL     1       0.577   2.564   8.305  0.00  0.00    +0.127 C 
BRANCH  18  19
ATOM     19  C   UNL     1       1.263   2.664   6.941  0.00  0.00    +0.115 C 
BRANCH  19  20
ATOM     20  C   UNL     1       0.287   2.282   5.858  0.00  0.00    +0.222 C 
ATOM     21  O   UNL     1      -0.846   1.961   6.149  0.00  0.00    -0.275 OA
ATOM     22  N   UNL     1       0.673   2.296   4.567  0.00  0.00    -0.240 N 
ATOM     23  C   UNL     1      -0.200   1.954   3.599  0.00  0.00    +0.306 C 
ATOM     24  O   UNL     1      -1.335   1.633   3.890  0.00  0.00    -0.252 OA
ATOM     25  N   UNL     1       0.186   1.969   2.308  0.00  0.00    -0.296 N 
ATOM     26  H   UNL     1       1.700   2.587   4.304  0.00  0.00    +0.159 HD
ATOM     27  H   UNL     1       1.214   2.260   2.044  0.00  0.00    +0.151 HD
BRANCH  25  28
ATOM     28  C   UNL     1      -0.763   1.597   1.255  0.00  0.00    +0.074 C 
ATOM     29  C   UNL     1      -0.013   1.086   0.008  0.00  0.00    +0.022 C 
ATOM     30  C   UNL     1      -0.784   1.609  -1.216  0.00  0.00    +0.002 C 
ATOM     31  C   UNL     1      -1.978   2.421  -0.670  0.00  0.00    +0.002 C 
ATOM     32  C   UNL     1      -1.531   2.845   0.750  0.00  0.00    +0.022 C 
ENDBRANCH  25  28
ENDBRANCH  19  20
ENDBRANCH  18  19
ENDBRANCH   5  18
TORSDOF 5
