REMARK  Name = ZINC41962129
REMARK  10 active torsions:
REMARK  status: ('A' for Active; 'I' for Inactive)
REMARK    1  A    between atoms: C_1  and  C_2
REMARK    2  A    between atoms: C_2  and  C_3
REMARK    3  A    between atoms: C_3  and  C_4
REMARK    4  A    between atoms: C_4  and  N_5
REMARK    5  A    between atoms: C_11  and  C_16
REMARK    6  A    between atoms: N_18  and  N_19
REMARK    7  A    between atoms: N_19  and  C_20
REMARK    8  A    between atoms: C_20  and  N_22
REMARK    9  A    between atoms: N_22  and  C_23
REMARK   10  A    between atoms: C_23  and  C_24
REMARK                            x       y       z     vdW  Elec       q    Type
REMARK                         _______ _______ _______ _____ _____    ______ ____
ROOT
ATOM      1  N   UNL     1       1.425  -2.500  -2.470  0.00  0.00    -0.234 N 
ATOM      2  C   UNL     1       0.816  -2.750  -3.644  0.00  0.00    +0.254 C 
ATOM      3  O   UNL     1      -0.370  -2.621  -3.868  0.00  0.00    -0.270 OA
ATOM      4  C   UNL     1       1.835  -3.207  -4.615  0.00  0.00    +0.049 A 
ATOM      5  C   UNL     1       1.794  -3.598  -5.944  0.00  0.00    +0.014 A 
ATOM      6  C   UNL     1       2.958  -3.981  -6.587  0.00  0.00    +0.014 A 
ATOM      7  C   UNL     1       4.174  -3.978  -5.903  0.00  0.00    +0.039 A 
ATOM      8  C   UNL     1       4.224  -3.586  -4.562  0.00  0.00    +0.027 A 
ATOM      9  C   UNL     1       3.061  -3.201  -3.918  0.00  0.00    +0.050 A 
ATOM     10  C   UNL     1       2.747  -2.735  -2.551  0.00  0.00    +0.254 C 
ATOM     11  O   UNL     1       3.548  -2.592  -1.650  0.00  0.00    -0.270 OA
ENDROOT
BRANCH   7  12
ATOM     12  C   UNL     1       5.414  -4.390  -6.599  0.00  0.00    +0.260 C 
ATOM     13  O   UNL     1       6.474  -4.387  -6.004  0.00  0.00    -0.269 OA
ATOM     14  N   UNL     1       5.367  -4.769  -7.891  0.00  0.00    -0.231 N 
ATOM     15  H   UNL     1       4.521  -4.771  -8.366  0.00  0.00    +0.173 HD
BRANCH  14  16
ATOM     16  N   UNL     1       6.541  -5.159  -8.550  0.00  0.00    -0.246 N 
ATOM     17  H   UNL     1       7.387  -5.157  -8.075  0.00  0.00    +0.172 HD
BRANCH  16  18
ATOM     18  C   UNL     1       6.494  -5.537  -9.842  0.00  0.00    +0.147 C 
ATOM     19  S   UNL     1       7.928  -6.014 -10.647  0.00  0.00    -0.017 S 
BRANCH  18  20
ATOM     20  N   UNL     1       5.319  -5.540 -10.502  0.00  0.00    -0.322 N 
ATOM     21  H   UNL     1       4.506  -5.270 -10.046  0.00  0.00    +0.148 HD
BRANCH  20  22
ATOM     22  C   UNL     1       5.268  -5.952 -11.907  0.00  0.00    +0.130 C 
BRANCH  22  23
ATOM     23  C   UNL     1       3.848  -5.866 -12.405  0.00  0.00    -0.016 C 
ATOM     24  C   UNL     1       3.569  -5.157 -13.470  0.00  0.00    +0.005 C 
ENDBRANCH  22  23
ENDBRANCH  20  22
ENDBRANCH  18  20
ENDBRANCH  16  18
ENDBRANCH  14  16
ENDBRANCH   7  12
BRANCH   1  25
ATOM     25  C   UNL     1       0.739  -2.027  -1.265  0.00  0.00    +0.117 C 
BRANCH  25  26
ATOM     26  C   UNL     1       0.718  -0.497  -1.257  0.00  0.00    +0.019 C 
BRANCH  26  28
ATOM     27  C   UNL     1      -0.019   1.526   0.010  0.00  0.00    +0.004 C 
ATOM     28  C   UNL     1       0.002  -0.004   0.002  0.00  0.00    -0.002 C 
ENDBRANCH  26  28
ENDBRANCH  25  26
ENDBRANCH   1  25
TORSDOF 9
