REMARK  Name = ZINC45626305
REMARK  3 active torsions:
REMARK  status: ('A' for Active; 'I' for Inactive)
REMARK    1  A    between atoms: C_4  and  C_8
REMARK    2  A    between atoms: C_6  and  N_7
REMARK    3  A    between atoms: N_12  and  C_13
REMARK                            x       y       z     vdW  Elec       q    Type
REMARK                         _______ _______ _______ _____ _____    ______ ____
ROOT
ATOM      1  C   UNL     1       3.702  -0.680  -0.040  0.00  0.00    +0.183 A 
ATOM      2  N   UNL     1       3.878  -1.982   0.039  0.00  0.00    -0.108 NA
ATOM      3  N   UNL     1       5.129  -2.270  -0.001  0.00  0.00    -0.023 NA
ATOM      4  N   UNL     1       5.834  -1.196  -0.106  0.00  0.00    -0.043 NA
ATOM      5  N   UNL     1       4.932  -0.118  -0.141  0.00  0.00    -0.222 N 
ENDROOT
BRANCH   1   9
ATOM      6  C   UNL     1      -0.024   1.372   0.005  0.00  0.00    +0.024 A 
ATOM      7  C   UNL     1       0.243   0.406   0.956  0.00  0.00    +0.018 A 
ATOM      8  C   UNL     1       1.451  -0.263   0.946  0.00  0.00    +0.029 A 
ATOM      9  C   UNL     1       2.407   0.036  -0.027  0.00  0.00    +0.036 A 
ATOM     10  C   UNL     1       2.137   1.010  -0.986  0.00  0.00    +0.035 A 
ATOM     11  C   UNL     1       0.921   1.677  -0.968  0.00  0.00    +0.025 A 
ATOM     12 BR   UNL     1       1.811  -1.584   2.250  0.00  0.00    -0.050 Br
BRANCH  11  13
ATOM     13  N   UNL     1       0.646   2.655  -1.927  0.00  0.00    -0.358 N 
ATOM     14  H   UNL     1      -0.205   3.121  -1.915  0.00  0.00    +0.142 HD
ATOM     15  H   UNL     1       1.305   2.867  -2.606  0.00  0.00    +0.142 HD
ENDBRANCH  11  13
ENDBRANCH   1   9
BRANCH   5  16
ATOM     16  C   UNL     1       5.253   1.307  -0.259  0.00  0.00    +0.111 C 
ATOM     17  C   UNL     1       5.827   1.575  -1.666  0.00  0.00    +0.027 C 
ATOM     18  C   UNL     1       5.677   3.040  -1.972  0.00  0.00    +0.002 C 
ATOM     19  C   UNL     1       6.939   3.849  -1.615  0.00  0.00    +0.000 C 
ATOM     20  C   UNL     1       7.563   3.422  -0.273  0.00  0.00    +0.000 C 
ATOM     21  C   UNL     1       6.527   3.173   0.790  0.00  0.00    +0.002 C 
ATOM     22  C   UNL     1       6.185   1.669   0.798  0.00  0.00    +0.027 C 
ENDBRANCH   5  16
TORSDOF 3
