REMARK  Name = ZINC39684197
REMARK  6 active torsions:
REMARK  status: ('A' for Active; 'I' for Inactive)
REMARK    1  A    between atoms: C_1  and  C_2
REMARK    2  A    between atoms: C_7  and  C_11
REMARK    3  A    between atoms: C_11  and  C_12
REMARK    4  A    between atoms: C_12  and  N_13
REMARK    5  A    between atoms: C_14  and  C_16
REMARK    6  A    between atoms: C_27  and  C_29
REMARK                            x       y       z     vdW  Elec       q    Type
REMARK                         _______ _______ _______ _____ _____    ______ ____
ROOT
ATOM      1  C   UNL     1      -8.699   1.640  -6.113  0.00  0.00    +0.100 C 
ATOM      2  C   UNL     1      -9.937   2.098  -5.309  0.00  0.00    +0.121 C 
ATOM      3  N   UNL     1     -11.095   1.646  -6.114  0.00  0.00    -0.297 N 
ATOM      4  C   UNL     1     -10.693   0.312  -6.622  0.00  0.00    +0.115 C 
ATOM      5  C   UNL     1      -9.200   0.467  -6.973  0.00  0.00    -0.004 C 
ATOM      6  C   UNL     1      -8.441  -0.809  -6.620  0.00  0.00    -0.010 C 
ATOM      7  C   UNL     1      -8.914  -1.947  -7.527  0.00  0.00    -0.082 C 
ATOM      8  N   UNL     1      -8.680  -1.587  -8.931  0.00  0.00    +0.379 N 
ATOM      9  C   UNL     1      -9.486  -0.413  -9.288  0.00  0.00    -0.082 C 
ATOM     10  C   UNL     1      -9.036   0.790  -8.455  0.00  0.00    -0.010 C 
ATOM     11  C   UNL     1     -12.253   2.299  -6.335  0.00  0.00    +0.260 C 
ATOM     12  O   UNL     1     -12.399   3.430  -5.924  0.00  0.00    -0.271 OA
ATOM     13  H   UNL     1      -7.702  -1.374  -9.063  0.00  0.00    -0.086 HD
ATOM     14  H   UNL     1      -8.936  -2.362  -9.524  0.00  0.00    -0.086 HD
ENDROOT
BRANCH  11  15
ATOM     15  C   UNL     1     -13.367   1.623  -7.094  0.00  0.00    +0.296 C 
ATOM     16  C   UNL     1     -13.929   0.463  -6.262  0.00  0.00    +0.283 C 
ATOM     17  O   UNL     1     -14.991  -0.147  -7.005  0.00  0.00    -0.484 OA
ATOM     18  C   UNL     1     -15.902   0.692  -7.570  0.00  0.00    +0.162 A 
ATOM     19  C   UNL     1     -17.127   0.189  -7.982  0.00  0.00    +0.049 A 
ATOM     20  C   UNL     1     -18.061   1.028  -8.561  0.00  0.00    +0.004 A 
ATOM     21  C   UNL     1     -17.776   2.370  -8.731  0.00  0.00    +0.004 A 
ATOM     22  C   UNL     1     -16.558   2.878  -8.322  0.00  0.00    +0.049 A 
ATOM     23  C   UNL     1     -15.617   2.042  -7.739  0.00  0.00    +0.163 A 
ATOM     24  O   UNL     1     -14.424   2.558  -7.334  0.00  0.00    -0.473 OA
ENDBRANCH  11  15
BRANCH   1  26
ATOM     25  N   UNL     1      -6.327   1.164  -5.598  0.00  0.00    -0.315 N 
ATOM     26  C   UNL     1      -7.609   1.179  -5.181  0.00  0.00    +0.218 C 
ATOM     27  O   UNL     1      -7.884   0.822  -4.055  0.00  0.00    -0.275 OA
ATOM     28  H   UNL     1      -6.107   1.449  -6.498  0.00  0.00    +0.149 HD
BRANCH  25  29
ATOM     29  C   UNL     1      -5.267   0.716  -4.691  0.00  0.00    +0.109 C 
BRANCH  29  30
ATOM     30  C   UNL     1      -3.917   0.796  -5.407  0.00  0.00    +0.056 C 
BRANCH  30  37
ATOM     31  C   UNL     1       0.366  -2.113  -1.868  0.00  0.00    +0.046 C 
ATOM     32  C   UNL     1      -0.751  -2.161  -2.879  0.00  0.00    -0.027 A 
ATOM     33  C   UNL     1      -1.171  -3.370  -3.388  0.00  0.00    +0.005 A 
ATOM     34  C   UNL     1      -2.198  -3.428  -4.320  0.00  0.00    +0.001 A 
ATOM     35  C   UNL     1      -2.812  -2.284  -4.748  0.00  0.00    +0.010 A 
ATOM     36  C   UNL     1      -2.403  -1.048  -4.244  0.00  0.00    +0.003 A 
ATOM     37  C   UNL     1      -2.826   0.335  -4.474  0.00  0.00    -0.021 A 
ATOM     38  C   UNL     1      -2.058   1.115  -3.697  0.00  0.00    +0.087 A 
ATOM     39  N   UNL     1      -1.178   0.344  -2.988  0.00  0.00    -0.360 N 
ATOM     40  C   UNL     1      -1.366  -0.985  -3.296  0.00  0.00    +0.050 A 
ATOM     41  H   UNL     1      -0.521   0.683  -2.360  0.00  0.00    +0.165 HD
ENDBRANCH  30  37
ENDBRANCH  29  30
ENDBRANCH  25  29
ENDBRANCH   1  26
TORSDOF 5
