REMARK  Name = ZINC15083548
REMARK  9 active torsions:
REMARK  status: ('A' for Active; 'I' for Inactive)
REMARK    1  A    between atoms: C_1  and  N_2
REMARK    2  A    between atoms: N_2  and  C_3
REMARK    3  A    between atoms: C_4  and  C_32
REMARK    4  A    between atoms: C_14  and  C_22
REMARK    5  A    between atoms: C_16  and  C_20
REMARK    6  A    between atoms: C_17  and  N_19
REMARK    7  A    between atoms: C_25  and  C_28
REMARK    8  A    between atoms: C_28  and  O_30
REMARK    9  A    between atoms: O_30  and  C_31
REMARK                            x       y       z     vdW  Elec       q    Type
REMARK                         _______ _______ _______ _____ _____    ______ ____
ROOT
ATOM      1  C   UNL     1       4.791   1.287  -0.041  0.00  0.00    +0.086 A 
ATOM      2  C   UNL     1       3.678   2.120  -0.025  0.00  0.00    +0.104 A 
ATOM      3  C   UNL     1       2.365   1.495  -0.014  0.00  0.00    +0.079 A 
ATOM      4  C   UNL     1       2.392   0.103  -0.022  0.00  0.00    +0.081 A 
ATOM      5  S   UNL     1       4.116  -0.307  -0.043  0.00  0.00    -0.067 S 
ATOM      6  C   UNL     1       1.221  -0.659  -0.013  0.00  0.00    +0.155 A 
ATOM      7  C   UNL     1       0.002  -0.004   0.002  0.00  0.00    +0.073 A 
ATOM      8  C   UNL     1      -0.017   1.393   0.010  0.00  0.00    +0.257 A 
ATOM      9  O   UNL     1      -1.091   1.975   0.018  0.00  0.00    -0.267 OA
ATOM     10  N   UNL     1       1.116   2.108   0.003  0.00  0.00    -0.320 N 
ATOM     11  H   UNL     1       1.065   3.077   0.009  0.00  0.00    +0.169 HD
ATOM     12  C   UNL     1      -1.287  -0.778   0.009  0.00  0.00    +0.103 C 
ATOM     13  C   UNL     1      -1.038  -2.203  -0.401  0.00  0.00    +0.098 C 
ATOM     14  C   UNL     1       0.209  -2.728  -0.392  0.00  0.00    +0.199 C 
ATOM     15  O   UNL     1       1.282  -2.009  -0.020  0.00  0.00    -0.440 OA
ENDROOT
BRANCH  12  16
ATOM     16  C   UNL     1      -1.876  -0.754   1.396  0.00  0.00    -0.034 A 
ATOM     17  C   UNL     1      -1.163  -1.284   2.457  0.00  0.00    +0.005 A 
ATOM     18  C   UNL     1      -1.693  -1.260   3.730  0.00  0.00    +0.015 A 
ATOM     19  C   UNL     1      -2.959  -0.710   3.945  0.00  0.00    +0.059 A 
ATOM     20  C   UNL     1      -3.675  -0.182   2.869  0.00  0.00    +0.015 A 
ATOM     21  C   UNL     1      -3.130  -0.207   1.602  0.00  0.00    +0.005 A 
BRANCH  19  22
ATOM     22  C   UNL     1      -3.537  -0.686   5.304  0.00  0.00    +0.339 C 
ATOM     23  O   UNL     1      -4.638  -0.208   5.488  0.00  0.00    -0.245 OA
BRANCH  22  24
ATOM     24  O   UNL     1      -2.842  -1.197   6.340  0.00  0.00    -0.464 OA
ATOM     25  C   UNL     1      -3.472  -1.140   7.647  0.00  0.00    +0.280 C 
ENDBRANCH  22  24
ENDBRANCH  19  22
ENDBRANCH  12  16
BRANCH   1  27
ATOM     26  C   UNL     1       7.159   0.613  -0.071  0.00  0.00    +0.126 C 
ATOM     27  N   UNL     1       6.120   1.647  -0.054  0.00  0.00    -0.340 N 
ATOM     28  H   UNL     1       6.369   2.584  -0.051  0.00  0.00    +0.146 HD
ENDBRANCH   1  27
BRANCH  14  29
ATOM     29  N   UNL     1       0.384  -4.035  -0.776  0.00  0.00    -0.328 N 
ATOM     30  H   UNL     1       1.272  -4.426  -0.775  0.00  0.00    +0.145 HD
ATOM     31  H   UNL     1      -0.380  -4.567  -1.047  0.00  0.00    +0.145 HD
ENDBRANCH  14  29
BRANCH  13  32
ATOM     32  C   UNL     1      -2.142  -3.019  -0.810  0.00  0.00    +0.101 C 
ATOM     33  N   UNL     1      -3.017  -3.667  -1.134  0.00  0.00    -0.191 NA
ENDBRANCH  13  32
BRANCH   2  34
ATOM     34  C   UNL     1       3.819   3.545  -0.018  0.00  0.00    +0.104 C 
ATOM     35  N   UNL     1       3.931   4.675  -0.013  0.00  0.00    -0.191 NA
ENDBRANCH   2  34
TORSDOF 7
