REMARK  Name = ZINC11814477
REMARK  5 active torsions:
REMARK  status: ('A' for Active; 'I' for Inactive)
REMARK    1  A    between atoms: C_2  and  C_25
REMARK    2  A    between atoms: C_8  and  C_11
REMARK    3  A    between atoms: C_11  and  N_12
REMARK    4  A    between atoms: C_13  and  C_15
REMARK    5  A    between atoms: C_27  and  C_31
REMARK                            x       y       z     vdW  Elec       q    Type
REMARK                         _______ _______ _______ _____ _____    ______ ____
ROOT
ATOM      1  C   UNL     1       1.271   5.950   0.029  0.00  0.00    +0.016 A 
ATOM      2  C   UNL     1       0.041   5.292   0.032  0.00  0.00    -0.013 A 
ATOM      3  C   UNL     1      -1.136   6.037   0.047  0.00  0.00    +0.050 A 
ATOM      4  C   UNL     1      -1.085   7.415   0.053  0.00  0.00    +0.166 A 
ATOM      5  C   UNL     1       0.145   8.075   0.042  0.00  0.00    +0.159 A 
ATOM      6  C   UNL     1       1.314   7.325   0.032  0.00  0.00    +0.001 A 
ATOM      7  C   UNL     1       2.472   8.305   0.036  0.00  0.00    +0.085 C 
ATOM      8  C   UNL     1       1.774   9.622   0.451  0.00  0.00    +0.195 C 
ATOM      9  O   UNL     1       0.417   9.410   0.028  0.00  0.00    -0.484 OA
ATOM     10  F   UNL     1      -2.231   8.130   0.069  0.00  0.00    -0.202 F 
ENDROOT
BRANCH   2  11
ATOM     11  C   UNL     1      -0.013   3.809   0.023  0.00  0.00    +0.001 A 
ATOM     12  C   UNL     1      -1.241   3.146   0.031  0.00  0.00    +0.024 A 
ATOM     13  C   UNL     1      -1.236   1.748   0.018  0.00  0.00    +0.055 A 
ATOM     14  C   UNL     1      -0.013   1.076   0.008  0.00  0.00    +0.123 A 
ATOM     15  N   UNL     1       1.124   1.742   0.001  0.00  0.00    -0.262 NA
ATOM     16  C   UNL     1       1.162   3.059   0.007  0.00  0.00    +0.119 A 
BRANCH  13  17
ATOM     17  C   UNL     1      -2.507   0.994   0.019  0.00  0.00    +0.243 C 
ATOM     18  O   UNL     1      -3.567   1.589   0.027  0.00  0.00    -0.270 OA
ATOM     19  N   UNL     1      -2.491  -0.354   0.011  0.00  0.00    -0.325 N 
ATOM     20  H   UNL     1      -1.645  -0.829   0.004  0.00  0.00    +0.145 HD
ATOM     21  H   UNL     1      -3.325  -0.849   0.012  0.00  0.00    +0.145 HD
ENDBRANCH  13  17
ENDBRANCH   2  11
BRANCH   8  22
ATOM     22  C   UNL     1       2.394  10.816  -0.278  0.00  0.00    +0.149 C 
BRANCH  22  23
ATOM     23  N   UNL     1       1.796  12.056   0.223  0.00  0.00    -0.307 N 
ATOM     24  C   UNL     1       2.191  13.244  -0.278  0.00  0.00    +0.251 C 
ATOM     25  O   UNL     1       3.043  13.286  -1.145  0.00  0.00    -0.270 OA
ATOM     26  H   UNL     1       1.117  12.023   0.914  0.00  0.00    +0.149 HD
BRANCH  24  27
ATOM     27  C   UNL     1       1.593  14.485   0.223  0.00  0.00    +0.077 A 
ATOM     28  C   UNL     1       1.861  15.799  -0.160  0.00  0.00    -0.025 A 
ATOM     29  C   UNL     1       1.139  16.796   0.487  0.00  0.00    -0.036 A 
ATOM     30  C   UNL     1       0.230  16.418   1.440  0.00  0.00    +0.049 A 
ATOM     31  S   UNL     1       0.337  14.693   1.466  0.00  0.00    -0.092 S 
ATOM     32  C   UNL     1       1.324  18.280   0.174  0.00  0.00    +0.036 C 
ATOM     33  C   UNL     1       2.648  18.470  -0.564  0.00  0.00    +0.005 C 
ATOM     34  C   UNL     1       2.700  17.509  -1.755  0.00  0.00    +0.005 C 
ATOM     35  C   UNL     1       2.901  16.085  -1.238  0.00  0.00    +0.037 C 
ENDBRANCH  24  27
ENDBRANCH  22  23
ENDBRANCH   8  22
TORSDOF 5
