REMARK  Name = ZINC66303543
REMARK  8 active torsions:
REMARK  status: ('A' for Active; 'I' for Inactive)
REMARK    1  A    between atoms: C_1  and  C_2
REMARK    2  A    between atoms: C_2  and  C_4
REMARK    3  A    between atoms: C_2  and  N_22
REMARK    4  A    between atoms: C_4  and  C_5
REMARK    5  A    between atoms: N_7  and  C_8
REMARK    6  A    between atoms: C_8  and  C_10
REMARK    7  A    between atoms: C_8  and  C_11
REMARK    8  A    between atoms: C_23  and  C_25
REMARK                            x       y       z     vdW  Elec       q    Type
REMARK                         _______ _______ _______ _____ _____    ______ ____
ROOT
ATOM      1  C   UNL     1       0.870  -2.011   1.172  0.00  0.00    +0.215 C 
ATOM      2  O   UNL     1       0.414  -2.615   0.224  0.00  0.00    -0.276 OA
ATOM      3  N   UNL     1       1.491  -2.681   2.163  0.00  0.00    -0.309 N 
ATOM      4  H   UNL     1       1.855  -2.198   2.921  0.00  0.00    +0.149 HD
ENDROOT
BRANCH   3   5
ATOM      5  C   UNL     1       1.615  -4.139   2.095  0.00  0.00    +0.100 C 
ATOM      6  C   UNL     1       2.850  -4.508   1.271  0.00  0.00    +0.033 C 
BRANCH   5   7
ATOM      7  C   UNL     1       1.756  -4.696   3.488  0.00  0.00    -0.026 A 
ATOM      8  C   UNL     1       2.530  -4.031   4.421  0.00  0.00    +0.009 A 
ATOM      9  C   UNL     1       2.664  -4.535   5.702  0.00  0.00    +0.048 A 
ATOM     10  C   UNL     1       2.022  -5.710   6.051  0.00  0.00    +0.142 A 
ATOM     11  C   UNL     1       1.243  -6.382   5.110  0.00  0.00    +0.076 A 
ATOM     12  C   UNL     1       1.107  -5.868   3.831  0.00  0.00    +0.032 A 
ATOM     13  N   UNL     1       0.599  -7.572   5.476  0.00  0.00    -0.280 N 
ATOM     14  C   UNL     1       0.483  -7.878   6.787  0.00  0.00    +0.255 C 
ATOM     15  O   UNL     1      -0.042  -8.917   7.126  0.00  0.00    -0.272 OA
ATOM     16  C   UNL     1       1.008  -6.921   7.827  0.00  0.00    +0.325 C 
ATOM     17  O   UNL     1       2.141  -6.220   7.306  0.00  0.00    -0.481 OA
ATOM     18  H   UNL     1       0.243  -8.168   4.798  0.00  0.00    +0.155 HD
ENDBRANCH   5   7
ENDBRANCH   3   5
BRANCH   1  19
ATOM     19  C   UNL     1       0.742  -0.511   1.242  0.00  0.00    +0.117 C 
BRANCH  19  21
ATOM     20  C   UNL     1      -0.019   1.526   0.010  0.00  0.00    +0.028 C 
ATOM     21  C   UNL     1       0.002  -0.004   0.002  0.00  0.00    +0.079 C 
BRANCH  21  22
ATOM     22  N   UNL     1      -1.372  -0.511   0.012  0.00  0.00    -0.312 N 
ATOM     23  C   UNL     1      -2.051  -0.643  -1.145  0.00  0.00    +0.216 C 
ATOM     24  O   UNL     1      -1.524  -0.341  -2.194  0.00  0.00    -0.276 OA
ATOM     25  H   UNL     1      -1.794  -0.752   0.852  0.00  0.00    +0.149 HD
BRANCH  23  26
ATOM     26  C   UNL     1      -3.465  -1.164  -1.134  0.00  0.00    +0.075 C 
ATOM     27  C   UNL     1      -3.485  -2.571  -0.532  0.00  0.00    +0.013 C 
ATOM     28  C   UNL     1      -4.920  -3.100  -0.521  0.00  0.00    +0.001 C 
ATOM     29  C   UNL     1      -5.456  -3.151  -1.953  0.00  0.00    +0.000 C 
ATOM     30  C   UNL     1      -5.436  -1.745  -2.555  0.00  0.00    +0.001 C 
ATOM     31  C   UNL     1      -4.000  -1.215  -2.566  0.00  0.00    +0.013 C 
ENDBRANCH  23  26
ENDBRANCH  21  22
ENDBRANCH  19  21
ENDBRANCH   1  19
TORSDOF 6
