REMARK  Name = ZINC42958955
REMARK  5 active torsions:
REMARK  status: ('A' for Active; 'I' for Inactive)
REMARK    1  A    between atoms: C_6  and  C_7
REMARK    2  A    between atoms: C_7  and  C_9
REMARK    3  A    between atoms: C_7  and  S_11
REMARK    4  A    between atoms: C_9  and  N_10
REMARK    5  A    between atoms: S_11  and  C_12
REMARK                            x       y       z     vdW  Elec       q    Type
REMARK                         _______ _______ _______ _____ _____    ______ ____
ROOT
ATOM      1  C   UNL     1      -1.275  -0.722  -0.033  0.00  0.00    +0.067 C 
ENDROOT
BRANCH   1   7
ATOM      2  C   UNL     1       0.227   1.278  -0.124  0.00  0.00    +0.006 A 
ATOM      3  C   UNL     1       1.482   1.851  -0.212  0.00  0.00    +0.015 A 
ATOM      4  C   UNL     1       2.604   1.047  -0.305  0.00  0.00    +0.018 A 
ATOM      5  C   UNL     1       2.469  -0.330  -0.311  0.00  0.00    +0.015 A 
ATOM      6  C   UNL     1       1.214  -0.902  -0.223  0.00  0.00    +0.006 A 
ATOM      7  C   UNL     1       0.093  -0.098  -0.129  0.00  0.00    -0.036 A 
ATOM      8 BR   UNL     1       4.321   1.830  -0.427  0.00  0.00    -0.050 Br
ENDBRANCH   1   7
BRANCH   1   9
ATOM      9  C   UNL     1      -1.347  -1.604   1.215  0.00  0.00    -0.067 C 
BRANCH   9  10
ATOM     10  N   UNL     1      -1.234  -0.764   2.415  0.00  0.00    +0.379 N 
ATOM     11  H   UNL     1      -2.030  -0.146   2.470  0.00  0.00    -0.090 HD
ATOM     12  H   UNL     1      -1.207  -1.351   3.235  0.00  0.00    -0.090 HD
ATOM     13  H   UNL     1      -0.388  -0.217   2.365  0.00  0.00    -0.090 HD
ENDBRANCH   9  10
ENDBRANCH   1   9
BRANCH   1  14
ATOM     14  S   UNL     1      -1.583  -1.734  -1.507  0.00  0.00    -0.080 S 
BRANCH  14  15
ATOM     15  C   UNL     1      -3.280  -2.186  -1.366  0.00  0.00    +0.192 A 
ATOM     16  N   UNL     1      -4.084  -1.913  -0.362  0.00  0.00    -0.122 NA
ATOM     17  N   UNL     1      -5.256  -2.389  -0.597  0.00  0.00    -0.134 NA
ATOM     18  C   UNL     1      -5.270  -2.983  -1.753  0.00  0.00    +0.134 A 
ATOM     19  N   UNL     1      -4.013  -2.881  -2.279  0.00  0.00    -0.306 N 
ATOM     20  C   UNL     1      -3.557  -3.427  -3.557  0.00  0.00    +0.125 C 
ATOM     21  C   UNL     1      -4.740  -3.504  -4.526  0.00  0.00    +0.022 C 
ATOM     22  C   UNL     1      -5.443  -4.852  -4.374  0.00  0.00    +0.002 C 
ATOM     23  C   UNL     1      -5.996  -5.015  -2.962  0.00  0.00    +0.008 C 
ATOM     24  C   UNL     1      -6.441  -3.658  -2.420  0.00  0.00    +0.076 C 
ENDBRANCH  14  15
ENDBRANCH   1  14
TORSDOF 5
