REMARK  Name = ZINC40372864
REMARK  5 active torsions:
REMARK  status: ('A' for Active; 'I' for Inactive)
REMARK    1  A    between atoms: C_1  and  C_2
REMARK    2  A    between atoms: C_5  and  C_7
REMARK    3  A    between atoms: N_9  and  C_10
REMARK    4  A    between atoms: C_10  and  C_17
REMARK    5  A    between atoms: N_18  and  O_19
REMARK                            x       y       z     vdW  Elec       q    Type
REMARK                         _______ _______ _______ _____ _____    ______ ____
ROOT
ATOM      1  C   UNL     1       3.974  -4.101  -0.099  0.00  0.00    +0.093 C 
ATOM      2  C   UNL     1       3.817  -4.944  -1.381  0.00  0.00    +0.033 C 
ATOM      3  C   UNL     1       3.489  -4.021  -2.523  0.00  0.00    +0.002 C 
ATOM      4  C   UNL     1       4.742  -3.585  -3.307  0.00  0.00    +0.000 C 
ATOM      5  C   UNL     1       5.934  -3.250  -2.389  0.00  0.00    +0.000 C 
ATOM      6  C   UNL     1       5.521  -2.469  -1.171  0.00  0.00    +0.002 C 
ATOM      7  C   UNL     1       5.277  -3.458  -0.014  0.00  0.00    +0.033 C 
ENDROOT
BRANCH   1   8
ATOM      8  C   UNL     1       3.792  -4.997   1.098  0.00  0.00    +0.155 C 
ATOM      9  N   UNL     1       4.728  -5.089   1.984  0.00  0.00    -0.075 NA
ATOM     10  N   UNL     1       2.629  -5.720   1.247  0.00  0.00    -0.342 N 
ATOM     11  H   UNL     1       1.898  -5.596   0.622  0.00  0.00    +0.144 HD
ATOM     12  H   UNL     1       2.542  -6.353   1.977  0.00  0.00    +0.144 HD
BRANCH   9  13
ATOM     13  O   UNL     1       4.557  -5.931   3.110  0.00  0.00    -0.408 OA
ATOM     14  H   UNL     1       5.309  -5.934   3.717  0.00  0.00    +0.328 HD
ENDBRANCH   9  13
ENDBRANCH   1   8
BRANCH   1  17
ATOM     15  C   UNL     1       2.900  -2.164   0.918  0.00  0.00    +0.280 C 
ATOM     16  O   UNL     1       3.674  -2.260   1.852  0.00  0.00    -0.267 OA
ATOM     17  N   UNL     1       2.934  -3.069  -0.081  0.00  0.00    -0.296 N 
ATOM     18  H   UNL     1       2.270  -3.036  -0.787  0.00  0.00    +0.150 HD
BRANCH  15  23
ATOM     19  C   UNL     1      -0.806   0.826  -0.629  0.00  0.00    +0.086 C 
ATOM     20  C   UNL     1       0.307   0.249   0.207  0.00  0.00    +0.103 A 
ATOM     21  C   UNL     1       0.749   0.749   1.382  0.00  0.00    +0.045 A 
ATOM     22  C   UNL     1       1.789  -0.086   1.821  0.00  0.00    +0.055 A 
ATOM     23  C   UNL     1       1.930  -1.065   0.880  0.00  0.00    +0.189 A 
ATOM     24  O   UNL     1       1.017  -0.847  -0.090  0.00  0.00    -0.455 OA
ENDBRANCH  15  23
ENDBRANCH   1  17
TORSDOF 4
