REMARK  Name = ZINC63478741
REMARK  4 active torsions:
REMARK  status: ('A' for Active; 'I' for Inactive)
REMARK    1  A    between atoms: C_1  and  O_2
REMARK    2  A    between atoms: O_2  and  C_3
REMARK    3  A    between atoms: C_10  and  C_18
REMARK    4  A    between atoms: N_24  and  C_27
REMARK                            x       y       z     vdW  Elec       q    Type
REMARK                         _______ _______ _______ _____ _____    ______ ____
ROOT
ATOM      1  C   UNL     1       0.534  -0.933   0.689  0.00  0.00    +0.121 A 
ATOM      2  C   UNL     1       1.025  -0.056   1.673  0.00  0.00    +0.047 A 
ATOM      3  C   UNL     1       1.637  -0.494   2.793  0.00  0.00    +0.029 A 
ATOM      4  C   UNL     1       1.810  -1.932   3.017  0.00  0.00    +0.043 A 
ATOM      5  N   UNL     1       2.378  -2.605   3.991  0.00  0.00    -0.376 N 
ATOM      6  C   UNL     1       2.181  -4.030   3.744  0.00  0.00    +0.128 C 
ATOM      7  C   UNL     1       3.498  -4.809   3.703  0.00  0.00    +0.121 C 
ATOM      8  N   UNL     1       3.225  -6.152   3.166  0.00  0.00    -0.307 NA
ATOM      9  C   UNL     1       2.816  -6.140   1.759  0.00  0.00    +0.086 C 
ATOM     10  C   UNL     1       1.459  -5.427   1.609  0.00  0.00    +0.048 C 
ATOM     11  C   UNL     1       1.566  -4.115   2.356  0.00  0.00    -0.035 C 
ATOM     12  C   UNL     1       1.301  -2.860   1.975  0.00  0.00    +0.003 A 
ATOM     13  C   UNL     1       0.642  -2.278   0.800  0.00  0.00    +0.055 A 
ATOM     14  H   UNL     1       4.014  -6.765   3.308  0.00  0.00    +0.123 HD
ATOM     15  H   UNL     1       2.849  -2.221   4.747  0.00  0.00    +0.160 HD
ENDROOT
BRANCH   7  16
ATOM     16  C   UNL     1       4.482  -4.096   2.812  0.00  0.00    +0.101 A 
ATOM     17  C   UNL     1       5.754  -3.740   3.296  0.00  0.00    +0.263 A 
ATOM     18  N   UNL     1       6.620  -3.102   2.484  0.00  0.00    -0.274 N 
ATOM     19  H   UNL     1       7.498  -2.856   2.815  0.00  0.00    +0.173 HD
ATOM     20  C   UNL     1       6.277  -2.806   1.217  0.00  0.00    +0.337 A 
ATOM     21  O   UNL     1       7.072  -2.231   0.500  0.00  0.00    -0.246 OA
ATOM     22  N   UNL     1       5.066  -3.137   0.732  0.00  0.00    -0.227 N 
ATOM     23  C   UNL     1       4.155  -3.792   1.524  0.00  0.00    +0.270 A 
ATOM     24  O   UNL     1       2.943  -4.127   1.033  0.00  0.00    -0.267 OA
ATOM     25  O   UNL     1       6.070  -4.006   4.443  0.00  0.00    -0.267 OA
BRANCH  22  26
ATOM     26  C   UNL     1       4.734  -2.817  -0.592  0.00  0.00    +0.073 A 
ATOM     27  C   UNL     1       5.000  -3.719  -1.613  0.00  0.00    +0.028 A 
ATOM     28  C   UNL     1       4.672  -3.400  -2.917  0.00  0.00    +0.002 A 
ATOM     29  C   UNL     1       4.079  -2.185  -3.205  0.00  0.00    +0.002 A 
ATOM     30  C   UNL     1       3.813  -1.284  -2.191  0.00  0.00    +0.022 A 
ATOM     31  C   UNL     1       4.134  -1.599  -0.884  0.00  0.00    +0.065 A 
ATOM     32 CL   UNL     1       3.793  -0.470   0.391  0.00  0.00    -0.081 Cl
ENDBRANCH  22  26
ENDBRANCH   7  16
BRANCH   1  34
ATOM     33  C   UNL     1      -0.167   1.012  -0.485  0.00  0.00    +0.277 C 
ATOM     34  O   UNL     1      -0.074  -0.412  -0.409  0.00  0.00    -0.495 OA
ENDBRANCH   1  34
TORSDOF 3
