REMARK  Name = ZINC63633089
REMARK  7 active torsions:
REMARK  status: ('A' for Active; 'I' for Inactive)
REMARK    1  A    between atoms: C_1  and  N_2
REMARK    2  A    between atoms: N_9  and  C_12
REMARK    3  A    between atoms: N_13  and  C_28
REMARK    4  A    between atoms: N_16  and  C_17
REMARK    5  A    between atoms: C_17  and  C_18
REMARK    6  A    between atoms: C_18  and  C_19
REMARK    7  A    between atoms: C_28  and  C_29
REMARK                            x       y       z     vdW  Elec       q    Type
REMARK                         _______ _______ _______ _____ _____    ______ ____
ROOT
ATOM      1  C   UNL     1       0.903   0.899  -0.212  0.00  0.00    +0.136 C 
ATOM      2  N   UNL     1       0.680  -0.549  -0.236  0.00  0.00    -0.264 N 
ATOM      3  C   UNL     1      -0.633  -1.126  -0.128  0.00  0.00    +0.227 C 
ATOM      4  C   UNL     1      -0.737  -2.220  -1.237  0.00  0.00    +0.205 C 
ATOM      5  C   UNL     1       0.277  -3.249  -0.864  0.00  0.00    +0.247 C 
ATOM      6  O   UNL     1       0.044  -4.438  -0.903  0.00  0.00    -0.273 OA
ATOM      7  N   UNL     1       1.487  -2.751  -0.476  0.00  0.00    -0.227 N 
ATOM      8  C   UNL     1       1.704  -1.441  -0.369  0.00  0.00    +0.312 C 
ATOM      9  O   UNL     1       2.848  -1.032  -0.404  0.00  0.00    -0.252 OA
ATOM     10  C   UNL     1       2.573  -3.680  -0.154  0.00  0.00    +0.143 C 
ATOM     11  N   UNL     1      -2.162  -2.506  -1.083  0.00  0.00    -0.284 N 
ATOM     12  C   UNL     1      -2.716  -1.236  -0.897  0.00  0.00    +0.181 C 
ATOM     13  N   UNL     1      -1.851  -0.393  -0.382  0.00  0.00    -0.231 NA
ATOM     14  N   UNL     1      -4.010  -0.907  -1.227  0.00  0.00    -0.317 N 
ATOM     15  H   UNL     1      -4.596  -1.575  -1.615  0.00  0.00    +0.149 HD
ENDROOT
BRANCH  14  16
ATOM     16  C   UNL     1      -4.502   0.453  -0.994  0.00  0.00    +0.108 C 
BRANCH  16  17
ATOM     17  C   UNL     1      -5.960   0.552  -1.445  0.00  0.00    +0.052 C 
BRANCH  17  18
ATOM     18  C   UNL     1      -6.467   1.951  -1.205  0.00  0.00    -0.040 C 
ATOM     19  C   UNL     1      -6.504   2.966  -2.098  0.00  0.00    -0.001 A 
ATOM     20  C   UNL     1      -6.099   3.069  -3.505  0.00  0.00    +0.010 A 
ATOM     21  C   UNL     1      -6.263   4.246  -4.150  0.00  0.00    +0.001 A 
ATOM     22  C   UNL     1      -6.807   5.368  -3.511  0.00  0.00    +0.002 A 
ATOM     23  C   UNL     1      -7.202   5.352  -2.220  0.00  0.00    +0.026 A 
ATOM     24  C   UNL     1      -7.077   4.166  -1.445  0.00  0.00    +0.043 A 
ATOM     25  N   UNL     1      -7.381   3.902  -0.198  0.00  0.00    -0.380 N 
ATOM     26  C   UNL     1      -7.042   2.502   0.081  0.00  0.00    +0.144 C 
ATOM     27  H   UNL     1      -7.770   4.526   0.434  0.00  0.00    +0.160 HD
ENDBRANCH  17  18
ENDBRANCH  16  17
ENDBRANCH  14  16
BRANCH  11  28
ATOM     28  C   UNL     1      -2.842  -3.803  -1.117  0.00  0.00    +0.143 C 
BRANCH  28  29
ATOM     29  C   UNL     1      -3.176  -4.159  -2.542  0.00  0.00    -0.030 A 
ATOM     30  C   UNL     1      -4.426  -3.862  -3.054  0.00  0.00    +0.006 A 
ATOM     31  C   UNL     1      -4.733  -4.188  -4.361  0.00  0.00    +0.020 A 
ATOM     32  C   UNL     1      -3.789  -4.811  -5.158  0.00  0.00    +0.041 A 
ATOM     33  C   UNL     1      -2.539  -5.108  -4.646  0.00  0.00    +0.020 A 
ATOM     34  C   UNL     1      -2.231  -4.776  -3.340  0.00  0.00    +0.006 A 
ATOM     35 CL   UNL     1      -4.174  -5.222  -6.801  0.00  0.00    -0.084 Cl
ENDBRANCH  28  29
ENDBRANCH  11  28
TORSDOF 5
