REMARK  Name = ZINC16450844
REMARK  6 active torsions:
REMARK  status: ('A' for Active; 'I' for Inactive)
REMARK    1  A    between atoms: C_4  and  C_7
REMARK    2  A    between atoms: C_8  and  C_9
REMARK    3  A    between atoms: N_11  and  C_12
REMARK    4  A    between atoms: C_12  and  N_14
REMARK    5  A    between atoms: N_14  and  C_15
REMARK    6  A    between atoms: C_20  and  C_21
REMARK                            x       y       z     vdW  Elec       q    Type
REMARK                         _______ _______ _______ _____ _____    ______ ____
ROOT
ATOM      1  C   UNL     1       1.149   1.608  -0.234  0.00  0.00    +0.141 C 
ATOM      2  S   UNL     1       1.109   3.291  -0.548  0.00  0.00    -0.018 S 
ENDROOT
BRANCH   1   5
ATOM      3  C   UNL     1      -1.173   1.513  -0.450  0.00  0.00    +0.242 C 
ATOM      4  O   UNL     1      -1.202   2.709  -0.672  0.00  0.00    -0.270 OA
ATOM      5  N   UNL     1       0.003   0.899  -0.216  0.00  0.00    -0.264 N 
ATOM      6  H   UNL     1       0.026  -0.054  -0.038  0.00  0.00    +0.157 HD
BRANCH   3   8
ATOM      7  C   UNL     1      -3.594   1.356  -0.669  0.00  0.00    +0.013 C 
ATOM      8  C   UNL     1      -2.417   0.742  -0.435  0.00  0.00    +0.068 C 
BRANCH   7  12
ATOM      9  C   UNL     1      -7.199  -0.880  -0.629  0.00  0.00    +0.000 A 
ATOM     10  C   UNL     1      -7.235   0.480  -0.882  0.00  0.00    +0.001 A 
ATOM     11  C   UNL     1      -6.068   1.214  -0.897  0.00  0.00    +0.008 A 
ATOM     12  C   UNL     1      -4.845   0.581  -0.655  0.00  0.00    -0.025 A 
ATOM     13  C   UNL     1      -4.816  -0.795  -0.405  0.00  0.00    +0.008 A 
ATOM     14  C   UNL     1      -5.992  -1.514  -0.388  0.00  0.00    +0.001 A 
ENDBRANCH   7  12
ENDBRANCH   3   8
ENDBRANCH   1   5
BRANCH   1  15
ATOM     15  N   UNL     1       2.326   0.993  -0.006  0.00  0.00    -0.296 N 
ATOM     16  H   UNL     1       2.344   0.055   0.239  0.00  0.00    +0.154 HD
BRANCH  15  17
ATOM     17  C   UNL     1       3.517   1.704  -0.123  0.00  0.00    +0.047 A 
ATOM     18  C   UNL     1       3.646   2.952   0.473  0.00  0.00    +0.025 A 
ATOM     19  C   UNL     1       4.828   3.655   0.356  0.00  0.00    +0.022 A 
ATOM     20  C   UNL     1       5.894   3.124  -0.354  0.00  0.00    +0.042 A 
ATOM     21  C   UNL     1       5.784   1.887  -0.953  0.00  0.00    +0.037 A 
ATOM     22  C   UNL     1       4.595   1.161  -0.839  0.00  0.00    +0.086 A 
ATOM     23 CL   UNL     1       7.374   4.022  -0.491  0.00  0.00    -0.084 Cl
BRANCH  22  24
ATOM     24  C   UNL     1       4.473  -0.164  -1.471  0.00  0.00    +0.388 C 
ATOM     25  O   UNL     1       3.408  -0.749  -1.456  0.00  0.00    -0.241 OA
ATOM     26  O   UNL     1       5.542  -0.728  -2.067  0.00  0.00    -0.241 OA
ENDBRANCH  22  24
ENDBRANCH  15  17
ENDBRANCH   1  15
TORSDOF 6
