REMARK  Name = ZINC44195722
REMARK  4 active torsions:
REMARK  status: ('A' for Active; 'I' for Inactive)
REMARK    1  A    between atoms: C_1  and  C_2
REMARK    2  A    between atoms: C_8  and  C_12
REMARK    3  A    between atoms: N_14  and  C_15
REMARK    4  A    between atoms: C_15  and  C_16
REMARK                            x       y       z     vdW  Elec       q    Type
REMARK                         _______ _______ _______ _____ _____    ______ ____
ROOT
ATOM      1  C   UNL     1      -0.019   1.526   0.010  0.00  0.00    +0.044 C 
ATOM      2  C   UNL     1       0.002  -0.004   0.002  0.00  0.00    +0.082 C 
ATOM      3  C   UNL     1      -1.405  -0.622   0.023  0.00  0.00    +0.046 C 
ATOM      4  C   UNL     1      -1.617  -0.824   1.543  0.00  0.00    +0.099 C 
ATOM      5  C   UNL     1      -0.218  -0.959   2.098  0.00  0.00    +0.217 C 
ATOM      6  O   UNL     1       0.045  -1.347   3.216  0.00  0.00    -0.276 OA
ATOM      7  N   UNL     1       0.703  -0.587   1.173  0.00  0.00    -0.275 N 
ATOM      8  C   UNL     1       2.157  -0.637   0.985  0.00  0.00    +0.173 C 
ATOM      9  C   UNL     1       2.592  -0.857  -0.480  0.00  0.00    +0.103 C 
ATOM     10  S   UNL     1       0.992  -0.703  -1.380  0.00  0.00    -0.133 S 
ENDROOT
BRANCH   8  11
ATOM     11  C   UNL     1       2.712  -1.761   1.821  0.00  0.00    +0.235 C 
ATOM     12  O   UNL     1       1.967  -2.440   2.495  0.00  0.00    -0.274 OA
ATOM     13  N   UNL     1       4.036  -2.013   1.819  0.00  0.00    -0.305 N 
ATOM     14  H   UNL     1       4.632  -1.470   1.279  0.00  0.00    +0.149 HD
BRANCH  13  15
ATOM     15  C   UNL     1       4.575  -3.106   2.632  0.00  0.00    +0.217 C 
BRANCH  15  16
ATOM     16  C   UNL     1       6.093  -3.175   2.450  0.00  0.00    +0.405 C 
ATOM     17  F   UNL     1       6.667  -1.966   2.855  0.00  0.00    -0.169 F 
ATOM     18  F   UNL     1       6.608  -4.219   3.226  0.00  0.00    -0.169 F 
ATOM     19  F   UNL     1       6.391  -3.405   1.103  0.00  0.00    -0.169 F 
ENDBRANCH  15  16
ENDBRANCH  13  15
ENDBRANCH   8  11
TORSDOF 3
