REMARK  Name = ZINC06496290
REMARK  4 active torsions:
REMARK  status: ('A' for Active; 'I' for Inactive)
REMARK    1  A    between atoms: C_4  and  N_7
REMARK    2  A    between atoms: C_9  and  C_22
REMARK    3  A    between atoms: C_10  and  C_12
REMARK    4  A    between atoms: N_23  and  N_24
REMARK                            x       y       z     vdW  Elec       q    Type
REMARK                         _______ _______ _______ _____ _____    ______ ____
ROOT
ATOM      1  N   UNL     1       6.963   4.814  -1.197  0.00  0.00    -0.239 N 
ATOM      2  C   UNL     1       7.406   4.026  -0.196  0.00  0.00    +0.124 A 
ATOM      3  C   UNL     1       6.326   3.392   0.354  0.00  0.00    +0.040 A 
ATOM      4  C   UNL     1       5.150   3.842  -0.395  0.00  0.00    +0.102 A 
ATOM      5  N   UNL     1       5.575   4.690  -1.307  0.00  0.00    -0.166 NA
ENDROOT
BRANCH   4   6
ATOM      6  C   UNL     1       3.747   3.425  -0.165  0.00  0.00    +0.003 A 
ATOM      7  C   UNL     1       3.456   2.078   0.107  0.00  0.00    +0.011 A 
ATOM      8  C   UNL     1       2.178   1.671   0.321  0.00  0.00    +0.009 A 
ATOM      9  C   UNL     1       1.125   2.603   0.272  0.00  0.00    -0.018 A 
ATOM     10  C   UNL     1      -0.205   2.206   0.490  0.00  0.00    +0.008 A 
ATOM     11  C   UNL     1      -1.203   3.130   0.430  0.00  0.00    +0.001 A 
ATOM     12  C   UNL     1      -0.925   4.470   0.167  0.00  0.00    +0.001 A 
ATOM     13  C   UNL     1       0.350   4.891  -0.050  0.00  0.00    +0.008 A 
ATOM     14  C   UNL     1       1.407   3.965  -0.002  0.00  0.00    -0.017 A 
ATOM     15  C   UNL     1       2.734   4.366  -0.221  0.00  0.00    +0.018 A 
ENDBRANCH   4   6
BRANCH   1  19
ATOM     16  C   UNL     1       9.361   7.242  -3.589  0.00  0.00    +0.000 A 
ATOM     17  C   UNL     1       7.994   7.204  -3.796  0.00  0.00    +0.002 A 
ATOM     18  C   UNL     1       7.197   6.400  -3.005  0.00  0.00    +0.028 A 
ATOM     19  C   UNL     1       7.769   5.630  -2.001  0.00  0.00    +0.065 A 
ATOM     20  C   UNL     1       9.141   5.675  -1.792  0.00  0.00    +0.028 A 
ATOM     21  C   UNL     1       9.934   6.476  -2.591  0.00  0.00    +0.002 A 
ENDBRANCH   1  19
BRANCH   3  22
ATOM     22  C   UNL     1       6.342   2.440   1.479  0.00  0.00    +0.142 C 
ATOM     23  N   UNL     1       7.344   2.428   2.304  0.00  0.00    -0.186 NA
BRANCH  23  24
ATOM     24  N   UNL     1       8.306   3.444   2.253  0.00  0.00    -0.191 N 
ATOM     25  C   UNL     1       9.406   3.371   3.029  0.00  0.00    +0.317 C 
ATOM     26  O   UNL     1      10.196   4.295   3.053  0.00  0.00    -0.251 OA
ATOM     27  N   UNL     1       9.629   2.274   3.779  0.00  0.00    -0.312 N 
ATOM     28  H   UNL     1       8.181   4.201   1.659  0.00  0.00    +0.179 HD
ATOM     29  H   UNL     1       8.999   1.537   3.761  0.00  0.00    +0.147 HD
ATOM     30  H   UNL     1      10.421   2.221   4.338  0.00  0.00    +0.147 HD
ENDBRANCH  23  24
ENDBRANCH   3  22
TORSDOF 4
