REMARK  Name = ZINC36384791
REMARK  6 active torsions:
REMARK  status: ('A' for Active; 'I' for Inactive)
REMARK    1  A    between atoms: C_1  and  C_2
REMARK    2  A    between atoms: N_11  and  C_15
REMARK    3  A    between atoms: C_15  and  C_16
REMARK    4  A    between atoms: N_18  and  C_19
REMARK    5  A    between atoms: C_23  and  S_25
REMARK    6  A    between atoms: S_25  and  N_28
REMARK                            x       y       z     vdW  Elec       q    Type
REMARK                         _______ _______ _______ _____ _____    ______ ____
ROOT
ATOM      1  C   UNL     1       1.265   0.606   5.501  0.00  0.00    +0.235 C 
ATOM      2  O   UNL     1       1.625  -0.533   5.292  0.00  0.00    -0.274 OA
ATOM      3  N   UNL     1       1.182   1.065   6.765  0.00  0.00    -0.284 N 
ATOM      4  H   UNL     1       0.960   1.995   6.930  0.00  0.00    +0.155 HD
ENDROOT
BRANCH   3   5
ATOM      5  C   UNL     1       1.417   0.201   7.840  0.00  0.00    +0.035 A 
ATOM      6  C   UNL     1       0.694   0.342   9.018  0.00  0.00    +0.023 A 
ATOM      7  C   UNL     1       0.928  -0.512  10.077  0.00  0.00    +0.004 A 
ATOM      8  C   UNL     1       1.883  -1.507   9.966  0.00  0.00    +0.029 A 
ATOM      9  C   UNL     1       2.605  -1.650   8.796  0.00  0.00    +0.114 A 
ATOM     10  C   UNL     1       2.370  -0.803   7.730  0.00  0.00    +0.052 A 
BRANCH   9  11
ATOM     11  S   UNL     1       3.820  -2.919   8.661  0.00  0.00    +0.100 S 
ATOM     12  O   UNL     1       4.738  -2.497   7.661  0.00  0.00    -0.146 OA
ATOM     13  O   UNL     1       4.227  -3.234   9.985  0.00  0.00    -0.146 OA
BRANCH  11  14
ATOM     14  N   UNL     1       3.059  -4.264   8.066  0.00  0.00    -0.118 NA
ATOM     15  C   UNL     1       3.730  -5.352   7.868  0.00  0.00    +0.117 C 
ATOM     16  N   UNL     1       5.067  -5.513   8.118  0.00  0.00    -0.331 N 
ATOM     17  C   UNL     1       5.367  -6.948   8.245  0.00  0.00    +0.103 C 
ATOM     18  C   UNL     1       4.336  -7.641   7.327  0.00  0.00    +0.026 C 
ATOM     19  C   UNL     1       3.157  -6.645   7.332  0.00  0.00    +0.074 C 
ATOM     20  H   UNL     1       5.713  -4.794   8.198  0.00  0.00    +0.147 HD
ENDBRANCH  11  14
ENDBRANCH   9  11
ENDBRANCH   3   5
BRANCH   1  21
ATOM     21  C   UNL     1       0.910   1.508   4.347  0.00  0.00    +0.214 C 
BRANCH  21  31
ATOM     22  C   UNL     1      -0.006   1.536   0.009  0.00  0.00    +0.010 C 
ATOM     23  C   UNL     1       0.003   0.006   0.000  0.00  0.00    +0.018 C 
ATOM     24  C   UNL     1      -1.437  -0.513   0.008  0.00  0.00    +0.006 C 
ATOM     25  C   UNL     1      -1.427  -2.043   0.020  0.00  0.00    +0.000 C 
ATOM     26  C   UNL     1      -0.709  -2.539   1.278  0.00  0.00    +0.003 C 
ATOM     27  C   UNL     1       0.734  -2.029   1.275  0.00  0.00    +0.035 C 
ATOM     28  C   UNL     1       0.736  -0.504   1.236  0.00  0.00    +0.115 C 
ATOM     29  C   UNL     1       0.110   0.057   2.491  0.00  0.00    +0.247 C 
ATOM     30  O   UNL     1      -1.027  -0.107   2.881  0.00  0.00    -0.273 OA
ATOM     31  N   UNL     1       1.081   0.779   3.087  0.00  0.00    -0.215 N 
ATOM     32  C   UNL     1       2.220   0.748   2.385  0.00  0.00    +0.310 C 
ATOM     33  O   UNL     1       3.237   1.323   2.720  0.00  0.00    -0.252 OA
ATOM     34  N   UNL     1       2.112   0.007   1.265  0.00  0.00    -0.285 N 
ATOM     35  H   UNL     1       2.807  -0.156   0.608  0.00  0.00    +0.151 HD
ENDBRANCH  21  31
ENDBRANCH   1  21
TORSDOF 5
