REMARK  Name = ZINC34139028
REMARK  13 active torsions:
REMARK  status: ('A' for Active; 'I' for Inactive)
REMARK    1  A    between atoms: C_1  and  C_2
REMARK    2  A    between atoms: C_2  and  C_41
REMARK    3  A    between atoms: C_9  and  C_21
REMARK    4  A    between atoms: C_17  and  C_19
REMARK    5  A    between atoms: C_17  and  C_20
REMARK    6  A    between atoms: N_23  and  N_24
REMARK    7  A    between atoms: C_25  and  C_27
REMARK    8  A    between atoms: C_27  and  C_28
REMARK    9  A    between atoms: C_28  and  C_29
REMARK   10  A    between atoms: C_29  and  C_30
REMARK   11  A    between atoms: C_30  and  C_31
REMARK   12  A    between atoms: C_31  and  N_32
REMARK   13  A    between atoms: C_33  and  C_35
REMARK                            x       y       z     vdW  Elec       q    Type
REMARK                         _______ _______ _______ _____ _____    ______ ____
ROOT
ATOM      1  C   UNL     1       3.081   0.430   1.040  0.00  0.00    +0.261 C 
ATOM      2  O   UNL     1       3.602   1.146   0.210  0.00  0.00    -0.271 OA
ATOM      3  N   UNL     1       2.532   0.970   2.146  0.00  0.00    -0.232 N 
ATOM      4  H   UNL     1       2.115   0.398   2.809  0.00  0.00    +0.173 HD
ENDROOT
BRANCH   1  11
ATOM      5  C   UNL     1      -0.019   1.524   0.010  0.00  0.00    +0.074 C 
ATOM      6  C   UNL     1       0.002  -0.004   0.002  0.00  0.00    +0.166 C 
ATOM      7  O   UNL     1       0.675  -0.475  -1.183  0.00  0.00    -0.341 OA
ATOM      8  C   UNL     1       1.159  -1.772  -0.786  0.00  0.00    +0.187 C 
ATOM      9  C   UNL     1       1.621  -1.545   0.668  0.00  0.00    +0.191 C 
ATOM     10  O   UNL     1       0.720  -0.507   1.137  0.00  0.00    -0.340 OA
ATOM     11  C   UNL     1       3.047  -1.060   0.833  0.00  0.00    +0.239 C 
ATOM     12  O   UNL     1       3.965  -1.422  -0.193  0.00  0.00    -0.333 OA
ATOM     13  C   UNL     1       3.462  -1.238  -1.500  0.00  0.00    +0.286 C 
ATOM     14  C   UNL     1       2.296  -2.254  -1.639  0.00  0.00    +0.209 C 
ATOM     15  O   UNL     1       2.099  -2.307  -3.046  0.00  0.00    -0.338 OA
ATOM     16  C   UNL     1       3.379  -1.995  -3.637  0.00  0.00    +0.168 C 
ATOM     17  O   UNL     1       4.305  -1.652  -2.579  0.00  0.00    -0.318 OA
ATOM     18  C   UNL     1       3.902  -3.214  -4.403  0.00  0.00    +0.074 C 
ATOM     19  C   UNL     1       3.230  -0.814  -4.599  0.00  0.00    +0.074 C 
ATOM     20  C   UNL     1      -1.435  -0.531   0.018  0.00  0.00    +0.074 C 
ENDBRANCH   1  11
BRANCH   3  21
ATOM     21  N   UNL     1       2.563   2.357   2.338  0.00  0.00    -0.234 N 
ATOM     22  C   UNL     1       2.015   2.897   3.445  0.00  0.00    +0.229 C 
ATOM     23  O   UNL     1       1.494   2.181   4.274  0.00  0.00    -0.274 OA
ATOM     24  H   UNL     1       2.980   2.930   1.675  0.00  0.00    +0.173 HD
BRANCH  22  25
ATOM     25  C   UNL     1       2.048   4.389   3.652  0.00  0.00    +0.097 C 
BRANCH  25  26
ATOM     26  C   UNL     1       1.363   4.736   4.975  0.00  0.00    +0.009 C 
BRANCH  26  27
ATOM     27  C   UNL     1       1.397   6.251   5.185  0.00  0.00    +0.002 C 
BRANCH  27  28
ATOM     28  C   UNL     1       0.712   6.598   6.508  0.00  0.00    +0.019 C 
BRANCH  28  29
ATOM     29  C   UNL     1       0.746   8.113   6.718  0.00  0.00    +0.104 C 
BRANCH  29  30
ATOM     30  N   UNL     1       0.089   8.446   7.985  0.00  0.00    -0.311 N 
ATOM     31  C   UNL     1       0.000   9.731   8.381  0.00  0.00    +0.244 C 
ATOM     32  O   UNL     1       0.464  10.614   7.687  0.00  0.00    -0.270 OA
ATOM     33  H   UNL     1      -0.281   7.741   8.539  0.00  0.00    +0.149 HD
BRANCH  31  34
ATOM     34  C   UNL     1      -0.662  10.066   9.660  0.00  0.00    +0.037 A 
ATOM     35  C   UNL     1      -1.191   9.054  10.462  0.00  0.00    +0.013 A 
ATOM     36  C   UNL     1      -1.807   9.373  11.654  0.00  0.00    +0.001 A 
ATOM     37  C   UNL     1      -1.902  10.694  12.055  0.00  0.00    +0.000 A 
ATOM     38  C   UNL     1      -1.381  11.703  11.264  0.00  0.00    +0.001 A 
ATOM     39  C   UNL     1      -0.756  11.396  10.073  0.00  0.00    +0.013 A 
ENDBRANCH  31  34
ENDBRANCH  29  30
ENDBRANCH  28  29
ENDBRANCH  27  28
ENDBRANCH  26  27
ENDBRANCH  25  26
ENDBRANCH  22  25
ENDBRANCH   3  21
TORSDOF 9
