REMARK  Name = ZINC66596731
REMARK  10 active torsions:
REMARK  status: ('A' for Active; 'I' for Inactive)
REMARK    1  A    between atoms: C_1  and  C_2
REMARK    2  A    between atoms: C_5  and  C_9
REMARK    3  A    between atoms: C_6  and  C_8
REMARK    4  A    between atoms: C_9  and  C_10
REMARK    5  A    between atoms: C_10  and  C_12
REMARK    6  A    between atoms: C_10  and  N_13
REMARK    7  A    between atoms: N_16  and  C_17
REMARK    8  A    between atoms: C_17  and  C_18
REMARK    9  A    between atoms: N_24  and  C_25
REMARK   10  A    between atoms: N_24  and  C_26
REMARK                            x       y       z     vdW  Elec       q    Type
REMARK                         _______ _______ _______ _____ _____    ______ ____
ROOT
ATOM      1  N   UNL     1      -2.601  -4.319   1.760  0.00  0.00    -0.297 N 
ATOM      2  C   UNL     1      -3.903  -3.970   1.735  0.00  0.00    +0.300 C 
ATOM      3  O   UNL     1      -4.570  -4.182   0.741  0.00  0.00    -0.253 OA
ATOM      4  N   UNL     1      -4.465  -3.387   2.812  0.00  0.00    -0.295 N 
ATOM      5  H   UNL     1      -2.069  -4.150   2.553  0.00  0.00    +0.151 HD
ATOM      6  H   UNL     1      -3.933  -3.218   3.606  0.00  0.00    +0.151 HD
ENDROOT
BRANCH   1   7
ATOM      7  C   UNL     1      -1.990  -4.953   0.589  0.00  0.00    +0.076 C 
ATOM      8  C   UNL     1      -2.220  -6.464   0.649  0.00  0.00    +0.028 C 
BRANCH   7   9
ATOM      9  C   UNL     1      -0.487  -4.665   0.580  0.00  0.00    +0.057 C 
BRANCH   9  14
ATOM     10  C   UNL     1       0.388   1.001  -0.143  0.00  0.00    +0.044 C 
ATOM     11  C   UNL     1       0.160  -0.477   0.045  0.00  0.00    -0.050 A 
ATOM     12  C   UNL     1       0.246  -1.034   1.308  0.00  0.00    +0.003 A 
ATOM     13  C   UNL     1       0.037  -2.389   1.480  0.00  0.00    +0.004 A 
ATOM     14  C   UNL     1      -0.260  -3.187   0.391  0.00  0.00    -0.043 A 
ATOM     15  C   UNL     1      -0.347  -2.630  -0.871  0.00  0.00    -0.047 A 
ATOM     16  C   UNL     1      -0.142  -1.274  -1.043  0.00  0.00    +0.007 A 
ATOM     17  C   UNL     1      -0.670  -3.500  -2.058  0.00  0.00    +0.044 C 
ENDBRANCH   9  14
ENDBRANCH   7   9
ENDBRANCH   1   7
BRANCH   4  18
ATOM     18  C   UNL     1      -5.880  -3.008   2.785  0.00  0.00    +0.142 C 
BRANCH  18  19
ATOM     19  C   UNL     1      -6.257  -2.380   4.102  0.00  0.00    -0.014 A 
ATOM     20  C   UNL     1      -6.724  -3.168   5.146  0.00  0.00    +0.010 A 
ATOM     21  C   UNL     1      -7.060  -2.553   6.339  0.00  0.00    +0.042 A 
ATOM     22  C   UNL     1      -6.918  -1.173   6.451  0.00  0.00    +0.098 A 
ATOM     23  N   UNL     1      -6.469  -0.457   5.432  0.00  0.00    -0.349 N 
ATOM     24  C   UNL     1      -6.136  -1.018   4.285  0.00  0.00    +0.089 A 
ATOM     25  N   UNL     1      -7.252  -0.541   7.643  0.00  0.00    -0.323 N 
ATOM     26  C   UNL     1      -7.750  -1.328   8.775  0.00  0.00    +0.130 C 
ATOM     27  C   UNL     1      -7.105   0.911   7.769  0.00  0.00    +0.130 C 
ATOM     28  H   UNL     1      -6.378   0.504   5.533  0.00  0.00    +0.167 HD
ENDBRANCH  18  19
ENDBRANCH   4  18
TORSDOF 5
