REMARK  Name = ZINC35839505
REMARK  11 active torsions:
REMARK  status: ('A' for Active; 'I' for Inactive)
REMARK    1  A    between atoms: C_1  and  C_2
REMARK    2  A    between atoms: C_9  and  C_11
REMARK    3  A    between atoms: C_14  and  C_16
REMARK    4  A    between atoms: C_16  and  N_17
REMARK    5  A    between atoms: N_20  and  C_23
REMARK    6  A    between atoms: C_23  and  C_24
REMARK    7  A    between atoms: C_24  and  C_26
REMARK    8  A    between atoms: C_24  and  O_35
REMARK    9  A    between atoms: C_26  and  O_27
REMARK   10  A    between atoms: O_27  and  C_28
REMARK   11  A    between atoms: C_28  and  C_29
REMARK                            x       y       z     vdW  Elec       q    Type
REMARK                         _______ _______ _______ _____ _____    ______ ____
ROOT
ATOM      1  N   UNL     1       5.572  -2.652   4.132  0.00  0.00    +0.387 N 
ATOM      2  C   UNL     1       5.446  -2.820   2.678  0.00  0.00    -0.063 C 
ATOM      3  C   UNL     1       6.838  -2.818   2.042  0.00  0.00    +0.066 C 
ATOM      4  N   UNL     1       7.636  -3.912   2.611  0.00  0.00    -0.303 NA
ATOM      5  C   UNL     1       7.750  -3.771   4.070  0.00  0.00    +0.066 C 
ATOM      6  C   UNL     1       6.351  -3.766   4.690  0.00  0.00    -0.063 C 
ATOM      7  H   UNL     1       6.042  -1.781   4.330  0.00  0.00    -0.081 HD
ENDROOT
BRANCH   1   8
ATOM      8  C   UNL     1       4.236  -2.637   4.741  0.00  0.00    +0.019 C 
BRANCH   8  12
ATOM      9  C   UNL     1       2.212  -0.122   3.096  0.00  0.00    +0.164 A 
ATOM     10  C   UNL     1       2.696   0.600   4.144  0.00  0.00    +0.230 A 
ATOM     11  O   UNL     1       3.481  -0.224   4.857  0.00  0.00    -0.449 OA
ATOM     12  C   UNL     1       3.479  -1.425   4.262  0.00  0.00    +0.179 A 
ATOM     13  N   UNL     1       2.720  -1.380   3.209  0.00  0.00    -0.210 NA
BRANCH   9  21
ATOM     14  C   UNL     1       0.040   1.518  -0.031  0.00  0.00    +0.028 C 
ATOM     15  C   UNL     1      -0.002  -0.011   0.006  0.00  0.00    +0.073 C 
ATOM     16  C   UNL     1       0.595  -0.573  -1.289  0.00  0.00    +0.022 C 
ATOM     17  C   UNL     1       0.679  -2.097  -1.188  0.00  0.00    +0.003 C 
ATOM     18  C   UNL     1       1.597  -2.484  -0.026  0.00  0.00    +0.019 C 
ATOM     19  C   UNL     1       1.011  -1.944   1.283  0.00  0.00    +0.108 C 
ATOM     20  N   UNL     1       0.789  -0.498   1.144  0.00  0.00    -0.293 N 
ATOM     21  C   UNL     1       1.304   0.365   2.042  0.00  0.00    +0.268 C 
ATOM     22  O   UNL     1       1.020   1.546   1.982  0.00  0.00    -0.268 OA
ENDBRANCH   9  21
ENDBRANCH   8  12
ENDBRANCH   1   8
BRANCH   4  23
ATOM     23  C   UNL     1       8.962  -3.978   1.983  0.00  0.00    +0.117 C 
BRANCH  23  24
ATOM     24  C   UNL     1       9.667  -5.266   2.414  0.00  0.00    +0.154 C 
BRANCH  24  25
ATOM     25  O   UNL     1       8.952  -6.394   1.906  0.00  0.00    -0.388 OA
ATOM     26  H   UNL     1       8.884  -6.415   0.942  0.00  0.00    +0.210 HD
ENDBRANCH  24  25
BRANCH  24  27
ATOM     27  C   UNL     1      11.094  -5.276   1.862  0.00  0.00    +0.192 C 
BRANCH  27  28
ATOM     28  O   UNL     1      11.789  -6.421   2.360  0.00  0.00    -0.373 OA
BRANCH  28  29
ATOM     29  C   UNL     1      13.139  -6.526   1.901  0.00  0.00    +0.195 C 
BRANCH  29  30
ATOM     30  C   UNL     1      13.773  -7.762   2.485  0.00  0.00    -0.022 A 
ATOM     31  C   UNL     1      14.429  -7.695   3.700  0.00  0.00    +0.006 A 
ATOM     32  C   UNL     1      15.010  -8.829   4.235  0.00  0.00    +0.000 A 
ATOM     33  C   UNL     1      14.935 -10.030   3.556  0.00  0.00    +0.000 A 
ATOM     34  C   UNL     1      14.279 -10.098   2.341  0.00  0.00    +0.000 A 
ATOM     35  C   UNL     1      13.693  -8.965   1.808  0.00  0.00    +0.006 A 
ENDBRANCH  29  30
ENDBRANCH  28  29
ENDBRANCH  27  28
ENDBRANCH  24  27
ENDBRANCH  23  24
ENDBRANCH   4  23
TORSDOF 10
