REMARK  Name = ZINC09309680
REMARK  5 active torsions:
REMARK  status: ('A' for Active; 'I' for Inactive)
REMARK    1  A    between atoms: C_1  and  C_2
REMARK    2  A    between atoms: C_10  and  C_13
REMARK    3  A    between atoms: C_16  and  O_19
REMARK    4  A    between atoms: O_19  and  C_20
REMARK    5  A    between atoms: C_21  and  C_29
REMARK                            x       y       z     vdW  Elec       q    Type
REMARK                         _______ _______ _______ _____ _____    ______ ____
ROOT
ATOM      1  C   UNL     1      -0.018   1.503   0.010  0.00  0.00    +0.044 C 
ATOM      2  C   UNL     1       0.002  -0.004   0.002  0.00  0.00    -0.050 A 
ATOM      3  C   UNL     1       0.006  -0.687  -1.202  0.00  0.00    +0.007 A 
ATOM      4  C   UNL     1       0.024  -2.069  -1.225  0.00  0.00    +0.046 A 
ATOM      5  C   UNL     1       0.039  -2.778  -0.037  0.00  0.00    +0.131 A 
ATOM      6  C   UNL     1       0.037  -2.087   1.181  0.00  0.00    +0.043 A 
ATOM      7  C   UNL     1       0.023  -0.699   1.196  0.00  0.00    +0.017 A 
ATOM      8  C   UNL     1       0.059  -2.877   2.439  0.00  0.00    +0.083 C 
ATOM      9  C   UNL     1       0.408  -4.176   2.350  0.00  0.00    +0.027 C 
ATOM     10  C   UNL     1       0.767  -4.784   1.025  0.00  0.00    +0.234 C 
ATOM     11  O   UNL     1       0.054  -4.135  -0.030  0.00  0.00    -0.479 OA
ATOM     12  C   UNL     1       0.424  -4.997   3.620  0.00  0.00    +0.160 C 
ATOM     13  N   UNL     1       0.054  -4.286   4.850  0.00  0.00    -0.208 N 
ATOM     14  C   UNL     1      -0.274  -2.947   4.774  0.00  0.00    +0.237 C 
ATOM     15  N   UNL     1      -0.262  -2.308   3.627  0.00  0.00    -0.213 NA
ATOM     16  N   UNL     1      -0.568  -2.542   6.029  0.00  0.00    -0.205 NA
ATOM     17  C   UNL     1      -0.445  -3.534   6.867  0.00  0.00    +0.203 C 
ATOM     18  N   UNL     1      -0.060  -4.653   6.192  0.00  0.00    -0.251 N 
ATOM     19  H   UNL     1       0.103  -5.532   6.570  0.00  0.00    +0.171 HD
ENDROOT
BRANCH  10  20
ATOM     20  C   UNL     1       2.248  -4.627   0.791  0.00  0.00    -0.003 A 
ATOM     21  C   UNL     1       2.752  -3.419   0.344  0.00  0.00    +0.011 A 
ATOM     22  C   UNL     1       4.108  -3.273   0.128  0.00  0.00    +0.046 A 
ATOM     23  C   UNL     1       4.965  -4.340   0.359  0.00  0.00    +0.120 A 
ATOM     24  C   UNL     1       4.457  -5.550   0.808  0.00  0.00    +0.046 A 
ATOM     25  C   UNL     1       3.100  -5.689   1.028  0.00  0.00    +0.011 A 
BRANCH  23  26
ATOM     26  O   UNL     1       6.300  -4.199   0.147  0.00  0.00    -0.495 OA
ATOM     27  C   UNL     1       7.122  -5.338   0.406  0.00  0.00    +0.277 C 
ENDBRANCH  23  26
ENDBRANCH  10  20
BRANCH  12  28
ATOM     28  C   UNL     1       1.813  -5.553   3.803  0.00  0.00    -0.003 A 
ATOM     29  C   UNL     1       2.099  -6.862   3.443  0.00  0.00    +0.009 A 
ATOM     30  C   UNL     1       3.390  -7.330   3.629  0.00  0.00    +0.020 A 
ATOM     31  C   UNL     1       4.343  -6.484   4.163  0.00  0.00    +0.111 A 
ATOM     32  N   UNL     1       4.036  -5.245   4.495  0.00  0.00    -0.263 NA
ATOM     33  C   UNL     1       2.820  -4.764   4.326  0.00  0.00    +0.116 A 
ENDBRANCH  12  28
TORSDOF 3
