REMARK  Name = ZINC55325237
REMARK  3 active torsions:
REMARK  status: ('A' for Active; 'I' for Inactive)
REMARK    1  A    between atoms: N_14  and  C_17
REMARK    2  A    between atoms: C_17  and  C_18
REMARK    3  A    between atoms: C_23  and  C_24
REMARK                            x       y       z     vdW  Elec       q    Type
REMARK                         _______ _______ _______ _____ _____    ______ ____
ROOT
ATOM      1  C   UNL     1       0.007   0.101  -0.750  0.00  0.00    +0.002 A 
ATOM      2  C   UNL     1       1.070   0.985  -0.722  0.00  0.00    +0.002 A 
ATOM      3  C   UNL     1       2.364   0.512  -0.595  0.00  0.00    +0.025 A 
ATOM      4  C   UNL     1       2.591  -0.849  -0.496  0.00  0.00    +0.049 A 
ATOM      5  C   UNL     1       1.520  -1.743  -0.527  0.00  0.00    +0.055 A 
ATOM      6  C   UNL     1       0.227  -1.261  -0.652  0.00  0.00    +0.025 A 
ATOM      7  N   UNL     1       1.765  -3.119  -0.438  0.00  0.00    -0.282 N 
ATOM      8  C   UNL     1       2.968  -3.579  -0.046  0.00  0.00    +0.241 C 
ATOM      9  O   UNL     1       3.172  -4.775  -0.017  0.00  0.00    -0.273 OA
ATOM     10  C   UNL     1       4.064  -2.628   0.356  0.00  0.00    +0.106 C 
ATOM     11  N   UNL     1       3.891  -1.357  -0.362  0.00  0.00    -0.329 N 
ATOM     12  C   UNL     1       5.425  -3.231   0.002  0.00  0.00    +0.016 C 
ATOM     13  C   UNL     1       6.534  -2.292   0.481  0.00  0.00    -0.076 C 
ATOM     14  N   UNL     1       6.436  -2.116   1.935  0.00  0.00    +0.383 N 
ATOM     15  C   UNL     1       5.163  -1.467   2.273  0.00  0.00    -0.076 C 
ATOM     16  C   UNL     1       4.000  -2.373   1.863  0.00  0.00    +0.016 C 
ATOM     17  H   UNL     1       1.060  -3.747  -0.660  0.00  0.00    +0.155 HD
ATOM     18  H   UNL     1       4.653  -0.885  -0.731  0.00  0.00    +0.147 HD
ATOM     19  H   UNL     1       6.482  -3.018   2.386  0.00  0.00    -0.081 HD
ENDROOT
BRANCH  14  20
ATOM     20  C   UNL     1       7.549  -1.280   2.402  0.00  0.00    -0.039 C 
BRANCH  20  21
ATOM     21  C   UNL     1       7.535  -1.220   3.908  0.00  0.00    -0.019 A 
ATOM     22  C   UNL     1       7.147  -0.166   4.659  0.00  0.00    +0.107 A 
ATOM     23  N   UNL     1       7.281  -0.508   5.958  0.00  0.00    -0.284 N 
ATOM     24  H   UNL     1       7.074   0.057   6.719  0.00  0.00    +0.188 HD
ATOM     25  N   UNL     1       7.770  -1.819   6.016  0.00  0.00    -0.174 NA
ATOM     26  C   UNL     1       7.919  -2.255   4.783  0.00  0.00    +0.094 A 
BRANCH  26  27
ATOM     27  C   UNL     1       8.409  -3.598   4.385  0.00  0.00    +0.002 A 
ATOM     28  C   UNL     1       7.955  -4.734   5.053  0.00  0.00    +0.013 A 
ATOM     29  C   UNL     1       8.413  -5.980   4.680  0.00  0.00    +0.039 A 
ATOM     30  C   UNL     1       9.323  -6.104   3.643  0.00  0.00    +0.123 A 
ATOM     31  C   UNL     1       9.777  -4.978   2.976  0.00  0.00    +0.039 A 
ATOM     32  C   UNL     1       9.319  -3.728   3.339  0.00  0.00    +0.013 A 
ATOM     33  F   UNL     1       9.770  -7.327   3.281  0.00  0.00    -0.205 F 
ENDBRANCH  26  27
ENDBRANCH  20  21
ENDBRANCH  14  20
TORSDOF 3
