REMARK  Name = ZINC04818329
REMARK  10 active torsions:
REMARK  status: ('A' for Active; 'I' for Inactive)
REMARK    1  A    between atoms: C_1  and  C_2
REMARK    2  A    between atoms: C_4  and  C_26
REMARK    3  A    between atoms: C_5  and  S_9
REMARK    4  A    between atoms: C_6  and  C_8
REMARK    5  A    between atoms: S_9  and  N_12
REMARK    6  A    between atoms: N_12  and  C_13
REMARK    7  A    between atoms: C_18  and  C_19
REMARK    8  A    between atoms: C_19  and  O_21
REMARK    9  A    between atoms: O_21  and  C_22
REMARK   10  A    between atoms: C_22  and  C_23
REMARK                            x       y       z     vdW  Elec       q    Type
REMARK                         _______ _______ _______ _____ _____    ______ ____
ROOT
ATOM      1  C   UNL     1      -0.058   0.972   4.289  0.00  0.00    +0.062 A 
ATOM      2  C   UNL     1      -0.726   1.634   5.311  0.00  0.00    +0.025 A 
ATOM      3  C   UNL     1      -1.856   2.375   5.033  0.00  0.00    +0.002 A 
ATOM      4  C   UNL     1      -2.333   2.467   3.735  0.00  0.00    +0.001 A 
ATOM      5  C   UNL     1      -1.682   1.822   2.706  0.00  0.00    +0.017 A 
ATOM      6  C   UNL     1      -0.539   1.062   2.973  0.00  0.00    +0.081 A 
ENDROOT
BRANCH   1   7
ATOM      7  N   UNL     1       1.080   0.226   4.566  0.00  0.00    -0.215 N 
ATOM      8  H   UNL     1       1.806   0.192   3.924  0.00  0.00    +0.174 HD
BRANCH   7   9
ATOM      9  S   UNL     1       1.196  -0.606   5.993  0.00  0.00    +0.073 S 
ATOM     10  O   UNL     1       2.464  -1.248   5.987  0.00  0.00    -0.150 OA
ATOM     11  O   UNL     1       0.803   0.293   7.021  0.00  0.00    -0.150 OA
BRANCH   9  16
ATOM     12  C   UNL     1      -2.955  -4.982   5.852  0.00  0.00    +0.044 C 
ATOM     13  C   UNL     1      -1.919  -3.889   5.886  0.00  0.00    -0.050 A 
ATOM     14  C   UNL     1      -2.111  -2.779   6.688  0.00  0.00    +0.008 A 
ATOM     15  C   UNL     1      -1.160  -1.776   6.720  0.00  0.00    -0.023 A 
ATOM     16  C   UNL     1      -0.016  -1.884   5.952  0.00  0.00    +0.114 A 
ATOM     17  C   UNL     1       0.174  -2.991   5.146  0.00  0.00    -0.023 A 
ATOM     18  C   UNL     1      -0.775  -3.995   5.117  0.00  0.00    +0.008 A 
ATOM     19  C   UNL     1       1.418  -3.105   4.304  0.00  0.00    +0.046 C 
ATOM     20  C   UNL     1      -1.370  -0.567   7.594  0.00  0.00    +0.046 C 
ENDBRANCH   9  16
ENDBRANCH   7   9
ENDBRANCH   1   7
BRANCH   6  21
ATOM     21  C   UNL     1       0.160   0.366   1.879  0.00  0.00    +0.341 C 
ATOM     22  O   UNL     1       1.156  -0.289   2.114  0.00  0.00    -0.245 OA
BRANCH  21  23
ATOM     23  O   UNL     1      -0.306   0.456   0.617  0.00  0.00    -0.452 OA
BRANCH  23  24
ATOM     24  C   UNL     1       0.433  -0.257  -0.410  0.00  0.00    +0.327 C 
BRANCH  24  25
ATOM     25  C   UNL     1      -0.231  -0.042  -1.746  0.00  0.00    +0.248 C 
ATOM     26  O   UNL     1      -1.228   0.644  -1.825  0.00  0.00    -0.272 OA
ATOM     27  N   UNL     1       0.284  -0.612  -2.854  0.00  0.00    -0.327 N 
ATOM     28  H   UNL     1       1.082  -1.160  -2.791  0.00  0.00    +0.145 HD
ATOM     29  H   UNL     1      -0.143  -0.474  -3.713  0.00  0.00    +0.145 HD
ENDBRANCH  24  25
ENDBRANCH  23  24
ENDBRANCH  21  23
ENDBRANCH   6  21
TORSDOF 7
