REMARK  Name = ZINC00985814
REMARK  6 active torsions:
REMARK  status: ('A' for Active; 'I' for Inactive)
REMARK    1  A    between atoms: C_1  and  O_2
REMARK    2  A    between atoms: O_2  and  C_3
REMARK    3  A    between atoms: C_8  and  C_9
REMARK    4  A    between atoms: C_12  and  C_23
REMARK    5  A    between atoms: C_18  and  N_22
REMARK    6  A    between atoms: C_19  and  C_20
REMARK                            x       y       z     vdW  Elec       q    Type
REMARK                         _______ _______ _______ _____ _____    ______ ____
ROOT
ATOM      1  C   UNL     1       0.002  -2.841   0.040  0.00  0.00    +0.105 C 
ATOM      2  C   UNL     1       1.059  -3.793   0.540  0.00  0.00    +0.054 A 
ATOM      3  C   UNL     1       2.194  -3.528   1.312  0.00  0.00    +0.102 A 
ATOM      4  N   UNL     1       2.828  -4.669   1.505  0.00  0.00    -0.171 NA
ATOM      5  N   UNL     1       2.112  -5.688   0.859  0.00  0.00    -0.246 N 
ATOM      6  H   UNL     1       2.351  -6.628   0.837  0.00  0.00    +0.192 HD
ATOM      7  C   UNL     1       1.031  -5.131   0.275  0.00  0.00    +0.223 A 
ATOM      8  O   UNL     1       0.047  -5.713  -0.457  0.00  0.00    -0.423 OA
ATOM      9  C   UNL     1      -1.064  -4.987  -0.697  0.00  0.00    +0.200 C 
ATOM     10  C   UNL     1      -1.154  -3.655  -0.487  0.00  0.00    +0.098 C 
ENDROOT
BRANCH   3  11
ATOM     11  C   UNL     1       2.611  -2.199   1.825  0.00  0.00    +0.021 A 
ATOM     12  C   UNL     1       1.689  -1.377   2.469  0.00  0.00    +0.011 A 
ATOM     13  C   UNL     1       2.082  -0.143   2.944  0.00  0.00    +0.001 A 
ATOM     14  C   UNL     1       3.389   0.280   2.782  0.00  0.00    +0.001 A 
ATOM     15  C   UNL     1       4.309  -0.530   2.142  0.00  0.00    +0.020 A 
ATOM     16  C   UNL     1       3.928  -1.771   1.668  0.00  0.00    +0.050 A 
ATOM     17 CL   UNL     1       5.086  -2.791   0.871  0.00  0.00    -0.083 Cl
ENDBRANCH   3  11
BRANCH   1  23
ATOM     18  C   UNL     1       0.475  -0.605  -0.990  0.00  0.00    +0.124 A 
ATOM     19  C   UNL     1       1.002   0.179  -2.006  0.00  0.00    +0.046 A 
ATOM     20  C   UNL     1       1.613  -0.417  -3.091  0.00  0.00    +0.004 A 
ATOM     21  C   UNL     1       1.700  -1.796  -3.166  0.00  0.00    +0.001 A 
ATOM     22  C   UNL     1       1.176  -2.579  -2.155  0.00  0.00    +0.008 A 
ATOM     23  C   UNL     1       0.569  -1.987  -1.064  0.00  0.00    +0.007 A 
BRANCH  18  25
ATOM     24  C   UNL     1      -0.186   1.408   0.089  0.00  0.00    +0.277 C 
ATOM     25  O   UNL     1      -0.126  -0.020   0.079  0.00  0.00    -0.495 OA
ENDBRANCH  18  25
ENDBRANCH   1  23
BRANCH   9  26
ATOM     26  N   UNL     1      -2.169  -5.640  -1.183  0.00  0.00    -0.328 N 
ATOM     27  H   UNL     1      -2.136  -6.596  -1.345  0.00  0.00    +0.145 HD
ATOM     28  H   UNL     1      -2.984  -5.146  -1.366  0.00  0.00    +0.145 HD
ENDBRANCH   9  26
BRANCH  10  29
ATOM     29  C   UNL     1      -2.390  -2.991  -0.774  0.00  0.00    +0.101 C 
ATOM     30  N   UNL     1      -3.370  -2.464  -1.002  0.00  0.00    -0.191 NA
ENDBRANCH  10  29
TORSDOF 5
