REMARK  Name = ZINC09501698
REMARK  8 active torsions:
REMARK  status: ('A' for Active; 'I' for Inactive)
REMARK    1  A    between atoms: C_1  and  C_2
REMARK    2  A    between atoms: C_2  and  C_4
REMARK    3  A    between atoms: C_2  and  S_15
REMARK    4  A    between atoms: N_6  and  C_7
REMARK    5  A    between atoms: N_11  and  C_12
REMARK    6  A    between atoms: C_12  and  C_13
REMARK    7  A    between atoms: C_12  and  C_14
REMARK    8  A    between atoms: S_15  and  C_16
REMARK                            x       y       z     vdW  Elec       q    Type
REMARK                         _______ _______ _______ _____ _____    ______ ____
ROOT
ATOM      1  C   UNL     1      -0.019   1.526   0.010  0.00  0.00    +0.029 C 
ATOM      2  C   UNL     1       0.002  -0.004   0.002  0.00  0.00    +0.136 C 
ENDROOT
BRANCH   2   3
ATOM      3  C   UNL     1       0.707  -0.490  -1.238  0.00  0.00    +0.231 C 
ATOM      4  O   UNL     1       0.066  -0.782  -2.225  0.00  0.00    -0.274 OA
ATOM      5  N   UNL     1       2.051  -0.601  -1.250  0.00  0.00    -0.270 N 
ATOM      6  H   UNL     1       2.563  -0.367  -0.460  0.00  0.00    +0.156 HD
BRANCH   5   7
ATOM      7  C   UNL     1       2.704  -1.050  -2.397  0.00  0.00    +0.123 A 
ATOM      8  C   UNL     1       2.113  -1.405  -3.571  0.00  0.00    +0.065 A 
ATOM      9  C   UNL     1       3.122  -1.793  -4.457  0.00  0.00    +0.136 A 
ATOM     10  N   UNL     1       4.273  -1.679  -3.845  0.00  0.00    -0.178 NA
ATOM     11  N   UNL     1       4.038  -1.208  -2.547  0.00  0.00    -0.248 N 
BRANCH  11  12
ATOM     12  C   UNL     1       5.058  -0.937  -1.531  0.00  0.00    +0.103 C 
ATOM     13  C   UNL     1       5.835  -2.221  -1.232  0.00  0.00    +0.032 C 
ATOM     14  C   UNL     1       6.021   0.133  -2.047  0.00  0.00    +0.032 C 
ENDBRANCH  11  12
ENDBRANCH   5   7
ENDBRANCH   2   3
BRANCH   2  15
ATOM     15  S   UNL     1      -1.700  -0.632   0.015  0.00  0.00    -0.092 S 
BRANCH  15  16
ATOM     16  C   UNL     1      -2.335  -0.110   1.573  0.00  0.00    +0.115 A 
ATOM     17  C   UNL     1      -3.632  -0.416   1.951  0.00  0.00    +0.069 A 
ATOM     18  C   UNL     1      -4.146  -0.001   3.197  0.00  0.00    +0.082 A 
ATOM     19  C   UNL     1      -5.476  -0.378   3.456  0.00  0.00    +0.036 A 
ATOM     20  C   UNL     1      -6.168  -1.086   2.543  0.00  0.00    +0.048 A 
ATOM     21  S   UNL     1      -4.990  -1.289   1.218  0.00  0.00    -0.092 S 
ATOM     22  N   UNL     1      -3.290   0.705   3.978  0.00  0.00    -0.235 NA
ATOM     23  C   UNL     1      -2.073   0.974   3.585  0.00  0.00    +0.223 A 
ATOM     24  N   UNL     1      -1.577   0.586   2.423  0.00  0.00    -0.228 NA
ENDBRANCH  15  16
ENDBRANCH   2  15
TORSDOF 5
