REMARK  Name = ZINC60208403
REMARK  3 active torsions:
REMARK  status: ('A' for Active; 'I' for Inactive)
REMARK    1  A    between atoms: N_12  and  C_16
REMARK    2  A    between atoms: C_16  and  C_17
REMARK    3  A    between atoms: N_19  and  C_20
REMARK                            x       y       z     vdW  Elec       q    Type
REMARK                         _______ _______ _______ _____ _____    ______ ____
ROOT
ATOM      1  C   UNL     1       7.047   0.044  -0.767  0.00  0.00    +0.214 C 
ENDROOT
BRANCH   1  13
ATOM      2  C   UNL     1      -0.021   1.365  -0.032  0.00  0.00    +0.000 A 
ATOM      3  C   UNL     1       1.167   2.072  -0.037  0.00  0.00    +0.000 A 
ATOM      4  C   UNL     1       2.371   1.398  -0.043  0.00  0.00    +0.006 A 
ATOM      5  C   UNL     1       2.397   0.013  -0.044  0.00  0.00    -0.012 A 
ATOM      6  C   UNL     1       1.207  -0.696  -0.035  0.00  0.00    -0.042 A 
ATOM      7  C   UNL     1       0.001  -0.016  -0.031  0.00  0.00    +0.004 A 
ATOM      8  C   UNL     1       1.496  -2.182  -0.027  0.00  0.00    +0.038 C 
ATOM      9  C   UNL     1       2.972  -2.312  -0.467  0.00  0.00    +0.045 C 
ATOM     10  C   UNL     1       3.552  -0.952  -0.057  0.00  0.00    +0.138 C 
ATOM     11  C   UNL     1       4.633  -0.511  -1.010  0.00  0.00    +0.251 C 
ATOM     12  O   UNL     1       4.529  -0.320  -2.203  0.00  0.00    -0.272 OA
ATOM     13  N   UNL     1       5.741  -0.374  -0.251  0.00  0.00    -0.215 N 
ATOM     14  C   UNL     1       5.498  -0.668   1.034  0.00  0.00    +0.310 C 
ATOM     15  O   UNL     1       6.340  -0.618   1.909  0.00  0.00    -0.252 OA
ATOM     16  N   UNL     1       4.215  -1.024   1.245  0.00  0.00    -0.281 N 
ATOM     17  H   UNL     1       3.813  -1.277   2.091  0.00  0.00    +0.152 HD
ENDBRANCH   1  13
BRANCH   1  18
ATOM     18  C   UNL     1       7.158   1.545  -0.698  0.00  0.00    +0.235 C 
ATOM     19  O   UNL     1       6.237   2.202  -0.260  0.00  0.00    -0.274 OA
ATOM     20  N   UNL     1       8.280   2.158  -1.123  0.00  0.00    -0.284 N 
ATOM     21  H   UNL     1       9.042   1.631  -1.411  0.00  0.00    +0.155 HD
BRANCH  20  22
ATOM     22  C   UNL     1       8.347   3.556  -1.149  0.00  0.00    +0.034 A 
ATOM     23  C   UNL     1       7.707   4.299  -0.157  0.00  0.00    +0.025 A 
ATOM     24  C   UNL     1       7.758   5.664  -0.161  0.00  0.00    +0.030 A 
ATOM     25  C   UNL     1       8.459   6.332  -1.167  0.00  0.00    +0.078 A 
ATOM     26  C   UNL     1       9.109   5.584  -2.174  0.00  0.00    +0.066 A 
ATOM     27  C   UNL     1       9.053   4.193  -2.155  0.00  0.00    +0.038 A 
ATOM     28  C   UNL     1       9.838   6.319  -3.219  0.00  0.00    +0.259 A 
ATOM     29  O   UNL     1      10.419   5.735  -4.114  0.00  0.00    -0.267 OA
ATOM     30  N   UNL     1       9.837   7.671  -3.146  0.00  0.00    -0.313 N 
ATOM     31  H   UNL     1      10.306   8.189  -3.818  0.00  0.00    +0.170 HD
ATOM     32  C   UNL     1       9.182   8.308  -2.139  0.00  0.00    +0.199 A 
ATOM     33  N   UNL     1       8.532   7.686  -1.204  0.00  0.00    -0.237 NA
ENDBRANCH  20  22
ENDBRANCH   1  18
TORSDOF 3
