REMARK  Name = ZINC24214858
REMARK  12 active torsions:
REMARK  status: ('A' for Active; 'I' for Inactive)
REMARK    1  A    between atoms: C_1  and  C_2
REMARK    2  A    between atoms: C_3  and  C_14
REMARK    3  A    between atoms: C_4  and  C_13
REMARK    4  A    between atoms: N_5  and  C_7
REMARK    5  A    between atoms: N_21  and  C_22
REMARK    6  A    between atoms: C_22  and  C_23
REMARK    7  A    between atoms: N_25  and  C_26
REMARK    8  A    between atoms: N_25  and  C_29
REMARK    9  A    between atoms: C_26  and  C_27
REMARK   10  A    between atoms: C_26  and  C_28
REMARK   11  A    between atoms: C_29  and  C_30
REMARK   12  A    between atoms: C_29  and  C_31
REMARK                            x       y       z     vdW  Elec       q    Type
REMARK                         _______ _______ _______ _____ _____    ______ ____
ROOT
ATOM      1  C   UNL     1       2.816   2.994   0.326  0.00  0.00    +0.054 C 
ATOM      2  C   UNL     1       3.202   3.917  -0.795  0.00  0.00    +0.204 C 
ATOM      3  O   UNL     1       2.618   3.821  -1.854  0.00  0.00    -0.277 OA
ATOM      4  N   UNL     1       4.163   4.839  -0.675  0.00  0.00    -0.318 N 
ATOM      5  C   UNL     1       4.900   5.059   0.566  0.00  0.00    +0.085 C 
ATOM      6  C   UNL     1       4.749   3.848   1.488  0.00  0.00    -0.058 C 
ATOM      7  N   UNL     1       3.319   3.517   1.603  0.00  0.00    +0.397 N 
ATOM      8  H   UNL     1       4.388   5.446  -1.564  0.00  0.00    +0.149 HD
ATOM      9  H   UNL     1       2.765   4.436   1.844  0.00  0.00    -0.079 HD
ENDROOT
BRANCH   1  12
ATOM     10  C   UNL     1       0.831   5.185   1.466  0.00  0.00    +0.068 C 
ATOM     11  C   UNL     1       0.438   3.849   0.891  0.00  0.00    +0.063 A 
ATOM     12  C   UNL     1       1.315   2.882   0.388  0.00  0.00    -0.009 A 
ATOM     13  C   UNL     1       0.577   1.829  -0.034  0.00  0.00    +0.044 A 
ATOM     14  N   UNL     1      -0.724   2.120   0.196  0.00  0.00    -0.237 N 
ATOM     15  N   UNL     1      -0.784   3.393   0.776  0.00  0.00    -0.171 NA
ATOM     16  C   UNL     1       1.109   0.559  -0.648  0.00  0.00    +0.066 C 
BRANCH  14  17
ATOM     17  C   UNL     1      -1.818   1.294  -0.096  0.00  0.00    +0.066 A 
ATOM     18  C   UNL     1      -1.799   0.487  -1.227  0.00  0.00    +0.028 A 
ATOM     19  C   UNL     1      -2.876  -0.330  -1.509  0.00  0.00    +0.002 A 
ATOM     20  C   UNL     1      -3.977  -0.337  -0.673  0.00  0.00    +0.000 A 
ATOM     21  C   UNL     1      -4.002   0.469   0.450  0.00  0.00    +0.002 A 
ATOM     22  C   UNL     1      -2.925   1.284   0.741  0.00  0.00    +0.028 A 
ENDBRANCH  14  17
ENDBRANCH   1  12
BRANCH   7  23
ATOM     23  C   UNL     1       3.086   2.560   2.692  0.00  0.00    +0.020 C 
BRANCH  23  24
ATOM     24  C   UNL     1       3.386   3.220   4.014  0.00  0.00    +0.199 C 
ATOM     25  O   UNL     1       3.652   4.403   4.054  0.00  0.00    -0.278 OA
ATOM     26  N   UNL     1       3.357   2.497   5.150  0.00  0.00    -0.298 N 
BRANCH  26  27
ATOM     27  C   UNL     1       3.163   1.046   5.090  0.00  0.00    +0.070 C 
ATOM     28  C   UNL     1       1.967   0.728   4.191  0.00  0.00    +0.028 C 
ATOM     29  C   UNL     1       4.420   0.386   4.519  0.00  0.00    +0.028 C 
ENDBRANCH  26  27
BRANCH  26  30
ATOM     30  C   UNL     1       3.520   3.161   6.446  0.00  0.00    +0.070 C 
ATOM     31  C   UNL     1       2.277   2.919   7.303  0.00  0.00    +0.028 C 
ATOM     32  C   UNL     1       4.750   2.594   7.159  0.00  0.00    +0.028 C 
ENDBRANCH  26  30
ENDBRANCH  23  24
ENDBRANCH   7  23
TORSDOF 6
