REMARK  Name = ZINC15608374
REMARK  5 active torsions:
REMARK  status: ('A' for Active; 'I' for Inactive)
REMARK    1  A    between atoms: C_1  and  C_2
REMARK    2  A    between atoms: C_2  and  C_4
REMARK    3  A    between atoms: C_2  and  N_11
REMARK    4  A    between atoms: C_12  and  C_14
REMARK    5  A    between atoms: C_16  and  N_21
REMARK                            x       y       z     vdW  Elec       q    Type
REMARK                         _______ _______ _______ _____ _____    ______ ____
ROOT
ATOM      1  N   UNL     1      -0.011   0.966  -0.003  0.00  0.00    -0.305 N 
ATOM      2  C   UNL     1      -1.187   1.624   0.012  0.00  0.00    +0.250 C 
ATOM      3  O   UNL     1      -1.204   2.840   0.019  0.00  0.00    -0.270 OA
ATOM      4  H   UNL     1       0.004  -0.134  -0.005  0.00  0.00    +0.150 HD
ENDROOT
BRANCH   2   5
ATOM      5  C   UNL     1      -2.455   0.869   0.019  0.00  0.00    +0.103 A 
ATOM      6  C   UNL     1      -2.450  -0.531   0.011  0.00  0.00    +0.052 A 
ATOM      7  C   UNL     1      -3.666  -1.192   0.013  0.00  0.00    +0.143 A 
ATOM      8  C   UNL     1      -4.839  -0.458   0.022  0.00  0.00    +0.118 A 
ATOM      9  N   UNL     1      -4.820   0.860   0.029  0.00  0.00    -0.326 N 
ATOM     10  C   UNL     1      -3.686   1.541   0.035  0.00  0.00    +0.261 A 
ATOM     11  O   UNL     1      -3.714   2.895   0.048  0.00  0.00    -0.267 OA
ATOM     12  H   UNL     1      -5.782   1.394   0.030  0.00  0.00    +0.168 HD
BRANCH   7  13
ATOM     13  N   UNL     1      -3.711  -2.671   0.005  0.00  0.00    +0.058 N 
ATOM     14  O   UNL     1      -2.675  -3.312  -0.004  0.00  0.00    -0.126 OA
ATOM     15  O   UNL     1      -4.784  -3.248   0.006  0.00  0.00    -0.126 OA
ENDBRANCH   7  13
ENDBRANCH   2   5
BRANCH   1  17
ATOM     16  C   UNL     1       1.641   2.076   1.417  0.00  0.00    +0.033 C 
ATOM     17  C   UNL     1       1.247   1.716  -0.016  0.00  0.00    +0.100 C 
BRANCH  17  18
ATOM     18  C   UNL     1       2.329   0.870  -0.637  0.00  0.00    -0.027 A 
ATOM     19  C   UNL     1       2.402  -0.480  -0.348  0.00  0.00    +0.008 A 
ATOM     20  C   UNL     1       3.390  -1.258  -0.921  0.00  0.00    +0.038 A 
ATOM     21  C   UNL     1       4.315  -0.682  -1.776  0.00  0.00    +0.123 A 
ATOM     22  C   UNL     1       4.245   0.671  -2.060  0.00  0.00    +0.038 A 
ATOM     23  C   UNL     1       3.252   1.446  -1.491  0.00  0.00    +0.008 A 
ATOM     24  F   UNL     1       5.285  -1.440  -2.331  0.00  0.00    -0.205 F 
ENDBRANCH  17  18
ENDBRANCH   1  17
TORSDOF 4
