REMARK  Name = ZINC60366366
REMARK  10 active torsions:
REMARK  status: ('A' for Active; 'I' for Inactive)
REMARK    1  A    between atoms: C_1  and  C_2
REMARK    2  A    between atoms: C_7  and  N_8
REMARK    3  A    between atoms: N_8  and  S_9
REMARK    4  A    between atoms: S_9  and  C_12
REMARK    5  A    between atoms: C_15  and  C_32
REMARK    6  A    between atoms: C_16  and  C_18
REMARK    7  A    between atoms: N_20  and  C_21
REMARK    8  A    between atoms: C_21  and  C_22
REMARK    9  A    between atoms: C_22  and  C_23
REMARK   10  A    between atoms: C_27  and  C_29
REMARK                            x       y       z     vdW  Elec       q    Type
REMARK                         _______ _______ _______ _____ _____    ______ ____
ROOT
ATOM      1  C   UNL     1       2.494  -0.594   3.403  0.00  0.00    +0.109 A 
ATOM      2  C   UNL     1       3.102  -1.716   2.867  0.00  0.00    +0.029 A 
ATOM      3  C   UNL     1       4.471  -1.741   2.670  0.00  0.00    +0.006 A 
ATOM      4  C   UNL     1       5.239  -0.645   3.007  0.00  0.00    -0.038 A 
ATOM      5  C   UNL     1       4.632   0.489   3.547  0.00  0.00    +0.041 A 
ATOM      6  C   UNL     1       3.249   0.509   3.739  0.00  0.00    +0.042 A 
ATOM      7  C   UNL     1       6.730  -0.674   2.792  0.00  0.00    +0.044 C 
ENDROOT
BRANCH   5   8
ATOM      8  C   UNL     1       5.449   1.666   3.911  0.00  0.00    +0.244 C 
ATOM      9  O   UNL     1       6.658   1.629   3.787  0.00  0.00    -0.270 OA
ATOM     10  N   UNL     1       4.854   2.781   4.380  0.00  0.00    -0.311 N 
ATOM     11  H   UNL     1       3.890   2.811   4.478  0.00  0.00    +0.149 HD
BRANCH  10  12
ATOM     12  C   UNL     1       5.664   3.947   4.740  0.00  0.00    +0.109 C 
BRANCH  12  13
ATOM     13  C   UNL     1       4.750   5.068   5.240  0.00  0.00    +0.054 C 
BRANCH  13  14
ATOM     14  C   UNL     1       5.583   6.268   5.611  0.00  0.00    -0.045 A 
ATOM     15  C   UNL     1       6.071   6.398   6.899  0.00  0.00    +0.004 A 
ATOM     16  C   UNL     1       6.837   7.496   7.247  0.00  0.00    +0.001 A 
ATOM     17  C   UNL     1       7.119   8.470   6.311  0.00  0.00    +0.013 A 
ATOM     18  C   UNL     1       6.630   8.345   5.010  0.00  0.00    +0.037 A 
ATOM     19  C   UNL     1       5.862   7.231   4.663  0.00  0.00    +0.016 A 
BRANCH  18  20
ATOM     20  C   UNL     1       6.928   9.384   4.002  0.00  0.00    +0.242 C 
ATOM     21  O   UNL     1       6.500   9.272   2.869  0.00  0.00    -0.270 OA
ATOM     22  N   UNL     1       7.673  10.456   4.338  0.00  0.00    -0.325 N 
ATOM     23  H   UNL     1       8.014  10.545   5.242  0.00  0.00    +0.145 HD
ATOM     24  H   UNL     1       7.868  11.137   3.677  0.00  0.00    +0.145 HD
ENDBRANCH  18  20
ENDBRANCH  13  14
ENDBRANCH  12  13
ENDBRANCH  10  12
ENDBRANCH   5   8
BRANCH   1  25
ATOM     25  S   UNL     1       0.749  -0.573   3.649  0.00  0.00    +0.072 S 
ATOM     26  O   UNL     1       0.494   0.388   4.664  0.00  0.00    -0.150 OA
ATOM     27  O   UNL     1       0.339  -1.929   3.764  0.00  0.00    -0.150 OA
BRANCH  25  28
ATOM     28  N   UNL     1       0.065   0.013   2.260  0.00  0.00    -0.216 N 
ATOM     29  H   UNL     1      -0.468   0.823   2.285  0.00  0.00    +0.174 HD
BRANCH  28  36
ATOM     30  C   UNL     1       0.317   1.563  -0.113  0.00  0.00    +0.046 C 
ATOM     31  C   UNL     1       0.383   0.058  -0.132  0.00  0.00    -0.028 A 
ATOM     32  C   UNL     1       0.577  -0.610  -1.326  0.00  0.00    +0.005 A 
ATOM     33  C   UNL     1       0.638  -1.992  -1.345  0.00  0.00    +0.000 A 
ATOM     34  C   UNL     1       0.505  -2.709  -0.170  0.00  0.00    +0.002 A 
ATOM     35  C   UNL     1       0.312  -2.048   1.027  0.00  0.00    +0.025 A 
ATOM     36  C   UNL     1       0.256  -0.660   1.050  0.00  0.00    +0.051 A 
ENDBRANCH  28  36
ENDBRANCH  25  28
ENDBRANCH   1  25
TORSDOF 8
