REMARK  Name = ZINC04949726
REMARK  3 active torsions:
REMARK  status: ('A' for Active; 'I' for Inactive)
REMARK    1  A    between atoms: C_3  and  N_9
REMARK    2  A    between atoms: C_10  and  C_12
REMARK    3  A    between atoms: C_17  and  O_23
REMARK                            x       y       z     vdW  Elec       q    Type
REMARK                         _______ _______ _______ _____ _____    ______ ____
ROOT
ATOM      1  C   UNL     1      -2.444   1.113   0.140  0.00  0.00    +0.097 A 
ATOM      2  C   UNL     1      -2.571  -0.260   0.241  0.00  0.00    +0.030 A 
ATOM      3  C   UNL     1      -3.868  -0.820   0.363  0.00  0.00    +0.018 A 
ATOM      4  C   UNL     1      -4.025  -2.211   0.472  0.00  0.00    +0.015 A 
ATOM      5  C   UNL     1      -5.273  -2.749   0.584  0.00  0.00    +0.046 A 
ATOM      6  C   UNL     1      -6.397  -1.925   0.590  0.00  0.00    +0.120 A 
ATOM      7  C   UNL     1      -6.262  -0.550   0.484  0.00  0.00    +0.092 A 
ATOM      8  C   UNL     1      -5.000   0.015   0.369  0.00  0.00    +0.141 A 
ATOM      9  O   UNL     1      -4.873   1.357   0.265  0.00  0.00    -0.439 OA
ATOM     10  C   UNL     1      -3.663   1.940   0.152  0.00  0.00    +0.205 A 
ATOM     11  N   UNL     1      -3.571   3.239   0.052  0.00  0.00    -0.369 N 
ATOM     12  H   UNL     1      -4.480   3.857   0.060  0.00  0.00    +0.159 HD
ATOM     13  H   UNL     1      -2.583   3.715  -0.041  0.00  0.00    +0.159 HD
ENDROOT
BRANCH   1  15
ATOM     14  N   UNL     1      -0.011   0.966   0.007  0.00  0.00    -0.280 N 
ATOM     15  C   UNL     1      -1.118   1.735   0.017  0.00  0.00    +0.253 C 
ATOM     16  O   UNL     1      -1.019   2.944  -0.077  0.00  0.00    -0.270 OA
ATOM     17  H   UNL     1      -0.103  -0.130   0.022  0.00  0.00    +0.155 HD
BRANCH  14  20
ATOM     18  C   UNL     1       2.702   3.330  -0.749  0.00  0.00    +0.003 A 
ATOM     19  C   UNL     1       1.451   2.744  -0.722  0.00  0.00    +0.025 A 
ATOM     20  C   UNL     1       1.254   1.562  -0.021  0.00  0.00    +0.054 A 
ATOM     21  C   UNL     1       2.316   0.975   0.657  0.00  0.00    +0.080 A 
ATOM     22  C   UNL     1       3.567   1.563   0.622  0.00  0.00    +0.061 A 
ATOM     23  C   UNL     1       3.758   2.742  -0.079  0.00  0.00    +0.021 A 
ATOM     24 CL   UNL     1       4.896   0.828   1.462  0.00  0.00    -0.082 Cl
ATOM     25 CL   UNL     1       2.074  -0.500   1.542  0.00  0.00    -0.080 Cl
ENDBRANCH  14  20
ENDBRANCH   1  15
BRANCH   6  26
ATOM     26  O   UNL     1      -7.633  -2.474   0.702  0.00  0.00    -0.507 OA
ATOM     27  H   UNL     1      -8.523  -1.827   0.708  0.00  0.00    +0.292 HD
ENDBRANCH   6  26
TORSDOF 3
