REMARK  Name = ZINC05680317
REMARK  8 active torsions:
REMARK  status: ('A' for Active; 'I' for Inactive)
REMARK    1  A    between atoms: C_1  and  C_2
REMARK    2  A    between atoms: C_5  and  O_27
REMARK    3  A    between atoms: C_6  and  C_8
REMARK    4  A    between atoms: C_8  and  O_10
REMARK    5  A    between atoms: O_10  and  C_11
REMARK    6  A    between atoms: C_11  and  C_12
REMARK    7  A    between atoms: N_17  and  C_18
REMARK    8  A    between atoms: C_24  and  C_26
REMARK                            x       y       z     vdW  Elec       q    Type
REMARK                         _______ _______ _______ _____ _____    ______ ____
ROOT
ATOM      1  C   UNL     1      -5.480   0.619  -2.236  0.00  0.00    +0.258 C 
ATOM      2  O   UNL     1      -6.102   0.317  -1.240  0.00  0.00    -0.272 OA
ATOM      3  N   UNL     1      -4.137   0.509  -2.251  0.00  0.00    -0.237 N 
ATOM      4  C   UNL     1      -3.485   0.062  -1.159  0.00  0.00    +0.306 C 
ATOM      5  O   UNL     1      -4.108  -0.241  -0.160  0.00  0.00    -0.252 OA
ATOM      6  N   UNL     1      -2.142  -0.048  -1.174  0.00  0.00    -0.296 N 
ATOM      7  H   UNL     1      -3.639   0.750  -3.047  0.00  0.00    +0.159 HD
ATOM      8  H   UNL     1      -1.644   0.194  -1.971  0.00  0.00    +0.151 HD
ENDROOT
BRANCH   6   9
ATOM      9  C   UNL     1      -1.433  -0.534   0.013  0.00  0.00    +0.077 C 
ATOM     10  C   UNL     1      -1.413  -2.063   0.004  0.00  0.00    +0.022 C 
ATOM     11  C   UNL     1      -0.673  -2.570   1.244  0.00  0.00    +0.002 C 
ATOM     12  C   UNL     1       0.763  -2.041   1.233  0.00  0.00    +0.000 C 
ATOM     13  C   UNL     1       0.742  -0.511   1.242  0.00  0.00    +0.005 C 
ATOM     14  C   UNL     1       0.002  -0.004   0.002  0.00  0.00    +0.006 C 
ATOM     15  C   UNL     1      -0.019   1.526   0.010  0.00  0.00    +0.009 C 
ENDBRANCH   6   9
BRANCH   1  16
ATOM     16  C   UNL     1      -6.209   1.118  -3.456  0.00  0.00    +0.328 C 
BRANCH  16  17
ATOM     17  O   UNL     1      -7.636   1.146  -3.190  0.00  0.00    -0.452 OA
BRANCH  17  18
ATOM     18  C   UNL     1      -8.436   1.572  -4.188  0.00  0.00    +0.343 C 
ATOM     19  O   UNL     1      -7.954   1.910  -5.251  0.00  0.00    -0.245 OA
BRANCH  18  25
ATOM     20  C   UNL     1     -12.420   0.874  -1.272  0.00  0.00    +0.044 C 
ATOM     21  C   UNL     1     -11.819   1.292  -2.590  0.00  0.00    -0.049 A 
ATOM     22  C   UNL     1     -12.642   1.730  -3.615  0.00  0.00    +0.007 A 
ATOM     23  C   UNL     1     -12.104   2.117  -4.826  0.00  0.00    +0.046 A 
ATOM     24  C   UNL     1     -10.731   2.074  -5.022  0.00  0.00    +0.131 A 
ATOM     25  C   UNL     1      -9.896   1.627  -3.989  0.00  0.00    +0.101 A 
ATOM     26  C   UNL     1     -10.454   1.238  -2.768  0.00  0.00    +0.022 A 
BRANCH  24  27
ATOM     27  O   UNL     1     -10.201   2.459  -6.210  0.00  0.00    -0.506 OA
ATOM     28  H   UNL     1     -10.118   1.743  -6.854  0.00  0.00    +0.292 HD
ENDBRANCH  24  27
ENDBRANCH  18  25
ENDBRANCH  17  18
ENDBRANCH  16  17
ENDBRANCH   1  16
TORSDOF 6
