REMARK  Name = ZINC44963354
REMARK  8 active torsions:
REMARK  status: ('A' for Active; 'I' for Inactive)
REMARK    1  A    between atoms: C_1  and  C_2
REMARK    2  A    between atoms: C_18  and  C_33
REMARK    3  A    between atoms: C_20  and  O_31
REMARK    4  A    between atoms: C_23  and  C_30
REMARK    5  A    between atoms: C_24  and  C_25
REMARK    6  A    between atoms: C_24  and  O_29
REMARK    7  A    between atoms: C_25  and  C_27
REMARK    8  A    between atoms: C_27  and  O_28
REMARK                            x       y       z     vdW  Elec       q    Type
REMARK                         _______ _______ _______ _____ _____    ______ ____
ROOT
ATOM      1  C   UNL     1       0.619   1.493   0.473  0.00  0.00    +0.011 C 
ATOM      2  C   UNL     1       0.630  -0.029   0.319  0.00  0.00    +0.026 C 
ATOM      3  C   UNL     1      -0.824  -0.564   0.202  0.00  0.00    +0.011 C 
ATOM      4  C   UNL     1      -1.159  -0.960   1.644  0.00  0.00    +0.005 C 
ATOM      5  C   UNL     1      -2.275  -1.973   1.813  0.00  0.00    +0.037 C 
ATOM      6  C   UNL     1      -3.601  -1.395   1.306  0.00  0.00    +0.048 C 
ATOM      7  C   UNL     1      -3.716   0.038   1.827  0.00  0.00    +0.194 C 
ATOM      8  C   UNL     1      -3.468   0.070   3.308  0.00  0.00    -0.020 C 
ATOM      9  C   UNL     1      -3.801   1.191   3.988  0.00  0.00    +0.054 C 
ATOM     10  C   UNL     1      -3.475   1.161   5.440  0.00  0.00    +0.179 C 
ATOM     11  O   UNL     1      -4.228   1.599   6.289  0.00  0.00    -0.288 OA
ATOM     12  C   UNL     1      -2.158   0.552   5.773  0.00  0.00    +0.047 C 
ATOM     13  C   UNL     1      -1.848  -0.560   5.073  0.00  0.00    -0.009 C 
ATOM     14  C   UNL     1      -2.868  -1.050   4.084  0.00  0.00    +0.047 C 
ATOM     15  C   UNL     1      -2.399  -2.271   3.312  0.00  0.00    +0.153 C 
ATOM     16  C   UNL     1      -1.085  -2.815   3.874  0.00  0.00    +0.154 C 
ATOM     17  C   UNL     1       0.080  -1.851   3.592  0.00  0.00    +0.044 C 
ATOM     18  C   UNL     1       0.163  -1.637   2.098  0.00  0.00    +0.010 C 
ATOM     19  C   UNL     1       1.239  -0.688   1.582  0.00  0.00    +0.134 C 
ATOM     20  C   UNL     1       0.307  -2.998   1.413  0.00  0.00    +0.015 C 
ATOM     21  F   UNL     1      -3.362  -3.273   3.472  0.00  0.00    -0.238 F 
ATOM     22  C   UNL     1      -4.014  -1.573   4.952  0.00  0.00    +0.023 C 
ATOM     23  F   UNL     1      -2.771   0.843   1.183  0.00  0.00    -0.241 F 
ENDROOT
BRANCH  19  24
ATOM     24  C   UNL     1       1.552   0.361   2.618  0.00  0.00    +0.190 C 
ATOM     25  O   UNL     1       0.695   0.726   3.386  0.00  0.00    -0.292 OA
BRANCH  24  26
ATOM     26  C   UNL     1       2.936   0.954   2.696  0.00  0.00    +0.233 C 
BRANCH  26  27
ATOM     27  O   UNL     1       2.950   2.001   3.669  0.00  0.00    -0.387 OA
ATOM     28  H   UNL     1       3.811   2.429   3.772  0.00  0.00    +0.210 HD
ENDBRANCH  26  27
ENDBRANCH  24  26
ENDBRANCH  19  24
BRANCH  19  29
ATOM     29  O   UNL     1       2.421  -1.416   1.240  0.00  0.00    -0.380 OA
ATOM     30  H   UNL     1       3.126  -0.869   0.867  0.00  0.00    +0.211 HD
ENDBRANCH  19  29
BRANCH  16  31
ATOM     31  O   UNL     1      -0.803  -4.078   3.268  0.00  0.00    -0.389 OA
ATOM     32  H   UNL     1       0.017  -4.487   3.575  0.00  0.00    +0.210 HD
ENDBRANCH  16  31
TORSDOF 5
