REMARK  Name = ZINC22684472
REMARK  12 active torsions:
REMARK  status: ('A' for Active; 'I' for Inactive)
REMARK    1  A    between atoms: C_1  and  C_2
REMARK    2  A    between atoms: C_2  and  C_3
REMARK    3  A    between atoms: C_6  and  C_9
REMARK    4  A    between atoms: C_9  and  C_11
REMARK    5  A    between atoms: C_9  and  N_33
REMARK    6  A    between atoms: C_11  and  N_12
REMARK    7  A    between atoms: C_13  and  C_15
REMARK    8  A    between atoms: C_18  and  S_21
REMARK    9  A    between atoms: S_21  and  N_24
REMARK   10  A    between atoms: N_24  and  C_25
REMARK   11  A    between atoms: N_33  and  C_34
REMARK   12  A    between atoms: N_33  and  C_35
REMARK                            x       y       z     vdW  Elec       q    Type
REMARK                         _______ _______ _______ _____ _____    ______ ____
ROOT
ATOM      1  N   UNL     1       3.116   4.096   0.603  0.00  0.00    -0.313 N 
ATOM      2  C   UNL     1       2.852   2.785   0.768  0.00  0.00    +0.244 C 
ATOM      3  O   UNL     1       3.748   1.968   0.685  0.00  0.00    -0.270 OA
ATOM      4  H   UNL     1       2.305   4.835   0.679  0.00  0.00    +0.149 HD
ENDROOT
BRANCH   2   5
ATOM      5  C   UNL     1       1.470   2.339   1.050  0.00  0.00    +0.037 A 
ATOM      6  C   UNL     1       0.438   3.274   1.147  0.00  0.00    +0.015 A 
ATOM      7  C   UNL     1      -0.848   2.852   1.410  0.00  0.00    +0.029 A 
ATOM      8  C   UNL     1      -1.117   1.505   1.579  0.00  0.00    +0.105 A 
ATOM      9  C   UNL     1      -0.099   0.574   1.484  0.00  0.00    +0.029 A 
ATOM     10  C   UNL     1       1.192   0.982   1.221  0.00  0.00    +0.015 A 
BRANCH   8  11
ATOM     11  S   UNL     1      -2.763   0.975   1.914  0.00  0.00    +0.059 S 
ATOM     12  O   UNL     1      -2.659  -0.282   2.571  0.00  0.00    -0.153 OA
ATOM     13  O   UNL     1      -3.437   2.083   2.494  0.00  0.00    -0.153 OA
BRANCH  11  14
ATOM     14  N   UNL     1      -3.493   0.688   0.456  0.00  0.00    -0.185 NA
ATOM     15  H   UNL     1      -4.229   1.409   0.072  0.00  0.00    +0.148 HD
BRANCH  14  16
ATOM     16  C   UNL     1      -3.005  -0.391  -0.408  0.00  0.00    +0.099 C 
ATOM     17  C   UNL     1      -2.037   0.181  -1.456  0.00  0.00    +0.044 C 
ATOM     18  C   UNL     1      -1.769  -0.873  -2.558  0.00  0.00    +0.167 C 
ATOM     19  S   UNL     1      -3.315  -1.868  -2.549  0.00  0.00    -0.029 S 
ATOM     20  O   UNL     1      -3.004  -3.203  -2.174  0.00  0.00    -0.174 OA
ATOM     21  O   UNL     1      -4.027  -1.629  -3.755  0.00  0.00    -0.174 OA
ATOM     22  C   UNL     1      -4.200  -1.045  -1.158  0.00  0.00    +0.186 C 
ENDBRANCH  14  16
ENDBRANCH  11  14
ENDBRANCH   8  11
ENDBRANCH   2   5
BRANCH   1  23
ATOM     23  C   UNL     1       4.485   4.537   0.324  0.00  0.00    +0.094 C 
BRANCH  23  24
ATOM     24  C   UNL     1       4.490   6.043   0.053  0.00  0.00    -0.021 C 
BRANCH  24  28
ATOM     25  C   UNL     1       2.197   6.868  -3.455  0.00  0.00    -0.048 A 
ATOM     26  C   UNL     1       1.640   7.059  -2.204  0.00  0.00    +0.004 A 
ATOM     27  C   UNL     1       2.382   6.792  -1.069  0.00  0.00    +0.002 A 
ATOM     28  C   UNL     1       3.681   6.334  -1.184  0.00  0.00    -0.059 A 
ATOM     29  C   UNL     1       4.240   6.147  -2.435  0.00  0.00    +0.002 A 
ATOM     30  C   UNL     1       3.496   6.409  -3.570  0.00  0.00    +0.004 A 
BRANCH  25  32
ATOM     31  C   UNL     1       1.595   8.617  -5.106  0.00  0.00    +0.009 C 
ATOM     32  C   UNL     1       1.388   7.159  -4.692  0.00  0.00    +0.032 C 
ENDBRANCH  25  32
ENDBRANCH  24  28
BRANCH  24  33
ATOM     33  N   UNL     1       5.872   6.500  -0.146  0.00  0.00    +0.382 N 
ATOM     34  C   UNL     1       5.921   7.953  -0.358  0.00  0.00    -0.096 C 
ATOM     35  C   UNL     1       6.726   6.103   0.981  0.00  0.00    -0.096 C 
ATOM     36  H   UNL     1       6.261   6.013  -1.053  0.00  0.00    -0.082 HD
ENDBRANCH  24  33
ENDBRANCH  23  24
ENDBRANCH   1  23
TORSDOF 9
