REMARK  Name = ZINC40923342
REMARK  6 active torsions:
REMARK  status: ('A' for Active; 'I' for Inactive)
REMARK    1  A    between atoms: C_1  and  C_2
REMARK    2  A    between atoms: C_3  and  C_27
REMARK    3  A    between atoms: C_4  and  C_12
REMARK    4  A    between atoms: C_17  and  O_18
REMARK    5  A    between atoms: O_18  and  C_19
REMARK    6  A    between atoms: C_19  and  C_20
REMARK                            x       y       z     vdW  Elec       q    Type
REMARK                         _______ _______ _______ _____ _____    ______ ____
ROOT
ATOM      1  C   UNL     1      -0.018   1.503   0.010  0.00  0.00    +0.061 C 
ATOM      2  C   UNL     1       0.002  -0.004   0.002  0.00  0.00    +0.018 C 
ATOM      3  C   UNL     1      -1.163  -0.667   0.004  0.00  0.00    +0.060 C 
ATOM      4  C   UNL     1      -1.255  -2.170  -0.015  0.00  0.00    +0.182 C 
ATOM      5  N   UNL     1       0.061  -2.739   0.250  0.00  0.00    -0.201 N 
ATOM      6  C   UNL     1       1.211  -2.015   0.245  0.00  0.00    +0.240 A 
ATOM      7  N   UNL     1       2.186  -2.836   0.511  0.00  0.00    -0.092 NA
ATOM      8  N   UNL     1       1.730  -4.029   0.689  0.00  0.00    -0.021 NA
ATOM      9  N   UNL     1       0.444  -4.045   0.547  0.00  0.00    -0.042 NA
ATOM     10  N   UNL     1       1.214  -0.651  -0.013  0.00  0.00    -0.286 N 
ATOM     11  H   UNL     1       2.039  -0.172  -0.193  0.00  0.00    +0.155 HD
ENDROOT
BRANCH   4  12
ATOM     12  C   UNL     1      -1.737  -2.627  -1.368  0.00  0.00    +0.023 A 
ATOM     13  C   UNL     1      -1.004  -2.328  -2.500  0.00  0.00    +0.009 A 
ATOM     14  C   UNL     1      -1.446  -2.747  -3.741  0.00  0.00    +0.001 A 
ATOM     15  C   UNL     1      -2.622  -3.466  -3.853  0.00  0.00    +0.004 A 
ATOM     16  C   UNL     1      -3.358  -3.768  -2.724  0.00  0.00    +0.046 A 
ATOM     17  C   UNL     1      -2.914  -3.353  -1.476  0.00  0.00    +0.127 A 
BRANCH  17  18
ATOM     18  O   UNL     1      -3.633  -3.654  -0.363  0.00  0.00    -0.487 OA
BRANCH  18  19
ATOM     19  C   UNL     1      -4.835  -4.404  -0.551  0.00  0.00    +0.264 C 
BRANCH  19  20
ATOM     20  C   UNL     1      -5.493  -4.641   0.784  0.00  0.00    -0.010 A 
ATOM     21  C   UNL     1      -5.173  -5.765   1.523  0.00  0.00    +0.008 A 
ATOM     22  C   UNL     1      -5.777  -5.982   2.747  0.00  0.00    +0.020 A 
ATOM     23  C   UNL     1      -6.700  -5.074   3.234  0.00  0.00    +0.041 A 
ATOM     24  C   UNL     1      -7.020  -3.949   2.494  0.00  0.00    +0.020 A 
ATOM     25  C   UNL     1      -6.412  -3.730   1.272  0.00  0.00    +0.008 A 
ATOM     26 CL   UNL     1      -7.459  -5.346   4.771  0.00  0.00    -0.084 Cl
ENDBRANCH  19  20
ENDBRANCH  18  19
ENDBRANCH  17  18
ENDBRANCH   4  12
BRANCH   3  27
ATOM     27  C   UNL     1      -2.364   0.081   0.026  0.00  0.00    +0.241 C 
ATOM     28  O   UNL     1      -2.323   1.298   0.042  0.00  0.00    -0.271 OA
ATOM     29  N   UNL     1      -3.554  -0.553   0.029  0.00  0.00    -0.325 N 
ATOM     30  H   UNL     1      -3.586  -1.522   0.016  0.00  0.00    +0.145 HD
ATOM     31  H   UNL     1      -4.377  -0.040   0.043  0.00  0.00    +0.145 HD
ENDBRANCH   3  27
TORSDOF 5
