REMARK  Name = ZINC04318568
REMARK  5 active torsions:
REMARK  status: ('A' for Active; 'I' for Inactive)
REMARK    1  A    between atoms: C_1  and  N_2
REMARK    2  A    between atoms: C_3  and  C_5
REMARK    3  A    between atoms: C_9  and  N_10
REMARK    4  A    between atoms: C_11  and  C_13
REMARK    5  A    between atoms: C_13  and  C_14
REMARK                            x       y       z     vdW  Elec       q    Type
REMARK                         _______ _______ _______ _____ _____    ______ ____
ROOT
ATOM      1  C   UNL     1       2.228   1.029  -0.013  0.00  0.00    +0.069 A 
ATOM      2  C   UNL     1       1.279   2.129   0.001  0.00  0.00    -0.023 A 
ATOM      3  C   UNL     1      -0.022   1.766   0.012  0.00  0.00    -0.004 A 
ATOM      4  S   UNL     1       0.002  -0.004   0.002  0.00  0.00    -0.077 S 
ATOM      5  C   UNL     1       1.716  -0.261  -0.015  0.00  0.00    +0.084 A 
ATOM      6  C   UNL     1      -1.213   2.674   0.033  0.00  0.00    +0.043 C 
ATOM      7  C   UNL     1      -0.740   4.084   0.410  0.00  0.00    +0.005 C 
ATOM      8  C   UNL     1       0.485   4.440  -0.436  0.00  0.00    +0.005 C 
ATOM      9  C   UNL     1       1.684   3.598   0.004  0.00  0.00    +0.037 C 
ENDROOT
BRANCH   1  12
ATOM     10  C   UNL     1       5.794   1.622   1.123  0.00  0.00    +0.128 C 
ATOM     11  N   UNL     1       4.350   1.379   1.135  0.00  0.00    -0.314 N 
ATOM     12  C   UNL     1       3.674   1.272  -0.026  0.00  0.00    +0.246 C 
ATOM     13  O   UNL     1       4.264   1.379  -1.085  0.00  0.00    -0.270 OA
ATOM     14  H   UNL     1       3.880   1.294   1.979  0.00  0.00    +0.149 HD
ENDBRANCH   1  12
BRANCH   5  15
ATOM     15  N   UNL     1       2.407  -1.462  -0.028  0.00  0.00    -0.279 N 
ATOM     16  C   UNL     1       1.731  -2.628  -0.029  0.00  0.00    +0.219 C 
ATOM     17  O   UNL     1       0.518  -2.627  -0.018  0.00  0.00    -0.275 OA
ATOM     18  H   UNL     1       3.377  -1.464  -0.037  0.00  0.00    +0.155 HD
BRANCH  16  19
ATOM     19  C   UNL     1       2.482  -3.935  -0.043  0.00  0.00    +0.120 C 
BRANCH  19  20
ATOM     20  C   UNL     1       1.486  -5.096  -0.040  0.00  0.00    +0.150 C 
ATOM     21  C   UNL     1       2.196  -6.435  -0.177  0.00  0.00    +0.234 C 
ATOM     22  O   UNL     1       2.850  -6.724  -1.157  0.00  0.00    -0.274 OA
ATOM     23  N   UNL     1       2.052  -7.261   0.845  0.00  0.00    -0.246 N 
ATOM     24  C   UNL     1       1.332  -6.961   1.942  0.00  0.00    +0.279 C 
ATOM     25  O   UNL     1       1.142  -7.650   2.926  0.00  0.00    -0.263 OA
ATOM     26  S   UNL     1       0.719  -5.315   1.615  0.00  0.00    -0.054 S 
ATOM     27  H   UNL     1       2.487  -8.127   0.802  0.00  0.00    +0.158 HD
ENDBRANCH  19  20
ENDBRANCH  16  19
ENDBRANCH   5  15
TORSDOF 4
