REMARK  Name = ZINC11764604
REMARK  9 active torsions:
REMARK  status: ('A' for Active; 'I' for Inactive)
REMARK    1  A    between atoms: C_1  and  C_2
REMARK    2  A    between atoms: C_10  and  C_14
REMARK    3  A    between atoms: C_11  and  O_13
REMARK    4  A    between atoms: C_14  and  C_15
REMARK    5  A    between atoms: C_15  and  C_16
REMARK    6  A    between atoms: C_16  and  O_18
REMARK    7  A    between atoms: O_18  and  C_19
REMARK    8  A    between atoms: C_19  and  C_20
REMARK    9  A    between atoms: C_19  and  C_21
REMARK                            x       y       z     vdW  Elec       q    Type
REMARK                         _______ _______ _______ _____ _____    ______ ____
ROOT
ATOM      1  C   UNL     1       0.771   5.047  -3.318  0.00  0.00    +0.045 C 
ATOM      2  C   UNL     1      -0.467   4.309  -3.757  0.00  0.00    -0.033 A 
ATOM      3  C   UNL     1      -1.167   4.710  -4.850  0.00  0.00    +0.096 A 
ATOM      4  C   UNL     1      -2.323   4.003  -5.241  0.00  0.00    +0.337 A 
ATOM      5  O   UNL     1      -2.942   4.373  -6.223  0.00  0.00    -0.245 OA
ATOM      6  O   UNL     1      -2.759   2.933  -4.558  0.00  0.00    -0.422 OA
ATOM      7  C   UNL     1      -2.110   2.482  -3.463  0.00  0.00    +0.143 A 
ATOM      8  C   UNL     1      -0.948   3.140  -3.018  0.00  0.00    +0.021 A 
ATOM      9  C   UNL     1      -0.275   2.680  -1.881  0.00  0.00    +0.019 A 
ATOM     10  C   UNL     1      -0.742   1.585  -1.213  0.00  0.00    -0.005 A 
ATOM     11  C   UNL     1      -1.891   0.929  -1.649  0.00  0.00    +0.124 A 
ATOM     12  C   UNL     1      -2.573   1.375  -2.770  0.00  0.00    +0.092 A 
ENDROOT
BRANCH  11  13
ATOM     13  O   UNL     1      -2.346  -0.155  -0.971  0.00  0.00    -0.506 OA
ATOM     14  H   UNL     1      -2.971   0.057  -0.265  0.00  0.00    +0.292 HD
ENDBRANCH  11  13
BRANCH  10  15
ATOM     15  C   UNL     1      -0.013   1.086   0.008  0.00  0.00    +0.050 C 
BRANCH  15  16
ATOM     16  C   UNL     1      -0.729   1.579   1.267  0.00  0.00    +0.125 C 
BRANCH  16  17
ATOM     17  C   UNL     1       0.000   1.080   2.488  0.00  0.00    +0.308 C 
ATOM     18  O   UNL     1       0.991   0.399   2.364  0.00  0.00    -0.251 OA
BRANCH  17  19
ATOM     19  O   UNL     1      -0.451   1.391   3.713  0.00  0.00    -0.462 OA
BRANCH  19  20
ATOM     20  C   UNL     1       0.301   0.876   4.843  0.00  0.00    +0.170 C 
ATOM     21  C   UNL     1       1.382   1.884   5.239  0.00  0.00    +0.052 C 
ATOM     22  C   UNL     1      -0.644   0.652   6.025  0.00  0.00    +0.052 C 
ENDBRANCH  19  20
ENDBRANCH  17  19
ENDBRANCH  16  17
ENDBRANCH  15  16
ENDBRANCH  10  15
TORSDOF 6
