REMARK  Name = ZINC39465336
REMARK  2 active torsions:
REMARK  status: ('A' for Active; 'I' for Inactive)
REMARK    1  A    between atoms: C_4  and  O_25
REMARK    2  A    between atoms: C_5  and  C_7
REMARK                            x       y       z     vdW  Elec       q    Type
REMARK                         _______ _______ _______ _____ _____    ______ ____
ROOT
ATOM      1  C   UNL     1       1.244  -2.166  -0.021  0.00  0.00    +0.021 A 
ATOM      2  C   UNL     1       0.743  -2.868  -1.113  0.00  0.00    +0.017 A 
ATOM      3  C   UNL     1       0.766  -4.253  -1.124  0.00  0.00    -0.023 A 
ATOM      4  C   UNL     1       1.288  -4.939  -0.046  0.00  0.00    -0.039 A 
ATOM      5  C   UNL     1       1.790  -4.245   1.044  0.00  0.00    +0.043 A 
ATOM      6  C   UNL     1       1.777  -2.864   1.063  0.00  0.00    +0.131 A 
ATOM      7  F   UNL     1       2.271  -2.194   2.127  0.00  0.00    -0.205 F 
ATOM      8  C   UNL     1       1.329  -6.446  -0.019  0.00  0.00    +0.052 C 
ATOM      9  C   UNL     1       1.178  -6.990  -1.439  0.00  0.00    +0.108 C 
ATOM     10  N   UNL     1      -0.010  -6.383  -2.056  0.00  0.00    -0.224 NA
ATOM     11  C   UNL     1       0.212  -4.963  -2.332  0.00  0.00    +0.130 C 
ATOM     12  C   UNL     1      -1.088  -4.277  -2.762  0.00  0.00    +0.196 C 
ATOM     13  O   UNL     1      -1.549  -4.885  -3.984  0.00  0.00    -0.292 OA
ATOM     14  P   UNL     1      -1.649  -6.507  -4.048  0.00  0.00    +0.448 P 
ATOM     15  O   UNL     1      -1.584  -6.989  -5.514  0.00  0.00    -0.236 OA
ATOM     16  N   UNL     1      -0.341  -7.067  -3.204  0.00  0.00    -0.154 NA
ATOM     17  O   UNL     1      -2.960  -6.987  -3.386  0.00  0.00    -0.126 OA
ATOM     18  H   UNL     1       0.166  -7.838  -3.502  0.00  0.00    +0.153 HD
ENDROOT
BRANCH   1  23
ATOM     19  C   UNL     1      -0.017   1.376   0.010  0.00  0.00    +0.001 A 
ATOM     20  C   UNL     1       1.169   2.089   0.002  0.00  0.00    +0.004 A 
ATOM     21  C   UNL     1       2.382   1.426  -0.013  0.00  0.00    +0.046 A 
ATOM     22  C   UNL     1       2.415   0.041  -0.021  0.00  0.00    +0.125 A 
ATOM     23  C   UNL     1       1.219  -0.683  -0.013  0.00  0.00    +0.026 A 
ATOM     24  C   UNL     1       0.002  -0.004   0.002  0.00  0.00    +0.012 A 
BRANCH  22  25
ATOM     25  O   UNL     1       3.606  -0.613  -0.036  0.00  0.00    -0.506 OA
ATOM     26  H   UNL     1       3.960  -0.806   0.843  0.00  0.00    +0.292 HD
ENDBRANCH  22  25
ENDBRANCH   1  23
TORSDOF 2
