REMARK  Name = ZINC41094538
REMARK  6 active torsions:
REMARK  status: ('A' for Active; 'I' for Inactive)
REMARK    1  A    between atoms: C_1  and  C_2
REMARK    2  A    between atoms: C_2  and  C_4
REMARK    3  A    between atoms: C_2  and  O_7
REMARK    4  A    between atoms: O_7  and  C_8
REMARK    5  A    between atoms: C_8  and  C_10
REMARK    6  A    between atoms: C_12  and  N_18
REMARK                            x       y       z     vdW  Elec       q    Type
REMARK                         _______ _______ _______ _____ _____    ______ ____
ROOT
ATOM      1  C   UNL     1      -3.308  -1.214  -1.251  0.00  0.00    +0.062 A 
ATOM      2  C   UNL     1      -3.915  -1.433  -2.489  0.00  0.00    +0.039 A 
ATOM      3  C   UNL     1      -5.214  -1.911  -2.545  0.00  0.00    +0.045 A 
ATOM      4  C   UNL     1      -5.910  -2.172  -1.369  0.00  0.00    +0.080 A 
ATOM      5  C   UNL     1      -5.309  -1.955  -0.141  0.00  0.00    +0.062 A 
ATOM      6  C   UNL     1      -4.012  -1.484  -0.075  0.00  0.00    +0.036 A 
ATOM      7 CL   UNL     1      -6.185  -2.283   1.322  0.00  0.00    -0.082 Cl
ATOM      8 CL   UNL     1      -7.537  -2.772  -1.441  0.00  0.00    -0.080 Cl
ENDROOT
BRANCH   3   9
ATOM      9  N   UNL     1      -5.825  -2.132  -3.782  0.00  0.00    -0.357 N 
ATOM     10  H   UNL     1      -5.340  -1.949  -4.602  0.00  0.00    +0.142 HD
ATOM     11  H   UNL     1      -6.734  -2.467  -3.821  0.00  0.00    +0.142 HD
ENDBRANCH   3   9
BRANCH   1  12
ATOM     12  C   UNL     1      -1.924  -0.704  -1.184  0.00  0.00    +0.340 C 
ATOM     13  O   UNL     1      -1.313  -0.469  -2.207  0.00  0.00    -0.245 OA
BRANCH  12  14
ATOM     14  O   UNL     1      -1.339  -0.499   0.012  0.00  0.00    -0.449 OA
BRANCH  14  16
ATOM     15  C   UNL     1      -0.019   1.526   0.010  0.00  0.00    +0.062 C 
ATOM     16  C   UNL     1       0.002  -0.004   0.002  0.00  0.00    +0.259 C 
BRANCH  16  17
ATOM     17  C   UNL     1       0.731  -0.503   1.223  0.00  0.00    +0.251 C 
ATOM     18  O   UNL     1       0.135  -1.137   2.068  0.00  0.00    -0.272 OA
ATOM     19  N   UNL     1       2.045  -0.246   1.375  0.00  0.00    -0.326 N 
ATOM     20  H   UNL     1       2.522   0.261   0.699  0.00  0.00    +0.145 HD
ATOM     21  H   UNL     1       2.514  -0.567   2.161  0.00  0.00    +0.145 HD
ENDBRANCH  16  17
ENDBRANCH  14  16
ENDBRANCH  12  14
ENDBRANCH   1  12
TORSDOF 5
