REMARK  Name = ZINC67263222
REMARK  9 active torsions:
REMARK  status: ('A' for Active; 'I' for Inactive)
REMARK    1  A    between atoms: C_1  and  C_2
REMARK    2  A    between atoms: C_2  and  C_4
REMARK    3  A    between atoms: C_2  and  C_21
REMARK    4  A    between atoms: C_4  and  N_5
REMARK    5  A    between atoms: N_5  and  C_6
REMARK    6  A    between atoms: N_9  and  C_10
REMARK    7  A    between atoms: C_12  and  C_18
REMARK    8  A    between atoms: C_15  and  O_16
REMARK    9  A    between atoms: O_16  and  C_17
REMARK                            x       y       z     vdW  Elec       q    Type
REMARK                         _______ _______ _______ _____ _____    ______ ____
ROOT
ATOM      1  N   UNL     1      -2.119  -0.156  -1.226  0.00  0.00    -0.288 N 
ATOM      2  C   UNL     1      -2.071  -1.044  -2.391  0.00  0.00    +0.133 C 
ATOM      3  C   UNL     1      -2.779   1.016  -1.299  0.00  0.00    +0.306 C 
ATOM      4  O   UNL     1      -2.820   1.753  -0.333  0.00  0.00    -0.252 OA
ATOM      5  N   UNL     1      -3.394   1.373  -2.444  0.00  0.00    -0.266 N 
ATOM      6  H   UNL     1      -3.294   0.826  -3.239  0.00  0.00    +0.156 HD
ENDROOT
BRANCH   5   7
ATOM      7  C   UNL     1      -4.178   2.534  -2.486  0.00  0.00    +0.077 A 
ATOM      8  C   UNL     1      -4.747   3.028  -1.326  0.00  0.00    +0.040 A 
ATOM      9  C   UNL     1      -5.527   4.186  -1.373  0.00  0.00    +0.038 A 
ATOM     10  C   UNL     1      -5.730   4.840  -2.590  0.00  0.00    +0.017 A 
ATOM     11  C   UNL     1      -5.161   4.344  -3.743  0.00  0.00    +0.048 A 
ATOM     12  C   UNL     1      -4.381   3.197  -3.698  0.00  0.00    +0.141 A 
BRANCH   9  13
ATOM     13  C   UNL     1      -6.137   4.716  -0.138  0.00  0.00    +0.242 C 
ATOM     14  O   UNL     1      -5.961   4.145   0.921  0.00  0.00    -0.270 OA
ATOM     15  N   UNL     1      -6.890   5.833  -0.184  0.00  0.00    -0.325 N 
ATOM     16  H   UNL     1      -7.031   6.288  -1.028  0.00  0.00    +0.145 HD
ATOM     17  H   UNL     1      -7.291   6.182   0.628  0.00  0.00    +0.145 HD
ENDBRANCH   9  13
BRANCH  12  18
ATOM     18  O   UNL     1      -3.817   2.715  -4.836  0.00  0.00    -0.493 OA
ATOM     19  C   UNL     1      -4.065   3.442  -6.040  0.00  0.00    +0.277 C 
ENDBRANCH  12  18
ENDBRANCH   5   7
BRANCH   1  20
ATOM     20  C   UNL     1      -1.451  -0.544   0.019  0.00  0.00    +0.117 C 
BRANCH  20  22
ATOM     21  C   UNL     1      -0.018   1.502   0.011  0.00  0.00    +0.014 C 
ATOM     22  C   UNL     1      -0.011  -0.028   0.007  0.00  0.00    +0.033 C 
BRANCH  22  23
ATOM     23  C   UNL     1       0.713  -0.530   1.229  0.00  0.00    -0.043 A 
ATOM     24  C   UNL     1       0.248  -0.206   2.490  0.00  0.00    +0.004 A 
ATOM     25  C   UNL     1       0.912  -0.667   3.611  0.00  0.00    +0.000 A 
ATOM     26  C   UNL     1       2.042  -1.452   3.472  0.00  0.00    +0.000 A 
ATOM     27  C   UNL     1       2.506  -1.776   2.211  0.00  0.00    +0.000 A 
ATOM     28  C   UNL     1       1.839  -1.319   1.090  0.00  0.00    +0.004 A 
ENDBRANCH  22  23
ENDBRANCH  20  22
ENDBRANCH   1  20
TORSDOF 6
