REMARK  Name = ZINC37350233
REMARK  3 active torsions:
REMARK  status: ('A' for Active; 'I' for Inactive)
REMARK    1  A    between atoms: C_5  and  C_7
REMARK    2  A    between atoms: C_8  and  C_13
REMARK    3  A    between atoms: C_9  and  N_12
REMARK                            x       y       z     vdW  Elec       q    Type
REMARK                         _______ _______ _______ _____ _____    ______ ____
ROOT
ATOM      1  C   UNL     1       1.231  -2.172  -0.154  0.00  0.00    +0.126 A 
ATOM      2  C   UNL     1       0.088  -3.056   0.082  0.00  0.00    +0.071 A 
ATOM      3  C   UNL     1       0.589  -4.340   0.157  0.00  0.00    +0.224 A 
ATOM      4  O   UNL     1       1.918  -4.276  -0.015  0.00  0.00    -0.339 OA
ATOM      5  N   UNL     1       2.301  -2.930  -0.212  0.00  0.00    -0.075 NA
ENDROOT
BRANCH   1  10
ATOM      6  C   UNL     1       0.202   1.265  -1.277  0.00  0.00    +0.001 A 
ATOM      7  C   UNL     1       1.106   2.057  -0.591  0.00  0.00    +0.003 A 
ATOM      8  C   UNL     1       2.051   1.480   0.236  0.00  0.00    +0.039 A 
ATOM      9  C   UNL     1       2.098   0.105   0.383  0.00  0.00    +0.133 A 
ATOM     10  C   UNL     1       1.188  -0.697  -0.306  0.00  0.00    +0.039 A 
ATOM     11  C   UNL     1       0.238  -0.108  -1.139  0.00  0.00    +0.013 A 
ATOM     12  F   UNL     1       3.022  -0.458   1.192  0.00  0.00    -0.205 F 
ENDBRANCH   1  10
BRANCH   2  13
ATOM     13  C   UNL     1      -1.331  -2.651   0.215  0.00  0.00    -0.011 A 
ATOM     14  C   UNL     1      -1.739  -1.879   1.303  0.00  0.00    +0.010 A 
ATOM     15  C   UNL     1      -3.062  -1.504   1.421  0.00  0.00    +0.020 A 
ATOM     16  C   UNL     1      -3.983  -1.893   0.464  0.00  0.00    +0.041 A 
ATOM     17  C   UNL     1      -3.583  -2.660  -0.617  0.00  0.00    +0.020 A 
ATOM     18  C   UNL     1      -2.262  -3.035  -0.749  0.00  0.00    +0.010 A 
ATOM     19 CL   UNL     1      -5.646  -1.419   0.620  0.00  0.00    -0.084 Cl
ENDBRANCH   2  13
BRANCH   3  20
ATOM     20  N   UNL     1      -0.147  -5.487   0.371  0.00  0.00    -0.327 N 
ATOM     21  H   UNL     1      -1.109  -5.432   0.485  0.00  0.00    +0.145 HD
ATOM     22  H   UNL     1       0.297  -6.349   0.408  0.00  0.00    +0.145 HD
ENDBRANCH   3  20
TORSDOF 3
