REMARK  Name = ZINC00284824
REMARK  6 active torsions:
REMARK  status: ('A' for Active; 'I' for Inactive)
REMARK    1  A    between atoms: C_1  and  C_2
REMARK    2  A    between atoms: C_3  and  C_19
REMARK    3  A    between atoms: C_4  and  C_12
REMARK    4  A    between atoms: C_6  and  C_10
REMARK    5  A    between atoms: C_7  and  N_9
REMARK    6  A    between atoms: C_19  and  C_21
REMARK                            x       y       z     vdW  Elec       q    Type
REMARK                         _______ _______ _______ _____ _____    ______ ____
ROOT
ATOM      1  C   UNL     1      -0.021   1.049   0.018  0.00  0.00    +0.086 C 
ATOM      2  C   UNL     1      -0.722   1.554   1.252  0.00  0.00    +0.112 C 
ATOM      3  C   UNL     1      -0.017   1.695   2.388  0.00  0.00    +0.045 C 
ATOM      4  C   UNL     1      -0.668   2.193   3.649  0.00  0.00    +0.101 C 
ATOM      5  C   UNL     1      -2.164   2.091   3.524  0.00  0.00    +0.098 C 
ATOM      6  C   UNL     1      -2.749   1.925   2.313  0.00  0.00    +0.198 C 
ATOM      7  O   UNL     1      -2.026   1.853   1.180  0.00  0.00    -0.445 OA
ENDROOT
BRANCH   4   8
ATOM      8  C   UNL     1      -0.282   3.632   3.877  0.00  0.00    -0.034 A 
ATOM      9  C   UNL     1      -0.597   4.590   2.931  0.00  0.00    +0.004 A 
ATOM     10  C   UNL     1      -0.248   5.911   3.142  0.00  0.00    +0.001 A 
ATOM     11  C   UNL     1       0.425   6.273   4.294  0.00  0.00    +0.015 A 
ATOM     12  C   UNL     1       0.745   5.314   5.238  0.00  0.00    +0.018 A 
ATOM     13  C   UNL     1       0.391   3.993   5.029  0.00  0.00    +0.020 A 
ATOM     14 BR   UNL     1       1.666   5.808   6.814  0.00  0.00    -0.050 Br
ENDBRANCH   4   8
BRANCH   6  15
ATOM     15  N   UNL     1      -4.117   1.834   2.240  0.00  0.00    -0.328 N 
ATOM     16  H   UNL     1      -4.650   1.888   3.049  0.00  0.00    +0.145 HD
ATOM     17  H   UNL     1      -4.549   1.715   1.380  0.00  0.00    +0.145 HD
ENDBRANCH   6  15
BRANCH   3  18
ATOM     18  C   UNL     1       1.352   1.371   2.397  0.00  0.00    +0.160 C 
ATOM     19  O   UNL     1       1.912   1.071   1.361  0.00  0.00    -0.293 OA
ATOM     20  C   UNL     1       2.124   1.396   3.691  0.00  0.00    +0.091 C 
ENDBRANCH   3  18
BRANCH   5  21
ATOM     21  C   UNL     1      -2.980   2.171   4.699  0.00  0.00    +0.101 C 
ATOM     22  N   UNL     1      -3.626   2.233   5.630  0.00  0.00    -0.191 NA
ENDBRANCH   5  21
TORSDOF 4
