REMARK  Name = ZINC43038473
REMARK  7 active torsions:
REMARK  status: ('A' for Active; 'I' for Inactive)
REMARK    1  A    between atoms: C_8  and  C_12
REMARK    2  A    between atoms: C_12  and  N_13
REMARK    3  A    between atoms: N_16  and  C_17
REMARK    4  A    between atoms: C_17  and  C_18
REMARK    5  A    between atoms: C_18  and  C_19
REMARK    6  A    between atoms: C_19  and  N_20
REMARK    7  A    between atoms: N_20  and  C_21
REMARK                            x       y       z     vdW  Elec       q    Type
REMARK                         _______ _______ _______ _____ _____    ______ ____
ROOT
ATOM      1  N   UNL     1       3.899  -4.767   0.598  0.00  0.00    -0.299 N 
ATOM      2  C   UNL     1       4.189  -6.074   0.444  0.00  0.00    +0.300 C 
ATOM      3  O   UNL     1       3.401  -6.809  -0.120  0.00  0.00    -0.253 OA
ATOM      4  N   UNL     1       5.351  -6.567   0.916  0.00  0.00    -0.299 N 
ATOM      5  H   UNL     1       4.527  -4.181   1.048  0.00  0.00    +0.150 HD
ATOM      6  H   UNL     1       5.979  -5.980   1.366  0.00  0.00    +0.150 HD
ENDROOT
BRANCH   1   7
ATOM      7  C   UNL     1       2.635  -4.231   0.086  0.00  0.00    +0.113 C 
BRANCH   7  15
ATOM      8  C   UNL     1      -0.017   1.377   0.010  0.00  0.00    +0.000 A 
ATOM      9  C   UNL     1       1.172   2.084   0.002  0.00  0.00    +0.004 A 
ATOM     10  C   UNL     1       2.375   1.409  -0.011  0.00  0.00    +0.046 A 
ATOM     11  C   UNL     1       2.398   0.018  -0.018  0.00  0.00    +0.124 A 
ATOM     12  C   UNL     1       1.207  -0.687  -0.014  0.00  0.00    -0.005 A 
ATOM     13  C   UNL     1       0.002  -0.004   0.002  0.00  0.00    +0.007 A 
ATOM     14  C   UNL     1       1.187  -2.194  -0.033  0.00  0.00    +0.047 C 
ATOM     15  C   UNL     1       2.556  -2.734   0.389  0.00  0.00    +0.048 C 
ATOM     16  C   UNL     1       3.634  -1.986  -0.407  0.00  0.00    +0.234 C 
ATOM     17  O   UNL     1       3.602  -0.610  -0.025  0.00  0.00    -0.491 OA
ENDBRANCH   7  15
ENDBRANCH   1   7
BRANCH   4  18
ATOM     18  C   UNL     1       5.666  -7.988   0.749  0.00  0.00    +0.104 C 
BRANCH  18  19
ATOM     19  C   UNL     1       7.034  -8.283   1.368  0.00  0.00    -0.000 C 
BRANCH  19  20
ATOM     20  C   UNL     1       7.362  -9.767   1.194  0.00  0.00    -0.081 C 
BRANCH  20  21
ATOM     21  N   UNL     1       8.675 -10.051   1.789  0.00  0.00    +0.381 N 
ATOM     22  H   UNL     1       9.380  -9.494   1.329  0.00  0.00    -0.086 HD
ATOM     23  H   UNL     1       8.655  -9.825   2.772  0.00  0.00    -0.086 HD
BRANCH  21  24
ATOM     24  C   UNL     1       8.991 -11.476   1.621  0.00  0.00    -0.072 C 
ATOM     25  C   UNL     1       7.994 -12.317   2.421  0.00  0.00    -0.016 C 
ATOM     26  C   UNL     1       8.323 -13.801   2.246  0.00  0.00    -0.002 C 
ATOM     27  C   UNL     1       9.741 -14.072   2.753  0.00  0.00    -0.000 C 
ATOM     28  C   UNL     1      10.738 -13.231   1.953  0.00  0.00    -0.002 C 
ATOM     29  C   UNL     1      10.409 -11.747   2.128  0.00  0.00    -0.016 C 
ENDBRANCH  21  24
ENDBRANCH  20  21
ENDBRANCH  19  20
ENDBRANCH  18  19
ENDBRANCH   4  18
TORSDOF 7
