REMARK  Name = ZINC05095407
REMARK  11 active torsions:
REMARK  status: ('A' for Active; 'I' for Inactive)
REMARK    1  A    between atoms: C_1  and  C_2
REMARK    2  A    between atoms: C_2  and  O_3
REMARK    3  A    between atoms: O_3  and  C_4
REMARK    4  A    between atoms: C_7  and  C_13
REMARK    5  A    between atoms: C_8  and  O_10
REMARK    6  A    between atoms: O_10  and  C_11
REMARK    7  A    between atoms: C_11  and  C_12
REMARK    8  A    between atoms: C_20  and  N_33
REMARK    9  A    between atoms: C_21  and  C_31
REMARK   10  A    between atoms: C_22  and  C_24
REMARK   11  A    between atoms: C_27  and  O_30
REMARK                            x       y       z     vdW  Elec       q    Type
REMARK                         _______ _______ _______ _____ _____    ______ ____
ROOT
ATOM      1  C   UNL     1       1.151  -5.967   1.712  0.00  0.00    +0.104 A 
ATOM      2  C   UNL     1       0.573  -6.962   0.917  0.00  0.00    +0.054 A 
ATOM      3  C   UNL     1       0.932  -8.174   1.431  0.00  0.00    +0.223 A 
ATOM      4  N   UNL     1       1.707  -7.949   2.512  0.00  0.00    -0.246 N 
ATOM      5  H   UNL     1       2.106  -8.627   3.078  0.00  0.00    +0.192 HD
ATOM      6  N   UNL     1       1.838  -6.561   2.670  0.00  0.00    -0.170 NA
ATOM      7  O   UNL     1       0.533  -9.349   0.882  0.00  0.00    -0.423 OA
ATOM      8  C   UNL     1      -0.008  -9.310  -0.353  0.00  0.00    +0.200 C 
ATOM      9  C   UNL     1      -0.413  -8.172  -0.961  0.00  0.00    +0.098 C 
ATOM     10  C   UNL     1      -0.301  -6.820  -0.302  0.00  0.00    +0.102 C 
ENDROOT
BRANCH   1  14
ATOM     11  C   UNL     1       0.772  -1.766   1.134  0.00  0.00    +0.124 A 
ATOM     12  C   UNL     1       1.084  -2.591   0.061  0.00  0.00    +0.046 A 
ATOM     13  C   UNL     1       1.207  -3.952   0.245  0.00  0.00    +0.017 A 
ATOM     14  C   UNL     1       1.019  -4.503   1.511  0.00  0.00    +0.044 A 
ATOM     15  C   UNL     1       0.706  -3.672   2.591  0.00  0.00    +0.133 A 
ATOM     16  C   UNL     1       0.589  -2.306   2.399  0.00  0.00    +0.092 A 
BRANCH  11  17
ATOM     17  O   UNL     1       0.652  -0.426   0.946  0.00  0.00    -0.492 OA
BRANCH  17  19
ATOM     18  C   UNL     1       0.677   1.584  -0.396  0.00  0.00    +0.048 C 
ATOM     19  C   UNL     1       0.853   0.064  -0.381  0.00  0.00    +0.225 C 
ENDBRANCH  17  19
ENDBRANCH  11  17
BRANCH  15  20
ATOM     20  O   UNL     1       0.521  -4.204   3.828  0.00  0.00    -0.491 OA
BRANCH  20  21
ATOM     21  C   UNL     1       0.204  -3.295   4.884  0.00  0.00    +0.226 C 
ATOM     22  C   UNL     1       0.034  -4.071   6.191  0.00  0.00    +0.048 C 
ENDBRANCH  20  21
ENDBRANCH  15  20
ENDBRANCH   1  14
BRANCH  10  23
ATOM     23  C   UNL     1      -1.669  -6.338   0.106  0.00  0.00    -0.034 A 
ATOM     24  C   UNL     1      -2.407  -7.056   1.029  0.00  0.00    +0.008 A 
ATOM     25  C   UNL     1      -3.662  -6.617   1.404  0.00  0.00    +0.046 A 
ATOM     26  C   UNL     1      -4.181  -5.454   0.855  0.00  0.00    +0.117 A 
ATOM     27  C   UNL     1      -3.438  -4.734  -0.070  0.00  0.00    +0.046 A 
ATOM     28  C   UNL     1      -2.182  -5.175  -0.439  0.00  0.00    +0.008 A 
BRANCH  26  29
ATOM     29  O   UNL     1      -5.415  -5.019   1.222  0.00  0.00    -0.507 OA
ATOM     30  H   UNL     1      -5.412  -4.423   1.984  0.00  0.00    +0.292 HD
ENDBRANCH  26  29
ENDBRANCH  10  23
BRANCH   8  31
ATOM     31  N   UNL     1      -0.155 -10.493  -1.032  0.00  0.00    -0.328 N 
ATOM     32  H   UNL     1       0.127 -11.326  -0.622  0.00  0.00    +0.145 HD
ATOM     33  H   UNL     1      -0.540 -10.497  -1.922  0.00  0.00    +0.145 HD
ENDBRANCH   8  31
BRANCH   9  34
ATOM     34  C   UNL     1      -0.968  -8.254  -2.278  0.00  0.00    +0.101 C 
ATOM     35  N   UNL     1      -1.409  -8.319  -3.323  0.00  0.00    -0.191 NA
ENDBRANCH   9  34
TORSDOF 9
