REMARK  Name = ZINC39898025
REMARK  7 active torsions:
REMARK  status: ('A' for Active; 'I' for Inactive)
REMARK    1  A    between atoms: C_6  and  C_7
REMARK    2  A    between atoms: C_10  and  C_22
REMARK    3  A    between atoms: N_17  and  C_18
REMARK    4  A    between atoms: C_18  and  C_19
REMARK    5  A    between atoms: C_19  and  C_20
REMARK    6  A    between atoms: C_20  and  O_21
REMARK    7  A    between atoms: C_27  and  O_28
REMARK                            x       y       z     vdW  Elec       q    Type
REMARK                         _______ _______ _______ _____ _____    ______ ____
ROOT
ATOM      1  C   UNL     1      -1.247  -0.778   0.017  0.00  0.00    +0.141 C 
ATOM      2  C   UNL     1      -1.489  -1.410   1.360  0.00  0.00    +0.035 A 
ATOM      3  C   UNL     1      -1.681  -1.225   2.734  0.00  0.00    +0.102 A 
ATOM      4  N   UNL     1      -1.841  -2.417   3.274  0.00  0.00    -0.173 NA
ATOM      5  N   UNL     1      -1.770  -3.336   2.378  0.00  0.00    -0.272 N 
ATOM      6  H   UNL     1      -1.859  -4.287   2.548  0.00  0.00    +0.189 HD
ATOM      7  C   UNL     1      -1.550  -2.775   1.153  0.00  0.00    +0.126 A 
ATOM      8  C   UNL     1      -1.355  -3.038  -0.278  0.00  0.00    +0.265 C 
ATOM      9  O   UNL     1      -1.353  -4.143  -0.786  0.00  0.00    -0.268 OA
ATOM     10  N   UNL     1      -1.179  -1.883  -0.948  0.00  0.00    -0.285 N 
ENDROOT
BRANCH   1  16
ATOM     11  C   UNL     1       0.051   1.360  -0.078  0.00  0.00    +0.007 A 
ATOM     12  C   UNL     1       1.244   2.058  -0.067  0.00  0.00    +0.020 A 
ATOM     13  C   UNL     1       2.442   1.376   0.051  0.00  0.00    +0.041 A 
ATOM     14  C   UNL     1       2.445  -0.003   0.158  0.00  0.00    +0.020 A 
ATOM     15  C   UNL     1       1.251  -0.700   0.147  0.00  0.00    +0.007 A 
ATOM     16  C   UNL     1       0.054  -0.018   0.029  0.00  0.00    -0.022 A 
ATOM     17 CL   UNL     1       3.941   2.252   0.064  0.00  0.00    -0.084 Cl
ENDBRANCH   1  16
BRANCH   3  18
ATOM     18  C   UNL     1      -1.699   0.075   3.451  0.00  0.00    +0.045 A 
ATOM     19  C   UNL     1      -1.646   1.269   2.736  0.00  0.00    +0.033 A 
ATOM     20  C   UNL     1      -1.663   2.475   3.408  0.00  0.00    +0.042 A 
ATOM     21  C   UNL     1      -1.734   2.502   4.790  0.00  0.00    +0.023 A 
ATOM     22  C   UNL     1      -1.787   1.322   5.508  0.00  0.00    +0.047 A 
ATOM     23  C   UNL     1      -1.776   0.105   4.846  0.00  0.00    +0.126 A 
ATOM     24 CL   UNL     1      -1.596   3.963   2.516  0.00  0.00    -0.084 Cl
BRANCH  23  25
ATOM     25  O   UNL     1      -1.835  -1.055   5.551  0.00  0.00    -0.506 OA
ATOM     26  H   UNL     1      -0.970  -1.405   5.804  0.00  0.00    +0.292 HD
ENDBRANCH  23  25
ENDBRANCH   3  18
BRANCH  10  27
ATOM     27  C   UNL     1      -0.957  -1.751  -2.390  0.00  0.00    +0.111 C 
BRANCH  27  28
ATOM     28  C   UNL     1       0.545  -1.800  -2.681  0.00  0.00    +0.047 C 
BRANCH  28  29
ATOM     29  C   UNL     1       0.776  -1.663  -4.187  0.00  0.00    +0.157 C 
BRANCH  29  30
ATOM     30  O   UNL     1       2.179  -1.709  -4.460  0.00  0.00    -0.395 OA
ATOM     31  H   UNL     1       2.400  -1.627  -5.397  0.00  0.00    +0.209 HD
ENDBRANCH  29  30
ENDBRANCH  28  29
ENDBRANCH  27  28
ENDBRANCH  10  27
TORSDOF 7
