REMARK  Name = ZINC54914948
REMARK  9 active torsions:
REMARK  status: ('A' for Active; 'I' for Inactive)
REMARK    1  A    between atoms: C_1  and  C_2
REMARK    2  A    between atoms: C_4  and  N_21
REMARK    3  A    between atoms: C_6  and  S_8
REMARK    4  A    between atoms: S_8  and  C_9
REMARK    5  A    between atoms: C_9  and  C_10
REMARK    6  A    between atoms: C_13  and  O_19
REMARK    7  A    between atoms: C_14  and  O_17
REMARK    8  A    between atoms: O_17  and  C_18
REMARK    9  A    between atoms: O_19  and  C_20
REMARK                            x       y       z     vdW  Elec       q    Type
REMARK                         _______ _______ _______ _____ _____    ______ ____
ROOT
ATOM      1  C   UNL     1       0.075  -4.610   2.222  0.00  0.00    +0.113 C 
ENDROOT
BRANCH   1   2
ATOM      2  C   UNL     1       0.092  -5.461   3.466  0.00  0.00    -0.019 A 
ATOM      3  C   UNL     1       1.298  -5.830   4.033  0.00  0.00    +0.009 A 
ATOM      4  C   UNL     1       1.319  -6.611   5.173  0.00  0.00    +0.050 A 
ATOM      5  C   UNL     1       0.130  -7.026   5.751  0.00  0.00    +0.163 A 
ATOM      6  C   UNL     1      -1.084  -6.655   5.181  0.00  0.00    +0.176 A 
ATOM      7  C   UNL     1      -1.098  -5.867   4.041  0.00  0.00    +0.067 A 
ATOM      8 BR   UNL     1      -2.746  -5.354   3.267  0.00  0.00    -0.046 Br
BRANCH   6   9
ATOM      9  O   UNL     1      -2.253  -7.060   5.745  0.00  0.00    -0.490 OA
ATOM     10  C   UNL     1      -2.828  -6.204   6.734  0.00  0.00    +0.277 C 
ENDBRANCH   6   9
BRANCH   5  11
ATOM     11  O   UNL     1       0.150  -7.795   6.872  0.00  0.00    -0.491 OA
ATOM     12  C   UNL     1       1.432  -8.138   7.402  0.00  0.00    +0.277 C 
ENDBRANCH   5  11
ENDBRANCH   1   2
BRANCH   1  13
ATOM     13  S   UNL     1       0.053  -2.857   2.690  0.00  0.00    -0.081 S 
BRANCH  13  19
ATOM     14  C   UNL     1      -0.018   1.503   0.010  0.00  0.00    +0.066 C 
ATOM     15  C   UNL     1       0.002  -0.004   0.002  0.00  0.00    +0.044 A 
ATOM     16  C   UNL     1       0.006  -0.696  -1.194  0.00  0.00    +0.066 A 
ATOM     17  C   UNL     1       0.025  -2.091  -1.157  0.00  0.00    +0.121 A 
ATOM     18  N   UNL     1       0.039  -2.705   0.022  0.00  0.00    -0.207 NA
ATOM     19  C   UNL     1       0.035  -2.005   1.147  0.00  0.00    +0.190 A 
ATOM     20  N   UNL     1       0.022  -0.679   1.141  0.00  0.00    -0.227 NA
BRANCH  17  21
ATOM     21  N   UNL     1       0.029  -2.826  -2.331  0.00  0.00    -0.343 N 
ATOM     22  H   UNL     1       0.018  -2.371  -3.188  0.00  0.00    +0.144 HD
ATOM     23  H   UNL     1       0.042  -3.795  -2.297  0.00  0.00    +0.144 HD
ENDBRANCH  17  21
ENDBRANCH  13  19
ENDBRANCH   1  13
TORSDOF 6
