REMARK  Name = ZINC59931823
REMARK  15 active torsions:
REMARK  status: ('A' for Active; 'I' for Inactive)
REMARK    1  A    between atoms: C_1  and  C_2
REMARK    2  A    between atoms: C_7  and  O_8
REMARK    3  A    between atoms: O_8  and  C_9
REMARK    4  A    between atoms: C_9  and  C_10
REMARK    5  A    between atoms: C_10  and  C_12
REMARK    6  A    between atoms: C_10  and  O_35
REMARK    7  A    between atoms: C_12  and  N_13
REMARK    8  A    between atoms: N_13  and  C_14
REMARK    9  A    between atoms: N_13  and  C_18
REMARK   10  A    between atoms: C_14  and  C_15
REMARK   11  A    between atoms: C_15  and  O_16
REMARK   12  A    between atoms: O_16  and  C_17
REMARK   13  A    between atoms: C_19  and  N_34
REMARK   14  A    between atoms: N_20  and  C_27
REMARK   15  A    between atoms: C_27  and  C_28
REMARK                            x       y       z     vdW  Elec       q    Type
REMARK                         _______ _______ _______ _____ _____    ______ ____
ROOT
ATOM      1  C   UNL     1       1.140   0.537   7.888  0.00  0.00    +0.134 A 
ATOM      2  C   UNL     1       1.367   1.858   8.162  0.00  0.00    +0.127 A 
ATOM      3  N   UNL     1       2.563   2.234   8.730  0.00  0.00    -0.276 N 
ATOM      4  C   UNL     1       3.501   1.312   9.014  0.00  0.00    +0.331 A 
ATOM      5  O   UNL     1       4.551   1.662   9.517  0.00  0.00    -0.246 OA
ATOM      6  N   UNL     1       3.294   0.009   8.751  0.00  0.00    -0.273 N 
ATOM      7  H   UNL     1       3.984  -0.639   8.964  0.00  0.00    +0.173 HD
ATOM      8  C   UNL     1       2.136  -0.405   8.200  0.00  0.00    +0.277 A 
ATOM      9  O   UNL     1       1.955  -1.589   7.970  0.00  0.00    -0.266 OA
ENDROOT
BRANCH   2  10
ATOM     10  N   UNL     1       0.408   2.802   7.871  0.00  0.00    -0.343 N 
ATOM     11  H   UNL     1      -0.451   2.528   7.514  0.00  0.00    +0.144 HD
ATOM     12  H   UNL     1       0.592   3.742   8.024  0.00  0.00    +0.144 HD
ENDBRANCH   2  10
BRANCH   1  13
ATOM     13  N   UNL     1      -0.080   0.124   7.304  0.00  0.00    -0.318 N 
BRANCH  13  14
ATOM     14  C   UNL     1      -0.086  -0.479   5.969  0.00  0.00    +0.140 C 
BRANCH  14  15
ATOM     15  C   UNL     1      -0.377   0.599   4.923  0.00  0.00    +0.169 C 
BRANCH  15  16
ATOM     16  O   UNL     1       0.688   1.552   4.912  0.00  0.00    -0.387 OA
ATOM     17  H   UNL     1       1.538   1.188   4.629  0.00  0.00    +0.210 HD
ENDBRANCH  15  16
BRANCH  15  18
ATOM     18  C   UNL     1      -0.496  -0.049   3.542  0.00  0.00    +0.261 C 
BRANCH  18  19
ATOM     19  O   UNL     1      -0.881   0.939   2.584  0.00  0.00    -0.489 OA
BRANCH  19  26
ATOM     20  C   UNL     1      -1.644   2.876   0.675  0.00  0.00    +0.047 C 
ATOM     21  C   UNL     1      -1.405   1.431   0.316  0.00  0.00    -0.009 A 
ATOM     22  C   UNL     1      -1.551   1.010  -0.991  0.00  0.00    +0.007 A 
ATOM     23  C   UNL     1      -1.332  -0.315  -1.321  0.00  0.00    +0.000 A 
ATOM     24  C   UNL     1      -0.966  -1.221  -0.343  0.00  0.00    +0.004 A 
ATOM     25  C   UNL     1      -0.818  -0.805   0.966  0.00  0.00    +0.046 A 
ATOM     26  C   UNL     1      -1.032   0.525   1.298  0.00  0.00    +0.124 A 
ENDBRANCH  19  26
ENDBRANCH  18  19
ENDBRANCH  15  18
ENDBRANCH  14  15
ENDBRANCH  13  14
BRANCH  13  27
ATOM     27  C   UNL     1      -1.338   0.300   8.034  0.00  0.00    +0.133 C 
BRANCH  27  28
ATOM     28  C   UNL     1      -1.657  -0.976   8.815  0.00  0.00    +0.178 C 
BRANCH  28  29
ATOM     29  O   UNL     1      -0.662  -1.181   9.820  0.00  0.00    -0.381 OA
ATOM     30  C   UNL     1      -0.868  -2.353  10.611  0.00  0.00    +0.194 C 
ENDBRANCH  28  29
ENDBRANCH  27  28
ENDBRANCH  13  27
ENDBRANCH   1  13
BRANCH   3  31
ATOM     31  C   UNL     1       2.816   3.646   9.027  0.00  0.00    +0.163 C 
BRANCH  31  32
ATOM     32  C   UNL     1       2.342   3.958  10.423  0.00  0.00    -0.028 A 
ATOM     33  C   UNL     1       1.042   4.381  10.633  0.00  0.00    +0.005 A 
ATOM     34  C   UNL     1       0.607   4.667  11.914  0.00  0.00    +0.000 A 
ATOM     35  C   UNL     1       1.472   4.531  12.984  0.00  0.00    +0.000 A 
ATOM     36  C   UNL     1       2.771   4.108  12.774  0.00  0.00    +0.000 A 
ATOM     37  C   UNL     1       3.204   3.817  11.494  0.00  0.00    +0.005 A 
ENDBRANCH  31  32
ENDBRANCH   3  31
TORSDOF 13
