REMARK  Name = ZINC67483777
REMARK  6 active torsions:
REMARK  status: ('A' for Active; 'I' for Inactive)
REMARK    1  A    between atoms: C_4  and  C_7
REMARK    2  A    between atoms: C_7  and  N_8
REMARK    3  A    between atoms: C_12  and  C_14
REMARK    4  A    between atoms: C_14  and  N_15
REMARK    5  A    between atoms: C_16  and  C_18
REMARK    6  A    between atoms: C_18  and  N_19
REMARK                            x       y       z     vdW  Elec       q    Type
REMARK                         _______ _______ _______ _____ _____    ______ ____
ROOT
ATOM      1  N   UNL     1       2.996  -1.924  -2.477  0.00  0.00    +0.383 N 
ATOM      2  C   UNL     1       3.892  -2.309  -1.365  0.00  0.00    -0.078 C 
ATOM      3  C   UNL     1       4.672  -3.538  -1.894  0.00  0.00    -0.020 C 
ATOM      4  C   UNL     1       4.881  -3.159  -3.384  0.00  0.00    -0.016 C 
ATOM      5  C   UNL     1       3.576  -2.415  -3.740  0.00  0.00    -0.051 C 
ATOM      6  H   UNL     1       2.087  -2.339  -2.337  0.00  0.00    -0.081 HD
ENDROOT
BRANCH   1   7
ATOM      7  C   UNL     1       2.870  -0.461  -2.526  0.00  0.00    -0.075 C 
BRANCH   7  11
ATOM      8  C   UNL     1      -0.019   1.526   0.010  0.00  0.00    +0.000 C 
ATOM      9  C   UNL     1       1.417   2.055  -0.000  0.00  0.00    +0.000 C 
ATOM     10  C   UNL     1       2.133   1.562  -1.259  0.00  0.00    +0.002 C 
ATOM     11  C   UNL     1       2.154   0.032  -1.268  0.00  0.00    -0.028 C 
ATOM     12  C   UNL     1       0.718  -0.497  -1.257  0.00  0.00    +0.002 C 
ATOM     13  C   UNL     1       0.002  -0.004   0.002  0.00  0.00    +0.000 C 
ENDBRANCH   7  11
ENDBRANCH   1   7
BRANCH   5  14
ATOM     14  C   UNL     1       2.600  -3.375  -4.423  0.00  0.00    +0.089 C 
BRANCH  14  15
ATOM     15  N   UNL     1       1.306  -2.710  -4.601  0.00  0.00    -0.316 N 
ATOM     16  C   UNL     1       0.285  -3.368  -5.185  0.00  0.00    +0.230 C 
ATOM     17  O   UNL     1       0.438  -4.510  -5.564  0.00  0.00    -0.274 OA
ATOM     18  H   UNL     1       1.184  -1.797  -4.297  0.00  0.00    +0.149 HD
BRANCH  16  19
ATOM     19  C   UNL     1      -1.045  -2.685  -5.368  0.00  0.00    +0.201 C 
BRANCH  19  20
ATOM     20  N   UNL     1      -1.980  -3.603  -6.022  0.00  0.00    -0.291 N 
ATOM     21  C   UNL     1      -3.240  -3.206  -6.289  0.00  0.00    +0.297 C 
ATOM     22  O   UNL     1      -3.601  -2.085  -5.986  0.00  0.00    -0.253 OA
ATOM     23  N   UNL     1      -4.100  -4.051  -6.891  0.00  0.00    -0.313 N 
ATOM     24  H   UNL     1      -1.693  -4.498  -6.263  0.00  0.00    +0.151 HD
ATOM     25  H   UNL     1      -3.813  -4.945  -7.132  0.00  0.00    +0.146 HD
ATOM     26  H   UNL     1      -5.007  -3.765  -7.083  0.00  0.00    +0.146 HD
ENDBRANCH  19  20
ENDBRANCH  16  19
ENDBRANCH  14  15
ENDBRANCH   5  14
TORSDOF 6
