REMARK  Name = ZINC08738349
REMARK  12 active torsions:
REMARK  status: ('A' for Active; 'I' for Inactive)
REMARK    1  A    between atoms: N_9  and  C1*_19
REMARK    2  A    between atoms: N_12  and  C_13
REMARK    3  A    between atoms: C_13  and  C_14
REMARK    4  A    between atoms: C_14  and  C_15
REMARK    5  A    between atoms: C_15  and  C_16
REMARK    6  A    between atoms: C_16  and  C_17
REMARK    7  A    between atoms: C_17  and  C_18
REMARK    8  A    between atoms: C_18  and  N_53
REMARK    9  A    between atoms: C2*_21  and  O2*_31
REMARK   10  A    between atoms: C3*_23  and  O3*_30
REMARK   11  A    between atoms: C4*_25  and  C5*_28
REMARK   12  A    between atoms: C5*_28  and  O5*_29
REMARK                            x       y       z     vdW  Elec       q    Type
REMARK                         _______ _______ _______ _____ _____    ______ ____
ROOT
ATOM      1  C   UNL     1       0.973   0.393   4.705  0.00  0.00    +0.201 A 
ATOM      2  N   UNL     1       2.044   0.408   5.538  0.00  0.00    -0.312 N 
ATOM      3  H   UNL     1       2.021  -0.103   6.362  0.00  0.00    +0.170 HD
ATOM      4  C   UNL     1       3.146   1.123   5.221  0.00  0.00    +0.279 A 
ATOM      5  O   UNL     1       4.113   1.145   5.963  0.00  0.00    -0.265 OA
ATOM      6  C   UNL     1       3.141   1.860   4.012  0.00  0.00    +0.174 A 
ATOM      7  C   UNL     1       2.004   1.803   3.203  0.00  0.00    +0.171 A 
ATOM      8  N   UNL     1       0.955   1.062   3.586  0.00  0.00    -0.218 NA
ATOM      9  N   UNL     1       2.269   2.593   2.112  0.00  0.00    -0.267 N 
ATOM     10  C   UNL     1       3.524   3.110   2.275  0.00  0.00    +0.200 A 
ATOM     11  N   UNL     1       4.036   2.675   3.399  0.00  0.00    -0.207 NA
ATOM     12  N   UNL     1       4.155   3.962   1.389  0.00  0.00    -0.315 N 
ATOM     13  H   UNL     1       3.704   4.238   0.576  0.00  0.00    +0.149 HD
ENDROOT
BRANCH   9  14
ATOM     14  C1* UNL     1       1.369   2.841   0.983  0.00  0.00    +0.255 C 
ATOM     15  C2* UNL     1       1.347   1.615   0.050  0.00  0.00    +0.195 C 
ATOM     16  C3* UNL     1      -0.120   1.124   0.102  0.00  0.00    +0.178 C 
ATOM     17  C4* UNL     1      -0.625   1.751   1.427  0.00  0.00    +0.177 C 
ATOM     18  O4* UNL     1       0.028   3.038   1.461  0.00  0.00    -0.346 OA
BRANCH  16  19
ATOM     19  O3* UNL     1      -0.863   1.620  -1.013  0.00  0.00    -0.386 OA
ATOM     20  H3* UNL     1      -1.799   1.377  -1.002  0.00  0.00    +0.210 HD
ENDBRANCH  16  19
BRANCH  15  21
ATOM     21  O2* UNL     1       1.702   1.993  -1.282  0.00  0.00    -0.385 OA
ATOM     22  H2* UNL     1       1.648   1.271  -1.923  0.00  0.00    +0.210 HD
ENDBRANCH  15  21
BRANCH  17  23
ATOM     23  C5* UNL     1      -2.146   1.919   1.398  0.00  0.00    +0.190 C 
BRANCH  23  24
ATOM     24  O5* UNL     1      -2.597   2.388   2.670  0.00  0.00    -0.392 OA
ATOM     25  H5* UNL     1      -3.554   2.517   2.725  0.00  0.00    +0.210 HD
ENDBRANCH  23  24
ENDBRANCH  17  23
ENDBRANCH   9  14
BRANCH  12  26
ATOM     26  C   UNL     1       5.506   4.449   1.678  0.00  0.00    +0.104 C 
BRANCH  26  27
ATOM     27  C   UNL     1       5.970   5.370   0.547  0.00  0.00    +0.019 C 
BRANCH  27  28
ATOM     28  C   UNL     1       7.380   5.878   0.849  0.00  0.00    +0.001 C 
BRANCH  28  29
ATOM     29  C   UNL     1       7.844   6.798  -0.282  0.00  0.00    -0.002 C 
BRANCH  29  30
ATOM     30  C   UNL     1       9.255   7.307   0.020  0.00  0.00    -0.020 C 
BRANCH  30  31
ATOM     31  C   UNL     1       9.718   8.227  -1.111  0.00  0.00    -0.086 C 
BRANCH  31  34
ATOM     32  H   UNL     1      11.711   7.948  -0.677  0.00  0.00    -0.090 HD
ATOM     33  H   UNL     1      11.402   9.326  -1.555  0.00  0.00    -0.090 HD
ATOM     34  N   UNL     1      11.068   8.728  -0.800  0.00  0.00    +0.378 N 
ATOM     35  H   UNL     1      11.034   9.274   0.069  0.00  0.00    -0.090 HD
ENDBRANCH  31  34
ENDBRANCH  30  31
ENDBRANCH  29  30
ENDBRANCH  28  29
ENDBRANCH  27  28
ENDBRANCH  26  27
ENDBRANCH  12  26
TORSDOF 12
