REMARK  Name = ZINC48096542
REMARK  7 active torsions:
REMARK  status: ('A' for Active; 'I' for Inactive)
REMARK    1  A    between atoms: C_1  and  C_2
REMARK    2  A    between atoms: C_2  and  O_3
REMARK    3  A    between atoms: O_3  and  C_4
REMARK    4  A    between atoms: C_4  and  C_5
REMARK    5  A    between atoms: C_5  and  N_6
REMARK    6  A    between atoms: N_9  and  C_10
REMARK    7  A    between atoms: C_11  and  C_18
REMARK                            x       y       z     vdW  Elec       q    Type
REMARK                         _______ _______ _______ _____ _____    ______ ____
ROOT
ATOM      1  N   UNL     1      -3.895  -0.501  -1.366  0.00  0.00    -0.297 N 
ATOM      2  C   UNL     1      -5.171  -0.777  -1.700  0.00  0.00    +0.304 C 
ATOM      3  O   UNL     1      -6.081  -0.140  -1.204  0.00  0.00    -0.253 OA
ATOM      4  N   UNL     1      -5.440  -1.759  -2.582  0.00  0.00    -0.268 N 
ATOM      5  H   UNL     1      -3.170  -1.009  -1.761  0.00  0.00    +0.150 HD
ATOM      6  H   UNL     1      -4.713  -2.218  -3.033  0.00  0.00    +0.156 HD
ENDROOT
BRANCH   4   7
ATOM      7  C   UNL     1      -6.767  -2.117  -2.849  0.00  0.00    +0.056 A 
ATOM      8  C   UNL     1      -7.440  -1.544  -3.920  0.00  0.00    -0.027 A 
ATOM      9  C   UNL     1      -8.748  -1.899  -4.182  0.00  0.00    +0.020 A 
ATOM     10  C   UNL     1      -9.390  -2.825  -3.378  0.00  0.00    +0.020 A 
ATOM     11  C   UNL     1      -8.723  -3.398  -2.310  0.00  0.00    +0.037 A 
ATOM     12  C   UNL     1      -7.411  -3.051  -2.047  0.00  0.00    +0.063 A 
ATOM     13 CL   UNL     1      -6.572  -3.775  -0.711  0.00  0.00    -0.082 Cl
ATOM     14 BR   UNL     1     -11.182  -3.307  -3.740  0.00  0.00    -0.050 Br
ATOM     15  C   UNL     1      -6.743  -0.535  -4.796  0.00  0.00    +0.046 C 
ENDBRANCH   4   7
BRANCH   1  16
ATOM     16  C   UNL     1      -3.603   0.567  -0.406  0.00  0.00    +0.133 C 
BRANCH  16  17
ATOM     17  C   UNL     1      -2.090   0.673  -0.206  0.00  0.00    +0.178 C 
BRANCH  17  18
ATOM     18  O   UNL     1      -1.475   1.085  -1.428  0.00  0.00    -0.378 OA
BRANCH  18  20
ATOM     19  C   UNL     1       0.493   1.659  -2.707  0.00  0.00    +0.034 C 
ATOM     20  C   UNL     1      -0.054   1.216  -1.349  0.00  0.00    +0.156 C 
ENDBRANCH  18  20
ENDBRANCH  17  18
ENDBRANCH  16  17
ENDBRANCH   1  16
TORSDOF 5
