REMARK  Name = ZINC40088632
REMARK  10 active torsions:
REMARK  status: ('A' for Active; 'I' for Inactive)
REMARK    1  A    between atoms: C_1  and  C_2
REMARK    2  A    between atoms: C_5  and  C_7
REMARK    3  A    between atoms: C_7  and  C_8
REMARK    4  A    between atoms: C_7  and  C_22
REMARK    5  A    between atoms: C_7  and  O_26
REMARK    6  A    between atoms: C_8  and  C_9
REMARK    7  A    between atoms: C_9  and  N_10
REMARK    8  A    between atoms: N_10  and  C_11
REMARK    9  A    between atoms: C_11  and  C_12
REMARK   10  A    between atoms: C_17  and  C_18
REMARK                            x       y       z     vdW  Elec       q    Type
REMARK                         _______ _______ _______ _____ _____    ______ ____
ROOT
ATOM      1  C   UNL     1       3.942  -4.270   0.342  0.00  0.00    -0.079 C 
ENDROOT
BRANCH   1   2
ATOM      2  N   UNL     1       5.204  -4.110   1.076  0.00  0.00    +0.382 N 
ATOM      3  H   UNL     1       5.742  -3.364   0.662  0.00  0.00    -0.085 HD
ATOM      4  H   UNL     1       5.007  -3.888   2.040  0.00  0.00    -0.085 HD
BRANCH   2   5
ATOM      5  C   UNL     1       5.971  -5.362   1.010  0.00  0.00    -0.046 C 
BRANCH   5   6
ATOM      6  C   UNL     1       7.311  -5.165   1.671  0.00  0.00    -0.053 A 
ATOM      7  C   UNL     1       7.597  -3.975   2.313  0.00  0.00    +0.002 A 
ATOM      8  C   UNL     1       8.826  -3.795   2.919  0.00  0.00    +0.000 A 
ATOM      9  C   UNL     1       9.769  -4.805   2.884  0.00  0.00    +0.001 A 
ATOM     10  C   UNL     1       9.483  -5.995   2.242  0.00  0.00    +0.012 A 
ATOM     11  C   UNL     1       8.252  -6.177   1.639  0.00  0.00    +0.056 A 
BRANCH  11  12
ATOM     12  C   UNL     1       7.938  -7.477   0.945  0.00  0.00    +0.418 C 
ATOM     13  F   UNL     1       9.008  -8.363   1.107  0.00  0.00    -0.166 F 
ATOM     14  F   UNL     1       6.782  -8.035   1.500  0.00  0.00    -0.166 F 
ATOM     15  F   UNL     1       7.732  -7.239  -0.419  0.00  0.00    -0.166 F 
ENDBRANCH  11  12
ENDBRANCH   5   6
ENDBRANCH   2   5
ENDBRANCH   1   2
BRANCH   1  16
ATOM     16  C   UNL     1       3.144  -2.967   0.410  0.00  0.00    +0.033 C 
BRANCH  16  17
ATOM     17  C   UNL     1       1.781  -3.167  -0.256  0.00  0.00    +0.217 C 
BRANCH  17  22
ATOM     18  C   UNL     1       0.124  -6.157   3.453  0.00  0.00    +0.086 C 
ATOM     19  C   UNL     1       0.297  -5.540   2.089  0.00  0.00    +0.102 A 
ATOM     20  C   UNL     1      -0.353  -5.910   0.970  0.00  0.00    +0.045 A 
ATOM     21  C   UNL     1       0.112  -5.072  -0.069  0.00  0.00    +0.048 A 
ATOM     22  C   UNL     1       1.017  -4.240   0.476  0.00  0.00    +0.145 A 
ATOM     23  O   UNL     1       1.121  -4.525   1.784  0.00  0.00    -0.462 OA
ENDBRANCH  17  22
BRANCH  17  24
ATOM     24  C   UNL     1       0.993  -1.857  -0.209  0.00  0.00    +0.425 C 
ATOM     25  F   UNL     1       0.867  -1.436   1.119  0.00  0.00    -0.167 F 
ATOM     26  F   UNL     1       1.669  -0.879  -0.947  0.00  0.00    -0.167 F 
ATOM     27  F   UNL     1      -0.279  -2.059  -0.757  0.00  0.00    -0.167 F 
ENDBRANCH  17  24
BRANCH  17  28
ATOM     28  O   UNL     1       1.970  -3.561  -1.617  0.00  0.00    -0.373 OA
ATOM     29  H   UNL     1       2.464  -4.386  -1.723  0.00  0.00    +0.211 HD
ENDBRANCH  17  28
ENDBRANCH  16  17
ENDBRANCH   1  16
TORSDOF 9
