REMARK  Name = ZINC07737522
REMARK  9 active torsions:
REMARK  status: ('A' for Active; 'I' for Inactive)
REMARK    1  A    between atoms: C_1  and  N_51
REMARK    2  A    between atoms: C_2  and  C_3
REMARK    3  A    between atoms: C_2  and  N_51
REMARK    4  A    between atoms: N_5  and  C_6
REMARK    5  A    between atoms: C_6  and  C_7
REMARK    6  A    between atoms: C_7  and  C_8
REMARK    7  A    between atoms: C_14  and  C_15
REMARK    8  A    between atoms: C_14  and  N_51
REMARK    9  A    between atoms: N_17  and  C_18
REMARK                            x       y       z     vdW  Elec       q    Type
REMARK                         _______ _______ _______ _____ _____    ______ ____
ROOT
ATOM      1  C   UNL     1       4.318   5.743   1.556  0.00  0.00    -0.095 C 
ATOM      2  N   UNL     1       3.688   6.173   0.290  0.00  0.00    +0.389 N 
ATOM      3  H   UNL     1       4.218   5.781  -0.497  0.00  0.00    -0.081 HD
ENDROOT
BRANCH   2   4
ATOM      4  C   UNL     1       3.705   7.648   0.193  0.00  0.00    +0.019 C 
BRANCH   4   5
ATOM      5  C   UNL     1       5.132   8.109   0.040  0.00  0.00    +0.196 C 
ATOM      6  O   UNL     1       6.033   7.297   0.031  0.00  0.00    -0.278 OA
ATOM      7  N   UNL     1       5.406   9.422  -0.087  0.00  0.00    -0.317 N 
ATOM      8  H   UNL     1       4.685  10.071  -0.080  0.00  0.00    +0.149 HD
BRANCH   7   9
ATOM      9  C   UNL     1       6.793   9.870  -0.236  0.00  0.00    +0.108 C 
BRANCH   9  10
ATOM     10  C   UNL     1       6.826  11.394  -0.360  0.00  0.00    +0.049 C 
BRANCH  10  11
ATOM     11  C   UNL     1       8.253  11.855  -0.513  0.00  0.00    -0.072 C 
ATOM     12  C   UNL     1       8.704  12.045  -1.711  0.00  0.00    -0.028 C 
ATOM     13  C   UNL     1      10.102  12.492  -2.022  0.00  0.00    +0.027 C 
ATOM     14  C   UNL     1      10.756  13.087  -0.773  0.00  0.00    +0.004 C 
ATOM     15  C   UNL     1      10.553  12.109   0.392  0.00  0.00    +0.005 C 
ATOM     16  C   UNL     1       9.061  12.070   0.733  0.00  0.00    +0.030 C 
ENDBRANCH  10  11
ENDBRANCH   9  10
ENDBRANCH   7   9
ENDBRANCH   4   5
ENDBRANCH   2   4
BRANCH   2  17
ATOM     17  C   UNL     1       2.296   5.679   0.225  0.00  0.00    +0.019 C 
BRANCH  17  18
ATOM     18  C   UNL     1       2.319   4.177   0.104  0.00  0.00    +0.201 C 
ATOM     19  O   UNL     1       3.378   3.586   0.091  0.00  0.00    -0.278 OA
ATOM     20  N   UNL     1       1.163   3.491   0.009  0.00  0.00    -0.285 N 
ATOM     21  H   UNL     1       0.320   3.967  -0.046  0.00  0.00    +0.155 HD
BRANCH  20  22
ATOM     22  C   UNL     1       1.179   2.090  -0.009  0.00  0.00    +0.072 A 
ATOM     23  C   UNL     1       2.223   1.415  -0.628  0.00  0.00    +0.029 A 
ATOM     24  C   UNL     1       2.239   0.034  -0.646  0.00  0.00    +0.043 A 
ATOM     25  C   UNL     1       1.214  -0.680  -0.049  0.00  0.00    +0.161 A 
ATOM     26  C   UNL     1       0.169  -0.011   0.569  0.00  0.00    +0.195 A 
ATOM     27  C   UNL     1       0.150   1.374   0.590  0.00  0.00    +0.182 A 
ATOM     28  F   UNL     1      -0.870   2.028   1.187  0.00  0.00    -0.200 F 
ATOM     29  F   UNL     1      -0.831  -0.709   1.151  0.00  0.00    -0.199 F 
ATOM     30  F   UNL     1       1.232  -2.031  -0.069  0.00  0.00    -0.202 F 
ENDBRANCH  20  22
ENDBRANCH  17  18
ENDBRANCH   2  17
TORSDOF 8
