REMARK  Name = ZINC49165064
REMARK  10 active torsions:
REMARK  status: ('A' for Active; 'I' for Inactive)
REMARK    1  A    between atoms: C_1  and  C_2
REMARK    2  A    between atoms: C_4  and  C_11
REMARK    3  A    between atoms: C_5  and  C_10
REMARK    4  A    between atoms: N_6  and  C_7
REMARK    5  A    between atoms: C_7  and  C_8
REMARK    6  A    between atoms: C_7  and  C_9
REMARK    7  A    between atoms: C_13  and  C_14
REMARK    8  A    between atoms: C_13  and  C_16
REMARK    9  A    between atoms: C_16  and  C_18
REMARK   10  A    between atoms: C_22  and  C_23
REMARK                            x       y       z     vdW  Elec       q    Type
REMARK                         _______ _______ _______ _____ _____    ______ ____
ROOT
ATOM      1  C   UNL     1      -0.404  -3.371  -1.403  0.00  0.00    +0.209 C 
ATOM      2  O   UNL     1      -1.550  -4.068  -1.253  0.00  0.00    -0.286 OA
ATOM      3  C   UNL     1       0.556  -3.798  -2.319  0.00  0.00    +0.146 C 
ENDROOT
BRANCH   1   7
ATOM      4  C   UNL     1       0.580   1.440  -0.036  0.00  0.00    +0.063 C 
ATOM      5  C   UNL     1       0.267  -0.034  -0.015  0.00  0.00    +0.017 A 
ATOM      6  C   UNL     1       0.129  -0.817  -1.099  0.00  0.00    +0.034 A 
ATOM      7  C   UNL     1      -0.169  -2.166  -0.602  0.00  0.00    +0.044 A 
ATOM      8  C   UNL     1      -0.182  -2.066   0.777  0.00  0.00    +0.027 A 
ATOM      9  N   UNL     1       0.086  -0.789   1.107  0.00  0.00    -0.345 N 
ATOM     10  C   UNL     1      -0.445  -3.193   1.742  0.00  0.00    +0.064 C 
BRANCH   9  11
ATOM     11  C   UNL     1       0.167  -0.279   2.479  0.00  0.00    +0.081 C 
ATOM     12  C   UNL     1       1.496   0.453   2.673  0.00  0.00    +0.030 C 
ATOM     13  C   UNL     1      -0.991   0.688   2.733  0.00  0.00    +0.030 C 
ENDBRANCH   9  11
ENDBRANCH   1   7
BRANCH   3  14
ATOM     14  C   UNL     1       1.822  -3.132  -2.392  0.00  0.00    +0.107 C 
ATOM     15  N   UNL     1       2.826  -2.604  -2.450  0.00  0.00    -0.191 NA
ENDBRANCH   3  14
BRANCH   3  16
ATOM     16  C   UNL     1       0.271  -4.927  -3.207  0.00  0.00    +0.210 C 
ATOM     17  O   UNL     1      -0.805  -5.493  -3.144  0.00  0.00    -0.286 OA
BRANCH  16  18
ATOM     18  C   UNL     1       1.287  -5.378  -4.176  0.00  0.00    +0.064 A 
ATOM     19  C   UNL     1       2.631  -4.818  -4.380  0.00  0.00    +0.053 A 
ATOM     20  C   UNL     1       3.189  -5.546  -5.360  0.00  0.00    +0.196 A 
ATOM     21  O   UNL     1       2.317  -6.484  -5.763  0.00  0.00    -0.467 OA
ATOM     22  C   UNL     1       1.178  -6.406  -5.066  0.00  0.00    +0.113 A 
ATOM     23  C   UNL     1      -0.023  -7.300  -5.238  0.00  0.00    +0.087 C 
ENDBRANCH  16  18
ENDBRANCH   3  16
TORSDOF 5
