REMARK  Name = ZINC61465129
REMARK  8 active torsions:
REMARK  status: ('A' for Active; 'I' for Inactive)
REMARK    1  A    between atoms: C_1  and  N_2
REMARK    2  A    between atoms: N_2  and  S_3
REMARK    3  A    between atoms: S_3  and  C_6
REMARK    4  A    between atoms: C_9  and  C_12
REMARK    5  A    between atoms: C_13  and  C_14
REMARK    6  A    between atoms: N_16  and  N_17
REMARK    7  A    between atoms: C_18  and  C_20
REMARK    8  A    between atoms: C_23  and  C_26
REMARK                            x       y       z     vdW  Elec       q    Type
REMARK                         _______ _______ _______ _____ _____    ______ ____
ROOT
ATOM      1  C   UNL     1      -4.708  -0.133  -7.495  0.00  0.00    +0.253 C 
ATOM      2  O   UNL     1      -5.474   0.810  -7.565  0.00  0.00    -0.269 OA
ATOM      3  N   UNL     1      -4.491  -0.907  -8.576  0.00  0.00    -0.231 N 
ATOM      4  H   UNL     1      -3.880  -1.658  -8.521  0.00  0.00    +0.173 HD
ENDROOT
BRANCH   3   5
ATOM      5  N   UNL     1      -5.149  -0.627  -9.781  0.00  0.00    -0.230 N 
ATOM      6  C   UNL     1      -4.932  -1.402 -10.863  0.00  0.00    +0.260 C 
ATOM      7  O   UNL     1      -4.167  -2.343 -10.793  0.00  0.00    -0.269 OA
ATOM      8  H   UNL     1      -5.760   0.124  -9.838  0.00  0.00    +0.173 HD
BRANCH   6   9
ATOM      9  C   UNL     1      -5.627  -1.106 -12.135  0.00  0.00    +0.038 A 
ATOM     10  C   UNL     1      -6.502  -0.021 -12.217  0.00  0.00    +0.014 A 
ATOM     11  C   UNL     1      -7.148   0.254 -13.402  0.00  0.00    +0.019 A 
ATOM     12  C   UNL     1      -6.928  -0.552 -14.521  0.00  0.00    +0.052 A 
ATOM     13  C   UNL     1      -6.053  -1.637 -14.439  0.00  0.00    +0.019 A 
ATOM     14  C   UNL     1      -5.402  -1.909 -13.256  0.00  0.00    +0.014 A 
BRANCH  12  15
ATOM     15  C   UNL     1      -7.601  -0.266 -15.752  0.00  0.00    +0.099 C 
ATOM     16  N   UNL     1      -8.134  -0.039 -16.730  0.00  0.00    -0.191 NA
ENDBRANCH  12  15
ENDBRANCH   6   9
ENDBRANCH   3   5
BRANCH   1  18
ATOM     17  C   UNL     1      -4.237   0.350  -5.154  0.00  0.00    +0.013 C 
ATOM     18  C   UNL     1      -4.020  -0.425  -6.236  0.00  0.00    +0.069 C 
BRANCH  17  22
ATOM     19  C   UNL     1      -2.247  -0.499  -1.505  0.00  0.00    +0.105 A 
ATOM     20  C   UNL     1      -3.117   0.575  -1.581  0.00  0.00    +0.029 A 
ATOM     21  C   UNL     1      -3.768   0.857  -2.763  0.00  0.00    +0.010 A 
ATOM     22  C   UNL     1      -3.546   0.056  -3.888  0.00  0.00    -0.025 A 
ATOM     23  C   UNL     1      -2.665  -1.027  -3.803  0.00  0.00    +0.010 A 
ATOM     24  C   UNL     1      -2.018  -1.293  -2.615  0.00  0.00    +0.029 A 
BRANCH  19  25
ATOM     25  S   UNL     1      -1.421  -0.852   0.011  0.00  0.00    +0.058 S 
ATOM     26  O   UNL     1      -1.073  -2.229  -0.027  0.00  0.00    -0.153 OA
ATOM     27  O   UNL     1      -2.218  -0.295   1.047  0.00  0.00    -0.153 OA
BRANCH  25  29
ATOM     28  C   UNL     1      -0.018   1.461   0.010  0.00  0.00    +0.127 C 
ATOM     29  N   UNL     1       0.002  -0.004   0.002  0.00  0.00    -0.193 NA
ATOM     30  H   UNL     1       0.849  -0.478  -0.009  0.00  0.00    +0.148 HD
ENDBRANCH  25  29
ENDBRANCH  19  25
ENDBRANCH  17  22
ENDBRANCH   1  18
TORSDOF 7
