REMARK  Name = ZINC03007776
REMARK  4 active torsions:
REMARK  status: ('A' for Active; 'I' for Inactive)
REMARK    1  A    between atoms: C_1  and  C_2
REMARK    2  A    between atoms: C_5  and  N_8
REMARK    3  A    between atoms: C_9  and  C_11
REMARK    4  A    between atoms: N_16  and  C_18
REMARK                            x       y       z     vdW  Elec       q    Type
REMARK                         _______ _______ _______ _____ _____    ______ ____
ROOT
ATOM      1  C   UNL     1       2.265   0.673   0.414  0.00  0.00    +0.101 C 
ATOM      2  C   UNL     1       1.397   1.880  -0.011  0.00  0.00    +0.110 C 
ATOM      3  C   UNL     1      -0.016   1.340  -0.006  0.00  0.00    +0.221 C 
ATOM      4  O   UNL     1      -1.020   2.021  -0.013  0.00  0.00    -0.275 OA
ATOM      5  N   UNL     1       0.002  -0.004   0.002  0.00  0.00    -0.271 N 
ATOM      6  C   UNL     1       1.377  -0.518  -0.007  0.00  0.00    +0.127 C 
ENDROOT
BRANCH   5   7
ATOM      7  C   UNL     1      -1.143  -0.810   0.017  0.00  0.00    +0.038 A 
ATOM      8  C   UNL     1      -2.398  -0.232   0.152  0.00  0.00    +0.026 A 
ATOM      9  C   UNL     1      -3.527  -1.027   0.162  0.00  0.00    +0.041 A 
ATOM     10  C   UNL     1      -3.408  -2.402   0.049  0.00  0.00    +0.142 A 
ATOM     11  C   UNL     1      -2.156  -2.982  -0.081  0.00  0.00    +0.078 A 
ATOM     12  C   UNL     1      -1.024  -2.188  -0.097  0.00  0.00    +0.046 A 
ATOM     13 CL   UNL     1      -2.009  -4.706  -0.224  0.00  0.00    -0.081 Cl
ATOM     14  F   UNL     1      -4.513  -3.179   0.064  0.00  0.00    -0.204 F 
ENDBRANCH   5   7
BRANCH   1  16
ATOM     15  N   UNL     1       4.490   1.622  -0.104  0.00  0.00    -0.312 N 
ATOM     16  C   UNL     1       3.574   0.660  -0.333  0.00  0.00    +0.218 C 
ATOM     17  O   UNL     1       3.804  -0.217  -1.139  0.00  0.00    -0.275 OA
ATOM     18  H   UNL     1       4.307   2.323   0.540  0.00  0.00    +0.149 HD
BRANCH  15  23
ATOM     19  C   UNL     1       9.977   2.090  -1.685  0.00  0.00    +0.007 C 
ATOM     20  C   UNL     1       8.649   2.104  -0.926  0.00  0.00    -0.014 C 
ATOM     21  C   UNL     1       7.657   3.015  -1.652  0.00  0.00    +0.005 C 
ATOM     22  C   UNL     1       6.328   3.029  -0.894  0.00  0.00    +0.022 C 
ATOM     23  C   UNL     1       5.763   1.609  -0.830  0.00  0.00    +0.073 C 
ATOM     24  C   UNL     1       6.754   0.697  -0.105  0.00  0.00    +0.022 C 
ATOM     25  C   UNL     1       8.083   0.684  -0.863  0.00  0.00    +0.005 C 
ENDBRANCH  15  23
ENDBRANCH   1  16
TORSDOF 3
