REMARK  Name = ZINC14956853
REMARK  9 active torsions:
REMARK  status: ('A' for Active; 'I' for Inactive)
REMARK    1  A    between atoms: C_1  and  C_2
REMARK    2  A    between atoms: C_10  and  C_11
REMARK    3  A    between atoms: N_13  and  C_14
REMARK    4  A    between atoms: N_13  and  C_17
REMARK    5  A    between atoms: C_14  and  C_15
REMARK    6  A    between atoms: C_15  and  O_16
REMARK    7  A    between atoms: C_17  and  C_18
REMARK    8  A    between atoms: C_18  and  O_19
REMARK    9  A    between atoms: N_20  and  C_21
REMARK                            x       y       z     vdW  Elec       q    Type
REMARK                         _______ _______ _______ _____ _____    ______ ____
ROOT
ATOM      1  C   UNL     1       5.767   2.038   0.093  0.00  0.00    +0.046 C 
ATOM      2  C   UNL     1       6.313   2.104   1.497  0.00  0.00    -0.019 A 
ATOM      3  C   UNL     1       5.443   2.281   2.581  0.00  0.00    +0.051 A 
ATOM      4  C   UNL     1       4.023   2.420   2.586  0.00  0.00    +0.131 A 
ATOM      5  N   UNL     1       3.395   2.585   3.738  0.00  0.00    -0.220 NA
ATOM      6  C   UNL     1       4.036   2.615   4.893  0.00  0.00    +0.224 A 
ATOM      7  N   UNL     1       5.348   2.493   4.955  0.00  0.00    -0.228 NA
ATOM      8  C   UNL     1       6.057   2.330   3.857  0.00  0.00    +0.114 A 
ATOM      9  S   UNL     1       7.781   2.130   3.488  0.00  0.00    -0.064 S 
ATOM     10  C   UNL     1       7.652   1.992   1.714  0.00  0.00    +0.080 A 
ATOM     11  N   UNL     1       3.314   2.389   1.402  0.00  0.00    -0.322 N 
ATOM     12  H   UNL     1       3.785   2.364   0.555  0.00  0.00    +0.148 HD
ENDROOT
BRANCH  11  13
ATOM     13  C   UNL     1       1.849   2.394   1.425  0.00  0.00    +0.102 C 
ATOM     14  C   UNL     1       1.327   2.993   0.121  0.00  0.00    +0.027 C 
ATOM     15  C   UNL     1      -0.192   2.793   0.071  0.00  0.00    +0.007 C 
ATOM     16  C   UNL     1      -0.476   1.305  -0.124  0.00  0.00    +0.035 C 
ATOM     17  C   UNL     1       0.280   0.484   0.888  0.00  0.00    -0.042 A 
ATOM     18  C   UNL     1       1.350   0.983   1.597  0.00  0.00    -0.024 A 
ATOM     19  C   UNL     1       2.008   0.172   2.512  0.00  0.00    +0.006 A 
ATOM     20  C   UNL     1       1.595  -1.129   2.719  0.00  0.00    +0.000 A 
ATOM     21  C   UNL     1       0.518  -1.628   2.011  0.00  0.00    +0.000 A 
ATOM     22  C   UNL     1      -0.135  -0.824   1.100  0.00  0.00    +0.004 A 
ENDBRANCH  11  13
BRANCH  10  23
ATOM     23  C   UNL     1       8.726   1.804   0.730  0.00  0.00    +0.254 C 
ATOM     24  O   UNL     1       8.452   1.613  -0.440  0.00  0.00    -0.269 OA
ATOM     25  N   UNL     1      10.014   1.842   1.124  0.00  0.00    -0.293 N 
BRANCH  25  26
ATOM     26  C   UNL     1      11.081   1.536   0.168  0.00  0.00    +0.136 C 
BRANCH  26  27
ATOM     27  C   UNL     1      11.524   2.823  -0.532  0.00  0.00    +0.174 C 
BRANCH  27  28
ATOM     28  O   UNL     1      12.114   3.706   0.423  0.00  0.00    -0.393 OA
ATOM     29  H   UNL     1      12.418   4.544   0.049  0.00  0.00    +0.209 HD
ENDBRANCH  27  28
ENDBRANCH  26  27
ENDBRANCH  25  26
BRANCH  25  30
ATOM     30  C   UNL     1      10.348   2.191   2.507  0.00  0.00    +0.136 C 
BRANCH  30  31
ATOM     31  C   UNL     1      10.310   0.930   3.373  0.00  0.00    +0.174 C 
BRANCH  31  32
ATOM     32  O   UNL     1      11.338   0.032   2.951  0.00  0.00    -0.393 OA
ATOM     33  H   UNL     1      11.374  -0.791   3.458  0.00  0.00    +0.209 HD
ENDBRANCH  31  32
ENDBRANCH  30  31
ENDBRANCH  25  30
ENDBRANCH  10  23
TORSDOF 8
