REMARK  Name = ZINC08964055
REMARK  9 active torsions:
REMARK  status: ('A' for Active; 'I' for Inactive)
REMARK    1  A    between atoms: C_1  and  C_2
REMARK    2  A    between atoms: C_4  and  C_31
REMARK    3  A    between atoms: C_6  and  N_8
REMARK    4  A    between atoms: C_9  and  C_11
REMARK    5  A    between atoms: N_13  and  C_14
REMARK    6  A    between atoms: C_14  and  C_15
REMARK    7  A    between atoms: C_15  and  C_17
REMARK    8  A    between atoms: C_15  and  N_63
REMARK    9  A    between atoms: N_25  and  C_26
REMARK                            x       y       z     vdW  Elec       q    Type
REMARK                         _______ _______ _______ _____ _____    ______ ____
ROOT
ATOM      1  C   UNL     1      -2.876   7.634  -1.341  0.00  0.00    +0.094 C 
ENDROOT
BRANCH   1   4
ATOM      2  C   UNL     1      -3.658   9.389  -2.840  0.00  0.00    +0.299 C 
ATOM      3  O   UNL     1      -2.534   9.846  -2.844  0.00  0.00    -0.265 OA
ATOM      4  N   UNL     1      -3.934   8.284  -2.120  0.00  0.00    -0.309 N 
ATOM      5  H   UNL     1      -4.832   7.918  -2.117  0.00  0.00    +0.149 HD
BRANCH   2   7
ATOM      6  N   UNL     1      -4.460  11.156  -4.354  0.00  0.00    -0.278 N 
ATOM      7  C   UNL     1      -4.736  10.051  -3.634  0.00  0.00    +0.303 C 
ATOM      8  O   UNL     1      -5.860   9.594  -3.631  0.00  0.00    -0.265 OA
ATOM      9  H   UNL     1      -3.553  11.497  -4.392  0.00  0.00    +0.155 HD
BRANCH   6  15
ATOM     10  C   UNL     1      -6.502  15.348  -5.909  0.00  0.00    +0.044 C 
ATOM     11  C   UNL     1      -6.497  13.844  -5.815  0.00  0.00    -0.048 A 
ATOM     12  C   UNL     1      -7.505  13.111  -6.415  0.00  0.00    +0.006 A 
ATOM     13  C   UNL     1      -7.505  11.731  -6.332  0.00  0.00    -0.048 A 
ATOM     14  C   UNL     1      -6.496  11.079  -5.649  0.00  0.00    +0.026 A 
ATOM     15  C   UNL     1      -5.482  11.812  -5.046  0.00  0.00    +0.034 A 
ATOM     16  C   UNL     1      -5.489  13.199  -5.127  0.00  0.00    +0.026 A 
ATOM     17  C   UNL     1      -8.605  10.937  -6.987  0.00  0.00    +0.044 C 
ENDBRANCH   6  15
ENDBRANCH   2   7
ENDBRANCH   1   4
BRANCH   1  18
ATOM     18  C   UNL     1      -3.483   6.519  -0.488  0.00  0.00    -0.020 C 
BRANCH  18  19
ATOM     19  C   UNL     1      -2.379   5.713   0.145  0.00  0.00    -0.059 A 
ATOM     20  C   UNL     1      -1.612   6.263   1.157  0.00  0.00    +0.004 A 
ATOM     21  C   UNL     1      -0.602   5.528   1.741  0.00  0.00    +0.023 A 
ATOM     22  C   UNL     1      -0.347   4.224   1.316  0.00  0.00    +0.033 A 
ATOM     23  C   UNL     1      -1.120   3.683   0.296  0.00  0.00    -0.025 A 
ATOM     24  C   UNL     1      -2.130   4.421  -0.283  0.00  0.00    +0.007 A 
ATOM     25  C   UNL     1      -0.625   2.275   0.033  0.00  0.00    +0.056 C 
ATOM     26  C   UNL     1       0.754   2.259   0.730  0.00  0.00    +0.109 C 
ATOM     27  N   UNL     1       0.609   3.302   1.768  0.00  0.00    -0.332 N 
ATOM     28  C   UNL     1       1.894   3.959   2.039  0.00  0.00    +0.129 C 
ENDBRANCH  18  19
BRANCH  18  33
ATOM     29  C   UNL     1      -5.533   7.746  -0.017  0.00  0.00    -0.078 C 
ATOM     30  C   UNL     1      -6.505   7.823   1.187  0.00  0.00    -0.020 C 
ATOM     31  C   UNL     1      -6.229   6.500   1.939  0.00  0.00    -0.020 C 
ATOM     32  C   UNL     1      -4.821   6.069   1.490  0.00  0.00    -0.078 C 
ATOM     33  N   UNL     1      -4.347   7.111   0.578  0.00  0.00    +0.385 N 
ATOM     34  H   UNL     1      -3.805   7.809   1.101  0.00  0.00    -0.081 HD
ENDBRANCH  18  33
ENDBRANCH   1  18
TORSDOF 6
