REMARK  Name = ZINC20568314
REMARK  4 active torsions:
REMARK  status: ('A' for Active; 'I' for Inactive)
REMARK    1  A    between atoms: C_1  and  C_2
REMARK    2  A    between atoms: C_2  and  C_29
REMARK    3  A    between atoms: N_24  and  C_25
REMARK    4  A    between atoms: C_25  and  C_26
REMARK                            x       y       z     vdW  Elec       q    Type
REMARK                         _______ _______ _______ _____ _____    ______ ____
ROOT
ATOM      1  C   UNL     1       1.386   6.902  -2.565  0.00  0.00    +0.011 C 
ATOM      2  C   UNL     1       2.888   6.782  -2.833  0.00  0.00    -0.023 C 
ATOM      3  C   UNL     1       3.652   6.915  -1.511  0.00  0.00    +0.058 C 
ATOM      4  C   UNL     1       3.277   5.742  -0.629  0.00  0.00    +0.023 C 
ATOM      5  C   UNL     1       2.871   4.554  -1.159  0.00  0.00    +0.038 C 
ATOM      6  C   UNL     1       2.777   4.314  -2.538  0.00  0.00    +0.163 C 
ATOM      7  O   UNL     1       2.384   3.246  -2.962  0.00  0.00    -0.292 OA
ATOM      8  C   UNL     1       3.180   5.427  -3.480  0.00  0.00    +0.086 C 
ATOM      9  C   UNL     1       2.579   3.653  -0.000  0.00  0.00    +0.148 C 
ATOM     10  C   UNL     1       1.150   3.189   0.009  0.00  0.00    -0.011 A 
ATOM     11  C   UNL     1      -0.057   3.850   0.024  0.00  0.00    +0.006 A 
ATOM     12  C   UNL     1      -1.241   3.133   0.032  0.00  0.00    +0.000 A 
ATOM     13  C   UNL     1      -1.215   1.749   0.017  0.00  0.00    +0.001 A 
ATOM     14  C   UNL     1      -0.013   1.076   0.008  0.00  0.00    +0.012 A 
ATOM     15  C   UNL     1       1.188   1.792   0.000  0.00  0.00    +0.024 A 
ATOM     16  C   UNL     1       2.595   1.344  -0.017  0.00  0.00    +0.162 A 
ATOM     17  C   UNL     1       3.429   2.413  -0.019  0.00  0.00    +0.113 A 
ATOM     18  N   UNL     1       4.689   1.951  -0.036  0.00  0.00    -0.198 NA
ATOM     19  C   UNL     1       4.658   0.639  -0.043  0.00  0.00    +0.286 A 
ATOM     20  O   UNL     1       3.378   0.236  -0.031  0.00  0.00    -0.424 OA
ATOM     21  N   UNL     1       5.760  -0.190  -0.060  0.00  0.00    -0.313 N 
ATOM     22  C   UNL     1       2.884   4.504   1.211  0.00  0.00    +0.241 C 
ATOM     23  O   UNL     1       2.790   4.179   2.375  0.00  0.00    -0.273 OA
ATOM     24  N   UNL     1       3.283   5.701   0.729  0.00  0.00    -0.265 N 
ATOM     25  C   UNL     1       3.323   7.898  -3.785  0.00  0.00    +0.011 C 
ATOM     26  H   UNL     1       5.627  -1.281  -0.065  0.00  0.00    +0.147 HD
ATOM     27  H   UNL     1       6.772   0.241  -0.069  0.00  0.00    +0.147 HD
ENDROOT
BRANCH  24  28
ATOM     28  C   UNL     1       3.678   6.829   1.576  0.00  0.00    +0.208 C 
BRANCH  28  29
ATOM     29  C   UNL     1       5.159   6.759   1.847  0.00  0.00    +0.228 C 
ATOM     30  O   UNL     1       5.819   5.856   1.378  0.00  0.00    -0.274 OA
ATOM     31  N   UNL     1       5.750   7.700   2.609  0.00  0.00    -0.328 N 
ATOM     32  H   UNL     1       6.831   7.649   2.807  0.00  0.00    +0.145 HD
ATOM     33  H   UNL     1       5.152   8.519   3.034  0.00  0.00    +0.145 HD
ENDBRANCH  28  29
ENDBRANCH  24  28
TORSDOF 2
