REMARK  Name = ZINC38122587
REMARK  5 active torsions:
REMARK  status: ('A' for Active; 'I' for Inactive)
REMARK    1  A    between atoms: C_6  and  CA_7
REMARK    2  A    between atoms: CA_7  and  C_9
REMARK    3  A    between atoms: CA_7  and  N_11
REMARK    4  A    between atoms: C_9  and  O_10
REMARK    5  A    between atoms: N_11  and  C_12
REMARK                            x       y       z     vdW  Elec       q    Type
REMARK                         _______ _______ _______ _____ _____    ______ ____
ROOT
ATOM      1  CA  UNL     1      -1.373  -0.694   0.141  0.00  0.00    -0.015 C 
ENDROOT
BRANCH   1   7
ATOM      2  C   UNL     1      -0.184   1.507   0.177  0.00  0.00    +0.006 A 
ATOM      3  C   UNL     1       0.970   2.264   0.265  0.00  0.00    +0.049 A 
ATOM      4  C   UNL     1       2.200   1.642   0.415  0.00  0.00    +0.162 A 
ATOM      5  C   UNL     1       2.269   0.255   0.479  0.00  0.00    +0.162 A 
ATOM      6  C   UNL     1       1.109  -0.499   0.389  0.00  0.00    +0.051 A 
ATOM      7  C   UNL     1      -0.114   0.128   0.238  0.00  0.00    -0.056 A 
ATOM      8  O   UNL     1       3.465  -0.376   0.634  0.00  0.00    -0.485 OA
ATOM      9  C   UNL     1       4.639   0.392   0.347  0.00  0.00    +0.270 C 
ATOM     10  C   UNL     1       4.495   1.762   1.022  0.00  0.00    +0.270 C 
ATOM     11  O   UNL     1       3.327   2.400   0.496  0.00  0.00    -0.485 OA
ENDBRANCH   1   7
BRANCH   1  12
ATOM     12  N   UNL     1      -2.264  -0.107  -0.870  0.00  0.00    +0.387 N 
ATOM     13  H1  UNL     1      -2.566   0.805  -0.563  0.00  0.00    -0.085 HD
ATOM     14  H2  UNL     1      -1.769  -0.021  -1.745  0.00  0.00    -0.085 HD
BRANCH  12  15
ATOM     15  C   UNL     1      -3.435  -0.975  -1.054  0.00  0.00    -0.071 C 
ATOM     16  C   UNL     1      -2.968  -2.329  -1.626  0.00  0.00    -0.016 C 
ATOM     17  C   UNL     1      -4.028  -3.359  -1.340  0.00  0.00    -0.002 C 
ATOM     18  C   UNL     1      -5.015  -3.529  -2.511  0.00  0.00    -0.000 C 
ATOM     19  C   UNL     1      -5.424  -2.187  -3.147  0.00  0.00    -0.000 C 
ATOM     20  C   UNL     1      -5.682  -1.118  -2.120  0.00  0.00    -0.002 C 
ATOM     21  C   UNL     1      -4.387  -0.303  -1.925  0.00  0.00    -0.016 C 
ENDBRANCH  12  15
ENDBRANCH   1  12
BRANCH   1  22
ATOM     22  C   UNL     1      -2.080  -0.707   1.497  0.00  0.00    +0.144 C 
BRANCH  22  23
ATOM     23  O   UNL     1      -2.308   0.636   1.929  0.00  0.00    -0.396 OA
ATOM     24  H   UNL     1      -2.754   0.704   2.784  0.00  0.00    +0.209 HD
ENDBRANCH  22  23
ENDBRANCH   1  22
TORSDOF 5
