REMARK  Name = ZINC04753283
REMARK  6 active torsions:
REMARK  status: ('A' for Active; 'I' for Inactive)
REMARK    1  A    between atoms: C_1  and  C_2
REMARK    2  A    between atoms: C_2  and  C_27
REMARK    3  A    between atoms: C_6  and  C_10
REMARK    4  A    between atoms: C_10  and  O_26
REMARK    5  A    between atoms: N_17  and  C_20
REMARK    6  A    between atoms: C_20  and  N_53
REMARK                            x       y       z     vdW  Elec       q    Type
REMARK                         _______ _______ _______ _____ _____    ______ ____
ROOT
ATOM      1  C   UNL     1       2.620   1.356  -0.016  0.00  0.00    +0.180 C 
ATOM      2  C   UNL     1       1.165   1.763  -0.010  0.00  0.00    +0.015 A 
ATOM      3  C   UNL     1      -0.009   1.043  -0.014  0.00  0.00    +0.009 A 
ATOM      4  C   UNL     1      -1.225   1.705  -0.013  0.00  0.00    +0.000 A 
ATOM      5  C   UNL     1      -1.255   3.087   0.005  0.00  0.00    +0.002 A 
ATOM      6  C   UNL     1      -0.081   3.811   0.010  0.00  0.00    +0.024 A 
ATOM      7  C   UNL     1       1.147   3.152   0.002  0.00  0.00    +0.041 A 
ATOM      8  N   UNL     1       2.450   3.651   0.004  0.00  0.00    -0.285 N 
ATOM      9  C   UNL     1       3.370   2.672  -0.006  0.00  0.00    +0.255 C 
ATOM     10  O   UNL     1       4.574   2.814  -0.007  0.00  0.00    -0.272 OA
ENDROOT
BRANCH   1  16
ATOM     11  C   UNL     1       5.306   1.849   3.503  0.00  0.00    +0.042 C 
ATOM     12  C   UNL     1       4.606   0.496   3.652  0.00  0.00    +0.071 C 
ATOM     13  C   UNL     1       5.008  -0.419   2.489  0.00  0.00    +0.109 C 
ATOM     14  C   UNL     1       4.418   0.151   1.215  0.00  0.00    +0.145 C 
ATOM     15  O   UNL     1       5.090   0.290   0.221  0.00  0.00    -0.297 OA
ATOM     16  C   UNL     1       2.954   0.540   1.234  0.00  0.00    +0.126 C 
ATOM     17  C   UNL     1       2.701   1.385   2.488  0.00  0.00    +0.175 C 
ATOM     18  O   UNL     1       3.190   0.687   3.634  0.00  0.00    -0.373 OA
ATOM     19  C   UNL     1       5.018  -0.150   4.976  0.00  0.00    +0.042 C 
ENDBRANCH   1  16
BRANCH   1  20
ATOM     20  O   UNL     1       2.927   0.614  -1.198  0.00  0.00    -0.374 OA
ATOM     21  H   UNL     1       2.763   1.097  -2.019  0.00  0.00    +0.211 HD
ENDBRANCH   1  20
BRANCH   8  22
ATOM     22  C   UNL     1       2.778   5.079   0.015  0.00  0.00    +0.038 C 
BRANCH  22  28
ATOM     23  C   UNL     1       1.564   5.826   1.973  0.00  0.00    -0.048 C 
ATOM     24  C   UNL     1       1.722   6.250   3.436  0.00  0.00    +0.141 C 
ATOM     25  O   UNL     1       2.593   7.382   3.507  0.00  0.00    -0.383 OA
ATOM     26  C   UNL     1       3.893   7.144   2.961  0.00  0.00    +0.141 C 
ATOM     27  C   UNL     1       3.756   6.729   1.494  0.00  0.00    -0.048 C 
ATOM     28  N   UNL     1       2.901   5.526   1.419  0.00  0.00    +0.393 N 
ATOM     29  H   UNL     1       3.331   4.775   1.972  0.00  0.00    -0.079 HD
ENDBRANCH  22  28
ENDBRANCH   8  22
TORSDOF 4
