REMARK  Name = ZINC21125522
REMARK  7 active torsions:
REMARK  status: ('A' for Active; 'I' for Inactive)
REMARK    1  A    between atoms: C_1  and  C_2
REMARK    2  A    between atoms: C_6  and  C_23
REMARK    3  A    between atoms: C_7  and  O_8
REMARK    4  A    between atoms: O_8  and  C_9
REMARK    5  A    between atoms: C_9  and  C_10
REMARK    6  A    between atoms: N_12  and  C_13
REMARK    7  A    between atoms: C_15  and  N_20
REMARK                            x       y       z     vdW  Elec       q    Type
REMARK                         _______ _______ _______ _____ _____    ______ ____
ROOT
ATOM      1  C   UNL     1       2.320   4.173   0.104  0.00  0.00    +0.255 C 
ATOM      2  O   UNL     1       3.378   3.581   0.091  0.00  0.00    -0.272 OA
ATOM      3  N   UNL     1       1.163   3.487   0.009  0.00  0.00    -0.281 N 
ATOM      4  H   UNL     1       0.208   4.027  -0.071  0.00  0.00    +0.155 HD
ENDROOT
BRANCH   3   5
ATOM      5  C   UNL     1       1.177   2.087   0.013  0.00  0.00    +0.054 A 
ATOM      6  C   UNL     1       2.229   1.403   0.608  0.00  0.00    +0.057 A 
ATOM      7  C   UNL     1       2.241   0.022   0.610  0.00  0.00    +0.128 A 
ATOM      8  C   UNL     1       1.206  -0.680   0.020  0.00  0.00    +0.034 A 
ATOM      9  C   UNL     1       0.157  -0.003  -0.574  0.00  0.00    +0.024 A 
ATOM     10  C   UNL     1       0.139   1.379  -0.579  0.00  0.00    +0.062 A 
ATOM     11 CL   UNL     1      -1.175   2.228  -1.331  0.00  0.00    -0.082 Cl
BRANCH   7  12
ATOM     12  N   UNL     1       3.362  -0.707   1.243  0.00  0.00    +0.056 N 
ATOM     13  O   UNL     1       3.373  -1.925   1.245  0.00  0.00    -0.126 OA
ATOM     14  O   UNL     1       4.274  -0.089   1.763  0.00  0.00    -0.126 OA
ENDBRANCH   7  12
ENDBRANCH   3   5
BRANCH   1  15
ATOM     15  C   UNL     1       2.297   5.675   0.225  0.00  0.00    +0.324 C 
BRANCH  15  16
ATOM     16  O   UNL     1       3.637   6.166   0.310  0.00  0.00    -0.482 OA
BRANCH  16  23
ATOM     17  C   UNL     1       3.884   7.656  -2.078  0.00  0.00    +0.047 C 
ATOM     18  C   UNL     1       3.921   8.295  -0.713  0.00  0.00    -0.009 A 
ATOM     19  C   UNL     1       4.076   9.662  -0.594  0.00  0.00    +0.007 A 
ATOM     20  C   UNL     1       4.116  10.248   0.657  0.00  0.00    +0.001 A 
ATOM     21  C   UNL     1       3.996   9.468   1.793  0.00  0.00    +0.007 A 
ATOM     22  C   UNL     1       3.835   8.101   1.679  0.00  0.00    -0.009 A 
ATOM     23  C   UNL     1       3.795   7.511   0.424  0.00  0.00    +0.127 A 
ATOM     24  C   UNL     1       3.704   7.252   2.917  0.00  0.00    +0.047 C 
ENDBRANCH  16  23
ENDBRANCH  15  16
ENDBRANCH   1  15
TORSDOF 5
