REMARK  Name = ZINC06282245
REMARK  10 active torsions:
REMARK  status: ('A' for Active; 'I' for Inactive)
REMARK    1  A    between atoms: C_1  and  C_2
REMARK    2  A    between atoms: C_5  and  C_28
REMARK    3  A    between atoms: C_6  and  C_8
REMARK    4  A    between atoms: N_16  and  C_19
REMARK    5  A    between atoms: C_19  and  C_20
REMARK    6  A    between atoms: C_19  and  C_21
REMARK    7  A    between atoms: C_19  and  C_22
REMARK    8  A    between atoms: C_23  and  C_24
REMARK    9  A    between atoms: C_23  and  C_26
REMARK   10  A    between atoms: C_24  and  O_25
REMARK                            x       y       z     vdW  Elec       q    Type
REMARK                         _______ _______ _______ _____ _____    ______ ____
ROOT
ATOM      1  C   UNL     1       1.803   1.286   0.943  0.00  0.00    -0.026 C 
ATOM      2  C   UNL     1       1.387   2.405  -0.007  0.00  0.00    +0.077 C 
ATOM      3  C   UNL     1      -0.169   2.138   0.012  0.00  0.00    +0.088 C 
ATOM      4  C   UNL     1      -0.685   3.379  -0.509  0.00  0.00    +0.225 C 
ATOM      5  O   UNL     1      -1.659   3.536  -1.215  0.00  0.00    -0.275 OA
ATOM      6  N   UNL     1       0.166   4.343  -0.030  0.00  0.00    -0.236 N 
ATOM      7  C   UNL     1       1.314   3.821   0.496  0.00  0.00    +0.225 C 
ATOM      8  O   UNL     1       2.109   4.382   1.218  0.00  0.00    -0.275 OA
ATOM      9  C   UNL     1      -0.232   0.687  -0.226  0.00  0.00    +0.071 C 
ATOM     10  N   UNL     1       0.845   0.180   0.682  0.00  0.00    +0.397 N 
ATOM     11  H   UNL     1       0.431  -0.135   1.568  0.00  0.00    -0.083 HD
ATOM     12  H   UNL     1       1.334  -0.605   0.235  0.00  0.00    -0.083 HD
ENDROOT
BRANCH   1  18
ATOM     13  C   UNL     1      -0.893   1.859   5.120  0.00  0.00    +0.044 C 
ATOM     14  C   UNL     1       0.405   2.022   4.371  0.00  0.00    -0.050 A 
ATOM     15  C   UNL     1       1.497   2.596   4.997  0.00  0.00    +0.003 A 
ATOM     16  C   UNL     1       2.687   2.745   4.311  0.00  0.00    +0.004 A 
ATOM     17  C   UNL     1       2.788   2.316   3.000  0.00  0.00    -0.049 A 
ATOM     18  C   UNL     1       1.695   1.748   2.373  0.00  0.00    -0.057 A 
ATOM     19  C   UNL     1       0.504   1.598   3.059  0.00  0.00    +0.005 A 
ATOM     20  C   UNL     1       4.088   2.473   2.254  0.00  0.00    +0.044 C 
ENDBRANCH   1  18
BRANCH   6  21
ATOM     21  C   UNL     1      -0.124   5.779  -0.078  0.00  0.00    +0.036 C 
ATOM     22  C   UNL     1       1.040   6.555   0.541  0.00  0.00    +0.031 C 
ATOM     23  C   UNL     1      -0.310   6.213  -1.533  0.00  0.00    +0.031 C 
ATOM     24  C   UNL     1      -1.405   6.066   0.708  0.00  0.00    +0.031 C 
ENDBRANCH   6  21
BRANCH   9  25
ATOM     25  C   UNL     1       0.082   0.364  -1.664  0.00  0.00    +0.348 C 
ATOM     26  O   UNL     1      -0.102   1.194  -2.523  0.00  0.00    -0.248 OA
ATOM     27  O   UNL     1       0.567  -0.844  -1.991  0.00  0.00    -0.248 OA
ENDBRANCH   9  25
BRANCH   9  28
ATOM     28  C   UNL     1      -1.599   0.128   0.173  0.00  0.00    +0.155 C 
BRANCH  28  29
ATOM     29  O   UNL     1      -1.589  -1.295   0.041  0.00  0.00    -0.396 OA
ATOM     30  H   UNL     1      -2.426  -1.718   0.278  0.00  0.00    +0.209 HD
ENDBRANCH  28  29
ENDBRANCH   9  28
TORSDOF 5
