REMARK  Name = ZINC67309888
REMARK  10 active torsions:
REMARK  status: ('A' for Active; 'I' for Inactive)
REMARK    1  A    between atoms: C_1  and  C_2
REMARK    2  A    between atoms: C_2  and  O_3
REMARK    3  A    between atoms: O_3  and  C_4
REMARK    4  A    between atoms: C_4  and  C_5
REMARK    5  A    between atoms: C_5  and  C_6
REMARK    6  A    between atoms: C_6  and  N_7
REMARK    7  A    between atoms: N_10  and  N_11
REMARK    8  A    between atoms: C_12  and  C_14
REMARK    9  A    between atoms: N_22  and  C_23
REMARK   10  A    between atoms: N_22  and  C_24
REMARK                            x       y       z     vdW  Elec       q    Type
REMARK                         _______ _______ _______ _____ _____    ______ ____
ROOT
ATOM      1  N   UNL     1       3.567  -4.778  -6.221  0.00  0.00    -0.229 N 
ATOM      2  C   UNL     1       4.212  -5.110  -7.357  0.00  0.00    +0.267 C 
ATOM      3  O   UNL     1       4.383  -6.282  -7.639  0.00  0.00    -0.268 OA
ATOM      4  H   UNL     1       3.430  -3.844  -5.997  0.00  0.00    +0.173 HD
ENDROOT
BRANCH   2   5
ATOM      5  C   UNL     1       4.705  -4.064  -8.250  0.00  0.00    +0.078 A 
ATOM      6  C   UNL     1       5.378  -4.197  -9.450  0.00  0.00    +0.038 A 
ATOM      7  C   UNL     1       5.755  -3.064 -10.136  0.00  0.00    +0.049 A 
ATOM      8  C   UNL     1       5.432  -1.815  -9.573  0.00  0.00    +0.118 A 
ATOM      9  S   UNL     1       4.585  -2.295  -8.071  0.00  0.00    -0.063 S 
ATOM     10  N   UNL     1       5.797  -0.725 -10.237  0.00  0.00    -0.218 NA
ATOM     11  C   UNL     1       6.441  -0.787 -11.386  0.00  0.00    +0.162 A 
ATOM     12  S   UNL     1       6.590  -2.549 -11.634  0.00  0.00    -0.052 S 
ATOM     13  N   UNL     1       6.884   0.244 -12.189  0.00  0.00    -0.316 N 
ATOM     14  C   UNL     1       6.654   1.635 -11.790  0.00  0.00    +0.131 C 
ATOM     15  C   UNL     1       7.586  -0.052 -13.440  0.00  0.00    +0.131 C 
ENDBRANCH   2   5
BRANCH   1  19
ATOM     16  N   UNL     1       2.259  -4.151  -3.917  0.00  0.00    -0.298 N 
ATOM     17  C   UNL     1       2.449  -5.448  -4.229  0.00  0.00    +0.316 C 
ATOM     18  O   UNL     1       2.038  -6.318  -3.486  0.00  0.00    -0.251 OA
ATOM     19  N   UNL     1       3.094  -5.781  -5.365  0.00  0.00    -0.218 N 
ATOM     20  H   UNL     1       2.587  -3.456  -4.510  0.00  0.00    +0.150 HD
ATOM     21  H   UNL     1       3.230  -6.714  -5.590  0.00  0.00    +0.174 HD
BRANCH  16  22
ATOM     22  C   UNL     1       1.558  -3.789  -2.683  0.00  0.00    +0.108 C 
BRANCH  22  23
ATOM     23  C   UNL     1       1.478  -2.265  -2.569  0.00  0.00    +0.047 C 
BRANCH  23  24
ATOM     24  C   UNL     1       0.746  -1.888  -1.280  0.00  0.00    +0.161 C 
BRANCH  24  25
ATOM     25  O   UNL     1       0.671  -0.465  -1.174  0.00  0.00    -0.380 OA
BRANCH  25  27
ATOM     26  C   UNL     1      -0.019   1.526   0.010  0.00  0.00    +0.034 C 
ATOM     27  C   UNL     1       0.002  -0.004   0.002  0.00  0.00    +0.156 C 
ENDBRANCH  25  27
ENDBRANCH  24  25
ENDBRANCH  23  24
ENDBRANCH  22  23
ENDBRANCH  16  22
ENDBRANCH   1  19
TORSDOF 7
