REMARK  Name = ZINC47963480
REMARK  8 active torsions:
REMARK  status: ('A' for Active; 'I' for Inactive)
REMARK    1  A    between atoms: C_1  and  C_2
REMARK    2  A    between atoms: C_2  and  C_4
REMARK    3  A    between atoms: C_2  and  N_7
REMARK    4  A    between atoms: C_4  and  C_5
REMARK    5  A    between atoms: C_4  and  C_6
REMARK    6  A    between atoms: C_8  and  C_10
REMARK    7  A    between atoms: N_12  and  C_13
REMARK    8  A    between atoms: C_14  and  C_22
REMARK                            x       y       z     vdW  Elec       q    Type
REMARK                         _______ _______ _______ _____ _____    ______ ____
ROOT
ATOM      1  C   UNL     1       2.776  -1.094   2.383  0.00  0.00    +0.304 C 
ATOM      2  O   UNL     1       2.153  -1.397   3.380  0.00  0.00    -0.265 OA
ATOM      3  N   UNL     1       4.119  -1.205   2.368  0.00  0.00    -0.271 N 
ATOM      4  H   UNL     1       4.616  -0.963   1.571  0.00  0.00    +0.156 HD
ENDROOT
BRANCH   3   5
ATOM      5  C   UNL     1       4.789  -1.663   3.490  0.00  0.00    +0.090 A 
ATOM      6  C   UNL     1       6.154  -1.843   3.678  0.00  0.00    +0.084 A 
ATOM      7  C   UNL     1       6.601  -2.343   4.966  0.00  0.00    -0.018 A 
ATOM      8  C   UNL     1       5.635  -2.594   5.878  0.00  0.00    -0.004 A 
ATOM      9  S   UNL     1       4.120  -2.168   5.065  0.00  0.00    -0.077 S 
ATOM     10  C   UNL     1       5.816  -3.112   7.272  0.00  0.00    +0.043 C 
ATOM     11  C   UNL     1       7.239  -3.674   7.398  0.00  0.00    +0.005 C 
ATOM     12  C   UNL     1       8.224  -2.653   6.821  0.00  0.00    +0.005 C 
ATOM     13  C   UNL     1       8.070  -2.583   5.302  0.00  0.00    +0.037 C 
BRANCH   6  14
ATOM     14  C   UNL     1       7.089  -1.543   2.635  0.00  0.00    +0.102 C 
ATOM     15  N   UNL     1       7.831  -1.306   1.809  0.00  0.00    -0.191 NA
ENDBRANCH   6  14
ENDBRANCH   3   5
BRANCH   1  17
ATOM     16  N   UNL     1       0.711  -0.489   1.189  0.00  0.00    -0.305 N 
ATOM     17  C   UNL     1       2.054  -0.600   1.174  0.00  0.00    +0.300 C 
ATOM     18  O   UNL     1       2.676  -0.297   0.177  0.00  0.00    -0.265 OA
ATOM     19  H   UNL     1       0.213  -0.731   1.986  0.00  0.00    +0.149 HD
BRANCH  16  21
ATOM     20  C   UNL     1      -0.019   1.526   0.010  0.00  0.00    +0.028 C 
ATOM     21  C   UNL     1       0.002  -0.004   0.002  0.00  0.00    +0.073 C 
BRANCH  21  22
ATOM     22  C   UNL     1      -1.433  -0.534   0.013  0.00  0.00    +0.003 C 
ATOM     23  C   UNL     1      -2.187   0.060   1.205  0.00  0.00    +0.009 C 
ATOM     24  C   UNL     1      -2.135  -0.131  -1.286  0.00  0.00    +0.009 C 
ENDBRANCH  21  22
ENDBRANCH  16  21
ENDBRANCH   1  17
TORSDOF 5
