REMARK  Name = ZINC00226612
REMARK  4 active torsions:
REMARK  status: ('A' for Active; 'I' for Inactive)
REMARK    1  A    between atoms: C_4  and  N_8
REMARK    2  A    between atoms: C_5  and  N_7
REMARK    3  A    between atoms: C_9  and  C_10
REMARK    4  A    between atoms: C_15  and  O_16
REMARK                            x       y       z     vdW  Elec       q    Type
REMARK                         _______ _______ _______ _____ _____    ______ ____
ROOT
ATOM      1  N   UNL     1       4.809  -0.022  -0.044  0.00  0.00    -0.253 NA
ATOM      2  C   UNL     1       3.688  -0.684   0.023  0.00  0.00    +0.123 C 
ENDROOT
BRANCH   2   3
ATOM      3  C   UNL     1       2.410   0.012  -0.187  0.00  0.00    +0.037 A 
ATOM      4  C   UNL     1       1.204  -0.694  -0.117  0.00  0.00    +0.028 A 
ATOM      5  C   UNL     1       0.009  -0.035  -0.315  0.00  0.00    +0.020 A 
ATOM      6  C   UNL     1      -0.003   1.325  -0.584  0.00  0.00    +0.039 A 
ATOM      7  C   UNL     1       1.181   2.035  -0.656  0.00  0.00    +0.084 A 
ATOM      8  C   UNL     1       2.392   1.388  -0.460  0.00  0.00    +0.144 A 
ATOM      9 CL   UNL     1       1.152   3.737  -0.994  0.00  0.00    -0.080 Cl
ATOM     10 BR   UNL     1      -1.620  -0.990  -0.218  0.00  0.00    -0.050 Br
BRANCH   8  11
ATOM     11  O   UNL     1       3.556   2.084  -0.531  0.00  0.00    -0.505 OA
ATOM     12  H   UNL     1       3.942   2.115  -1.417  0.00  0.00    +0.292 HD
ENDBRANCH   8  11
ENDBRANCH   2   3
BRANCH   1  16
ATOM     13  C   UNL     1       8.419  -2.035   0.224  0.00  0.00    +0.002 A 
ATOM     14  C   UNL     1       7.433  -2.493  -0.632  0.00  0.00    +0.002 A 
ATOM     15  C   UNL     1       6.226  -1.830  -0.723  0.00  0.00    +0.029 A 
ATOM     16  C   UNL     1       6.002  -0.686   0.045  0.00  0.00    +0.084 A 
ATOM     17  C   UNL     1       7.003  -0.225   0.912  0.00  0.00    +0.050 A 
ATOM     18  C   UNL     1       8.208  -0.907   0.994  0.00  0.00    +0.025 A 
BRANCH  17  19
ATOM     19  N   UNL     1       6.788   0.913   1.689  0.00  0.00    -0.356 N 
ATOM     20  H   UNL     1       5.944   1.388   1.631  0.00  0.00    +0.142 HD
ATOM     21  H   UNL     1       7.482   1.230   2.288  0.00  0.00    +0.142 HD
ENDBRANCH  17  19
ENDBRANCH   1  16
TORSDOF 4
