REMARK  Name = ZINC65510313
REMARK  8 active torsions:
REMARK  status: ('A' for Active; 'I' for Inactive)
REMARK    1  A    between atoms: C_4  and  N_22
REMARK    2  A    between atoms: C_5  and  C_7
REMARK    3  A    between atoms: C_7  and  N_8
REMARK    4  A    between atoms: N_11  and  C_12
REMARK    5  A    between atoms: C_12  and  C_13
REMARK    6  A    between atoms: C_13  and  C_14
REMARK    7  A    between atoms: C_14  and  N_15
REMARK    8  A    between atoms: N_15  and  C_16
REMARK                            x       y       z     vdW  Elec       q    Type
REMARK                         _______ _______ _______ _____ _____    ______ ____
ROOT
ATOM      1  N   UNL     1       1.486  -2.680   1.333  0.00  0.00    -0.295 N 
ATOM      2  C   UNL     1       1.549  -4.005   1.567  0.00  0.00    +0.300 C 
ATOM      3  O   UNL     1       1.389  -4.792   0.654  0.00  0.00    -0.253 OA
ATOM      4  N   UNL     1       1.788  -4.459   2.814  0.00  0.00    -0.299 N 
ATOM      5  H   UNL     1       1.613  -2.052   2.061  0.00  0.00    +0.151 HD
ATOM      6  H   UNL     1       1.915  -3.831   3.542  0.00  0.00    +0.150 HD
ENDROOT
BRANCH   1   7
ATOM      7  C   UNL     1       1.226  -2.187  -0.022  0.00  0.00    +0.143 C 
BRANCH   7  12
ATOM      8  C   UNL     1      -0.017   1.378   0.010  0.00  0.00    +0.000 A 
ATOM      9  C   UNL     1       1.170   2.089   0.002  0.00  0.00    +0.002 A 
ATOM     10  C   UNL     1       2.377   1.419  -0.013  0.00  0.00    +0.028 A 
ATOM     11  C   UNL     1       2.399   0.031  -0.021  0.00  0.00    +0.070 A 
ATOM     12  C   UNL     1       1.207  -0.680  -0.013  0.00  0.00    -0.005 A 
ATOM     13  C   UNL     1       0.002  -0.004   0.002  0.00  0.00    +0.007 A 
BRANCH  11  14
ATOM     14  N   UNL     1       3.624  -0.652  -0.037  0.00  0.00    -0.240 N 
ATOM     15  C   UNL     1       4.851  -0.085  -0.042  0.00  0.00    +0.114 A 
ATOM     16  C   UNL     1       5.765  -1.083  -0.058  0.00  0.00    +0.041 A 
ATOM     17  C   UNL     1       5.075  -2.300  -0.064  0.00  0.00    +0.135 A 
ATOM     18  N   UNL     1       3.792  -2.043  -0.046  0.00  0.00    -0.175 NA
ENDBRANCH  11  14
ENDBRANCH   7  12
ENDBRANCH   1   7
BRANCH   4  19
ATOM     19  C   UNL     1       1.856  -5.900   3.068  0.00  0.00    +0.104 C 
BRANCH  19  20
ATOM     20  C   UNL     1       2.136  -6.143   4.553  0.00  0.00    -0.000 C 
BRANCH  20  21
ATOM     21  C   UNL     1       2.207  -7.648   4.819  0.00  0.00    -0.081 C 
BRANCH  21  22
ATOM     22  N   UNL     1       2.477  -7.881   6.244  0.00  0.00    +0.381 N 
ATOM     23  H   UNL     1       3.356  -7.453   6.494  0.00  0.00    -0.086 HD
ATOM     24  H   UNL     1       1.736  -7.476   6.797  0.00  0.00    -0.086 HD
BRANCH  22  25
ATOM     25  C   UNL     1       2.545  -9.326   6.499  0.00  0.00    -0.072 C 
ATOM     26  C   UNL     1       1.175  -9.955   6.238  0.00  0.00    -0.016 C 
ATOM     27  C   UNL     1       1.246 -11.460   6.504  0.00  0.00    -0.002 C 
ATOM     28  C   UNL     1       1.649 -11.702   7.960  0.00  0.00    -0.000 C 
ATOM     29  C   UNL     1       3.019 -11.073   8.221  0.00  0.00    -0.002 C 
ATOM     30  C   UNL     1       2.948  -9.568   7.955  0.00  0.00    -0.016 C 
ENDBRANCH  22  25
ENDBRANCH  21  22
ENDBRANCH  20  21
ENDBRANCH  19  20
ENDBRANCH   4  19
TORSDOF 8
