REMARK  Name = ZINC39395896
REMARK  7 active torsions:
REMARK  status: ('A' for Active; 'I' for Inactive)
REMARK    1  A    between atoms: C_1  and  C_2
REMARK    2  A    between atoms: C_2  and  O_3
REMARK    3  A    between atoms: O_3  and  C_4
REMARK    4  A    between atoms: C_4  and  C_6
REMARK    5  A    between atoms: C_7  and  N_27
REMARK    6  A    between atoms: C_11  and  C_26
REMARK    7  A    between atoms: C_17  and  C_19
REMARK                            x       y       z     vdW  Elec       q    Type
REMARK                         _______ _______ _______ _____ _____    ______ ____
ROOT
ATOM      1  C   UNL     1       1.426  -2.323  -2.465  0.00  0.00    +0.102 C 
ATOM      2  C   UNL     1       1.597  -3.663  -2.554  0.00  0.00    +0.194 C 
ATOM      3  O   UNL     1       2.182  -4.253  -3.618  0.00  0.00    -0.445 OA
ATOM      4  C   UNL     1       2.790  -3.437  -4.508  0.00  0.00    +0.122 C 
ATOM      5  C   UNL     1       3.965  -3.774  -5.069  0.00  0.00    +0.063 C 
ATOM      6  C   UNL     1       4.604  -2.915  -5.969  0.00  0.00    +0.034 C 
ATOM      7  N   UNL     1       4.083  -1.750  -6.285  0.00  0.00    -0.185 NA
ATOM      8  C   UNL     1       2.930  -1.323  -5.788  0.00  0.00    +0.248 C 
ATOM      9  O   UNL     1       2.530  -0.223  -6.114  0.00  0.00    -0.273 OA
ATOM     10  C   UNL     1       2.100  -2.137  -4.843  0.00  0.00    +0.155 C 
ATOM     11  C   UNL     1       1.889  -1.370  -3.534  0.00  0.00    +0.082 C 
ATOM     12  C   UNL     1       5.915  -3.331  -6.586  0.00  0.00    +0.063 C 
ENDROOT
BRANCH  11  13
ATOM     13  C   UNL     1       0.848  -0.299  -3.738  0.00  0.00    -0.020 A 
ATOM     14  C   UNL     1      -0.434  -0.646  -4.125  0.00  0.00    +0.006 A 
ATOM     15  C   UNL     1      -1.389   0.336  -4.312  0.00  0.00    +0.000 A 
ATOM     16  C   UNL     1      -1.063   1.665  -4.112  0.00  0.00    +0.001 A 
ATOM     17  C   UNL     1       0.217   2.012  -3.725  0.00  0.00    +0.020 A 
ATOM     18  C   UNL     1       1.172   1.030  -3.533  0.00  0.00    +0.045 A 
ATOM     19 CL   UNL     1       2.779   1.465  -3.040  0.00  0.00    -0.083 Cl
ENDBRANCH  11  13
BRANCH   2  20
ATOM     20  N   UNL     1       1.158  -4.450  -1.523  0.00  0.00    -0.329 N 
ATOM     21  H   UNL     1       0.667  -4.056  -0.786  0.00  0.00    +0.145 HD
ATOM     22  H   UNL     1       1.338  -5.404  -1.531  0.00  0.00    +0.145 HD
ENDBRANCH   2  20
BRANCH   1  23
ATOM     23  C   UNL     1       0.787  -1.801  -1.330  0.00  0.00    +0.341 C 
ATOM     24  O   UNL     1       1.443  -1.278  -0.447  0.00  0.00    -0.245 OA
BRANCH  23  25
ATOM     25  O   UNL     1      -0.557  -1.877  -1.217  0.00  0.00    -0.462 OA
BRANCH  25  27
ATOM     26  C   UNL     1      -2.660  -1.505  -0.085  0.00  0.00    +0.048 C 
ATOM     27  C   UNL     1      -1.141  -1.326  -0.035  0.00  0.00    +0.229 C 
ENDBRANCH  25  27
ENDBRANCH  23  25
ENDBRANCH   1  23
TORSDOF 5
