REMARK  Name = ZINC39847100
REMARK  4 active torsions:
REMARK  status: ('A' for Active; 'I' for Inactive)
REMARK    1  A    between atoms: C_1  and  C_2
REMARK    2  A    between atoms: C_6  and  N_8
REMARK    3  A    between atoms: C_13  and  C_16
REMARK    4  A    between atoms: C_16  and  C_17
REMARK                            x       y       z     vdW  Elec       q    Type
REMARK                         _______ _______ _______ _____ _____    ______ ____
ROOT
ATOM      1  N   UNL     1       0.051  -2.832   2.297  0.00  0.00    -0.207 NA
ATOM      2  C   UNL     1       0.068  -4.146   2.257  0.00  0.00    +0.163 C 
ATOM      3  N   UNL     1       0.079  -5.029   3.314  0.00  0.00    -0.264 N 
ATOM      4  C   UNL     1       0.096  -6.340   3.144  0.00  0.00    +0.232 C 
ATOM      5  O   UNL     1       0.105  -7.111   4.079  0.00  0.00    -0.274 OA
ATOM      6  C   UNL     1       0.103  -6.820   1.701  0.00  0.00    +0.144 C 
ATOM      7  S   UNL     1       0.076  -5.205   0.818  0.00  0.00    -0.077 S 
ATOM      8  H   UNL     1       0.073  -4.676   4.217  0.00  0.00    +0.157 HD
ENDROOT
BRANCH   1  14
ATOM      9  C   UNL     1      -0.018   1.503   0.010  0.00  0.00    +0.044 C 
ATOM     10  C   UNL     1       0.002  -0.004   0.002  0.00  0.00    -0.046 A 
ATOM     11  C   UNL     1       0.006  -0.707  -1.197  0.00  0.00    +0.023 A 
ATOM     12  C   UNL     1       0.025  -2.088  -1.174  0.00  0.00    +0.113 A 
ATOM     13  N   UNL     1       0.040  -2.747  -0.032  0.00  0.00    -0.236 NA
ATOM     14  C   UNL     1       0.036  -2.114   1.137  0.00  0.00    +0.155 A 
ATOM     15  C   UNL     1       0.023  -0.716   1.185  0.00  0.00    +0.051 A 
ENDBRANCH   1  14
BRANCH   6  16
ATOM     16  C   UNL     1      -1.148  -7.642   1.384  0.00  0.00    +0.062 C 
BRANCH  16  17
ATOM     17  C   UNL     1      -1.042  -8.199  -0.013  0.00  0.00    -0.011 A 
ATOM     18  C   UNL     1      -1.615  -7.521  -1.072  0.00  0.00    +0.006 A 
ATOM     19  C   UNL     1      -1.518  -8.031  -2.353  0.00  0.00    +0.000 A 
ATOM     20  C   UNL     1      -0.848  -9.220  -2.576  0.00  0.00    +0.003 A 
ATOM     21  C   UNL     1      -0.275  -9.899  -1.519  0.00  0.00    +0.038 A 
ATOM     22  C   UNL     1      -0.366  -9.386  -0.236  0.00  0.00    +0.127 A 
ATOM     23  F   UNL     1       0.198 -10.047   0.799  0.00  0.00    -0.205 F 
ENDBRANCH  16  17
ENDBRANCH   6  16
TORSDOF 3
