REMARK  Name = ZINC48950593
REMARK  4 active torsions:
REMARK  status: ('A' for Active; 'I' for Inactive)
REMARK    1  A    between atoms: C_1  and  C_2
REMARK    2  A    between atoms: C_10  and  C_11
REMARK    3  A    between atoms: N_13  and  N_14
REMARK    4  A    between atoms: N_17  and  C_18
REMARK                            x       y       z     vdW  Elec       q    Type
REMARK                         _______ _______ _______ _____ _____    ______ ____
ROOT
ATOM      1  C   UNL     1       0.032  -0.382   2.484  0.00  0.00    +0.296 C 
ATOM      2  O   UNL     1       0.018   0.806   2.745  0.00  0.00    -0.265 OA
ATOM      3  N   UNL     1       0.054  -1.291   3.479  0.00  0.00    -0.227 N 
ATOM      4  H   UNL     1       0.065  -2.238   3.270  0.00  0.00    +0.173 HD
ENDROOT
BRANCH   1  14
ATOM      5  C   UNL     1      -0.018   1.503   0.010  0.00  0.00    +0.048 C 
ATOM      6  C   UNL     1       0.002  -0.004   0.002  0.00  0.00    +0.008 A 
ATOM      7  C   UNL     1       0.009  -0.877  -1.171  0.00  0.00    +0.024 A 
ATOM      8  C   UNL     1      -0.000  -0.654  -2.551  0.00  0.00    +0.012 A 
ATOM      9  C   UNL     1       0.010  -1.718  -3.408  0.00  0.00    +0.001 A 
ATOM     10  C   UNL     1       0.030  -3.017  -2.918  0.00  0.00    +0.004 A 
ATOM     11  C   UNL     1       0.039  -3.257  -1.561  0.00  0.00    +0.047 A 
ATOM     12  C   UNL     1       0.029  -2.191  -0.669  0.00  0.00    +0.136 A 
ATOM     13  O   UNL     1       0.034  -2.113   0.676  0.00  0.00    -0.450 OA
ATOM     14  C   UNL     1       0.024  -0.826   1.083  0.00  0.00    +0.195 A 
ENDBRANCH   1  14
BRANCH   3  15
ATOM     15  N   UNL     1       0.061  -0.867   4.814  0.00  0.00    -0.218 N 
ATOM     16  C   UNL     1       0.084  -1.776   5.809  0.00  0.00    +0.316 C 
ATOM     17  O   UNL     1       0.090  -1.408   6.968  0.00  0.00    -0.251 OA
ATOM     18  N   UNL     1       0.099  -3.092   5.520  0.00  0.00    -0.301 N 
ATOM     19  C   UNL     1       0.123  -4.080   6.601  0.00  0.00    +0.129 C 
ATOM     20  H   UNL     1       0.051   0.080   5.022  0.00  0.00    +0.174 HD
ATOM     21  H   UNL     1       0.094  -3.385   4.595  0.00  0.00    +0.150 HD
ENDBRANCH   3  15
TORSDOF 2
