REMARK  Name = ZINC27240181
REMARK  7 active torsions:
REMARK  status: ('A' for Active; 'I' for Inactive)
REMARK    1  A    between atoms: C_1  and  C_2
REMARK    2  A    between atoms: C_2  and  O_3
REMARK    3  A    between atoms: O_3  and  C_4
REMARK    4  A    between atoms: C_4  and  C_6
REMARK    5  A    between atoms: C_7  and  C_19
REMARK    6  A    between atoms: C_12  and  C_14
REMARK    7  A    between atoms: C_19  and  N_20
REMARK                            x       y       z     vdW  Elec       q    Type
REMARK                         _______ _______ _______ _____ _____    ______ ____
ROOT
ATOM      1  C   UNL     1      -5.465  -0.305  -1.860  0.00  0.00    +0.083 C 
ATOM      2  C   UNL     1      -5.570   0.927  -1.317  0.00  0.00    +0.044 C 
ATOM      3  N   UNL     1      -5.929   2.003  -2.077  0.00  0.00    -0.271 N 
ATOM      4  C   UNL     1      -6.205   1.930  -3.385  0.00  0.00    +0.304 C 
ATOM      5  O   UNL     1      -6.517   2.944  -3.978  0.00  0.00    -0.252 OA
ATOM      6  N   UNL     1      -6.149   0.768  -4.066  0.00  0.00    -0.285 N 
ATOM      7  C   UNL     1      -5.770  -0.454  -3.336  0.00  0.00    +0.179 C 
ATOM      8  H   UNL     1      -6.006   3.000  -1.618  0.00  0.00    +0.156 HD
ATOM      9  H   UNL     1      -6.378   0.718  -5.141  0.00  0.00    +0.151 HD
ENDROOT
BRANCH   7  10
ATOM     10  C   UNL     1      -6.892  -1.450  -3.484  0.00  0.00    +0.130 A 
ATOM     11  C   UNL     1      -6.748  -2.773  -3.680  0.00  0.00    +0.047 A 
ATOM     12  C   UNL     1      -8.050  -3.319  -3.762  0.00  0.00    +0.041 A 
ATOM     13  C   UNL     1      -8.911  -2.296  -3.610  0.00  0.00    +0.195 A 
ATOM     14  O   UNL     1      -8.204  -1.168  -3.437  0.00  0.00    -0.466 OA
ENDBRANCH   7  10
BRANCH   1  15
ATOM     15  C   UNL     1      -5.087  -1.420  -1.075  0.00  0.00    +0.339 C 
ATOM     16  O   UNL     1      -3.954  -1.859  -1.147  0.00  0.00    -0.245 OA
BRANCH  15  17
ATOM     17  O   UNL     1      -5.982  -1.997  -0.247  0.00  0.00    -0.462 OA
BRANCH  17  19
ATOM     18  C   UNL     1      -6.678  -3.635   1.389  0.00  0.00    +0.048 C 
ATOM     19  C   UNL     1      -5.532  -3.119   0.515  0.00  0.00    +0.229 C 
ENDBRANCH  17  19
ENDBRANCH  15  17
ENDBRANCH   1  15
BRANCH   2  20
ATOM     20  C   UNL     1      -5.280   1.118   0.149  0.00  0.00    +0.177 C 
BRANCH  20  21
ATOM     21  N   UNL     1      -4.108   1.982   0.307  0.00  0.00    -0.293 N 
ATOM     22  C   UNL     1      -4.270   3.328   0.394  0.00  0.00    +0.203 A 
ATOM     23  N   UNL     1      -3.283   4.159   0.534  0.00  0.00    -0.237 NA
ATOM     24  C   UNL     1      -1.997   3.731   0.605  0.00  0.00    +0.078 A 
ATOM     25  C   UNL     1      -0.935   4.624   0.756  0.00  0.00    +0.029 A 
ATOM     26  C   UNL     1       0.354   4.146   0.824  0.00  0.00    +0.017 A 
ATOM     27  C   UNL     1       0.613   2.783   0.743  0.00  0.00    +0.019 A 
ATOM     28  C   UNL     1      -0.419   1.882   0.593  0.00  0.00    +0.030 A 
ATOM     29  C   UNL     1      -1.731   2.346   0.517  0.00  0.00    +0.066 A 
ATOM     30  C   UNL     1      -2.872   1.432   0.364  0.00  0.00    +0.262 A 
ATOM     31  O   UNL     1      -2.712   0.228   0.288  0.00  0.00    -0.267 OA
ATOM     32 BR   UNL     1       2.395   2.159   0.840  0.00  0.00    -0.050 Br
ENDBRANCH  20  21
ENDBRANCH   2  20
TORSDOF 6
