REMARK  Name = ZINC65372738
REMARK  8 active torsions:
REMARK  status: ('A' for Active; 'I' for Inactive)
REMARK    1  A    between atoms: C_1  and  C_2
REMARK    2  A    between atoms: C_2  and  C_3
REMARK    3  A    between atoms: C_2  and  C_4
REMARK    4  A    between atoms: C_4  and  C_5
REMARK    5  A    between atoms: C_7  and  C_19
REMARK    6  A    between atoms: N_9  and  C_11
REMARK    7  A    between atoms: C_16  and  O_17
REMARK    8  A    between atoms: O_17  and  C_18
REMARK                            x       y       z     vdW  Elec       q    Type
REMARK                         _______ _______ _______ _____ _____    ______ ____
ROOT
ATOM      1  C   UNL     1      -1.416  -2.035  -0.119  0.00  0.00    +0.086 C 
ATOM      2  N   UNL     1      -1.445  -2.653  -1.248  0.00  0.00    -0.351 N 
ATOM      3  C   UNL     1      -1.414  -4.099  -0.989  0.00  0.00    +0.235 C 
ATOM      4  N   UNL     1      -1.363  -4.213   0.479  0.00  0.00    -0.221 N 
ATOM      5  N   UNL     1      -1.362  -2.887   0.943  0.00  0.00    -0.251 N 
ATOM      6  H   UNL     1      -1.329  -2.620   1.875  0.00  0.00    +0.171 HD
ATOM      7  H   UNL     1      -1.482  -2.235  -2.122  0.00  0.00    +0.163 HD
ENDROOT
BRANCH   3   8
ATOM      8  C   UNL     1      -0.189  -4.718  -1.611  0.00  0.00    +0.068 A 
ATOM      9  N   UNL     1       1.058  -4.288  -1.247  0.00  0.00    -0.308 N 
ATOM     10  C   UNL     1       2.159  -4.834  -1.796  0.00  0.00    +0.327 A 
ATOM     11  O   UNL     1       3.257  -4.436  -1.458  0.00  0.00    -0.247 OA
ATOM     12  N   UNL     1       2.061  -5.815  -2.712  0.00  0.00    -0.275 N 
ATOM     13  C   UNL     1       0.850  -6.268  -3.096  0.00  0.00    +0.254 A 
ATOM     14  O   UNL     1       0.761  -7.156  -3.925  0.00  0.00    -0.268 OA
ATOM     15  C   UNL     1      -0.316  -5.705  -2.524  0.00  0.00    +0.095 A 
ATOM     16  H   UNL     1       2.865  -6.198  -3.097  0.00  0.00    +0.173 HD
ATOM     17  H   UNL     1       1.149  -3.581  -0.589  0.00  0.00    +0.170 HD
ENDBRANCH   3   8
BRANCH   4  18
ATOM     18  C   UNL     1      -1.319  -5.385   1.243  0.00  0.00    +0.092 A 
ATOM     19  C   UNL     1      -0.325  -6.326   1.017  0.00  0.00    +0.028 A 
ATOM     20  C   UNL     1      -0.284  -7.482   1.773  0.00  0.00    +0.002 A 
ATOM     21  C   UNL     1      -1.232  -7.704   2.755  0.00  0.00    +0.004 A 
ATOM     22  C   UNL     1      -2.225  -6.770   2.986  0.00  0.00    +0.047 A 
ATOM     23  C   UNL     1      -2.270  -5.606   2.237  0.00  0.00    +0.143 A 
BRANCH  23  24
ATOM     24  O   UNL     1      -3.243  -4.684   2.467  0.00  0.00    -0.493 OA
ATOM     25  C   UNL     1      -4.183  -4.978   3.502  0.00  0.00    +0.277 C 
ENDBRANCH  23  24
ENDBRANCH   4  18
BRANCH   1  26
ATOM     26  C   UNL     1      -1.433  -0.534   0.013  0.00  0.00    +0.073 C 
BRANCH  26  28
ATOM     27  C   UNL     1      -0.019   1.526   0.010  0.00  0.00    +0.007 C 
ATOM     28  C   UNL     1       0.002  -0.004   0.002  0.00  0.00    -0.010 C 
ATOM     29  C   UNL     1       0.742  -0.511   1.242  0.00  0.00    +0.007 C 
ENDBRANCH  26  28
ENDBRANCH   1  26
TORSDOF 5
