REMARK  Name = ZINC13591645
REMARK  10 active torsions:
REMARK  status: ('A' for Active; 'I' for Inactive)
REMARK    1  A    between atoms: C_1  and  O_2
REMARK    2  A    between atoms: O_2  and  C_3
REMARK    3  A    between atoms: C_6  and  O_33
REMARK    4  A    between atoms: C_7  and  N_9
REMARK    5  A    between atoms: C_10  and  C_12
REMARK    6  A    between atoms: C_15  and  C_29
REMARK    7  A    between atoms: C_29  and  C_30
REMARK    8  A    between atoms: C_30  and  S_31
REMARK    9  A    between atoms: S_31  and  C_32
REMARK   10  A    between atoms: O_33  and  C_34
REMARK                            x       y       z     vdW  Elec       q    Type
REMARK                         _______ _______ _______ _____ _____    ______ ____
ROOT
ATOM      1  C   UNL     1      -1.675  -6.282   0.024  0.00  0.00    +0.110 C 
ATOM      2  C   UNL     1      -2.347  -6.755  -1.288  0.00  0.00    +0.034 C 
ATOM      3  C   UNL     1      -1.141  -7.195  -2.156  0.00  0.00    +0.056 C 
ATOM      4  N   UNL     1      -0.215  -7.812  -1.170  0.00  0.00    -0.296 NA
ATOM      5  C   UNL     1      -0.309  -6.978   0.042  0.00  0.00    +0.135 C 
ATOM      6  C   UNL     1       0.810  -5.973   0.099  0.00  0.00    +0.004 A 
ATOM      7  C   UNL     1       1.199  -4.945  -0.731  0.00  0.00    +0.023 A 
ATOM      8  C   UNL     1       2.301  -4.173  -0.405  0.00  0.00    +0.018 A 
ATOM      9  C   UNL     1       3.008  -4.437   0.755  0.00  0.00    +0.017 A 
ATOM     10  C   UNL     1       2.620  -5.465   1.588  0.00  0.00    +0.025 A 
ATOM     11  C   UNL     1       1.512  -6.247   1.268  0.00  0.00    +0.039 A 
ATOM     12  N   UNL     1       0.930  -7.324   1.939  0.00  0.00    -0.283 N 
ATOM     13  C   UNL     1      -0.143  -7.809   1.288  0.00  0.00    +0.243 C 
ATOM     14  O   UNL     1      -0.842  -8.737   1.636  0.00  0.00    -0.273 OA
ATOM     15 BR   UNL     1       2.839  -2.761  -1.543  0.00  0.00    -0.050 Br
ATOM     16  H   UNL     1      -0.479  -8.765  -0.973  0.00  0.00    +0.123 HD
ATOM     17  H   UNL     1       1.261  -7.681   2.778  0.00  0.00    +0.155 HD
ENDROOT
BRANCH   1  19
ATOM     18  N   UNL     1      -1.331  -4.119   1.173  0.00  0.00    -0.282 N 
ATOM     19  C   UNL     1      -1.501  -4.785   0.014  0.00  0.00    +0.223 C 
ATOM     20  O   UNL     1      -1.514  -4.180  -1.037  0.00  0.00    -0.275 OA
ATOM     21  H   UNL     1      -1.241  -4.608   2.005  0.00  0.00    +0.155 HD
BRANCH  18  26
ATOM     22  C   UNL     1      -1.849  -0.616   0.162  0.00  0.00    +0.122 A 
ATOM     23  C   UNL     1      -1.192   0.053   1.185  0.00  0.00    +0.049 A 
ATOM     24  C   UNL     1      -0.583  -0.659   2.201  0.00  0.00    +0.051 A 
ATOM     25  C   UNL     1      -0.627  -2.043   2.201  0.00  0.00    +0.141 A 
ATOM     26  C   UNL     1      -1.286  -2.718   1.176  0.00  0.00    +0.079 A 
ATOM     27  C   UNL     1      -1.901  -2.001   0.160  0.00  0.00    +0.072 A 
BRANCH  22  29
ATOM     28  C   UNL     1      -2.355   1.512  -0.771  0.00  0.00    +0.277 C 
ATOM     29  O   UNL     1      -2.447   0.088  -0.836  0.00  0.00    -0.495 OA
ENDBRANCH  22  29
BRANCH  25  30
ATOM     30  O   UNL     1      -0.027  -2.744   3.201  0.00  0.00    -0.493 OA
ATOM     31  C   UNL     1       0.630  -1.986   4.219  0.00  0.00    +0.277 C 
ENDBRANCH  25  30
ENDBRANCH  18  26
ENDBRANCH   1  19
BRANCH   3  32
ATOM     32  C   UNL     1      -1.577  -8.219  -3.206  0.00  0.00    +0.029 C 
BRANCH  32  33
ATOM     33  C   UNL     1      -0.398  -8.540  -4.126  0.00  0.00    +0.070 C 
BRANCH  33  34
ATOM     34  S   UNL     1      -0.915  -9.754  -5.370  0.00  0.00    -0.164 S 
ATOM     35  C   UNL     1       0.577 -10.024  -6.367  0.00  0.00    +0.084 C 
ENDBRANCH  33  34
ENDBRANCH  32  33
ENDBRANCH   3  32
TORSDOF 7
