REMARK  Name = ZINC67214342
REMARK  9 active torsions:
REMARK  status: ('A' for Active; 'I' for Inactive)
REMARK    1  A    between atoms: C_1  and  C_2
REMARK    2  A    between atoms: N_5  and  C_11
REMARK    3  A    between atoms: C_7  and  C_10
REMARK    4  A    between atoms: C_14  and  C_18
REMARK    5  A    between atoms: C_18  and  N_19
REMARK    6  A    between atoms: N_19  and  C_20
REMARK    7  A    between atoms: C_20  and  C_21
REMARK    8  A    between atoms: N_23  and  C_30
REMARK    9  A    between atoms: N_26  and  C_29
REMARK                            x       y       z     vdW  Elec       q    Type
REMARK                         _______ _______ _______ _____ _____    ______ ____
ROOT
ATOM      1  C   UNL     1       2.795   0.528  -2.199  0.00  0.00    +0.066 A 
ATOM      2  C   UNL     1       2.817   1.915  -2.236  0.00  0.00    +0.026 A 
ATOM      3  C   UNL     1       3.462   2.567  -3.270  0.00  0.00    +0.004 A 
ATOM      4  C   UNL     1       4.085   1.840  -4.267  0.00  0.00    -0.062 A 
ATOM      5  C   UNL     1       4.065   0.457  -4.235  0.00  0.00    +0.042 A 
ATOM      6  C   UNL     1       3.427  -0.202  -3.200  0.00  0.00    +0.144 A 
ATOM      7  F   UNL     1       3.412  -1.552  -3.165  0.00  0.00    -0.204 F 
ENDROOT
BRANCH   1  11
ATOM      8  C   UNL     1      -0.019   1.526   0.010  0.00  0.00    +0.039 C 
ATOM      9  C   UNL     1       0.002  -0.004   0.002  0.00  0.00    +0.133 C 
ATOM     10  C   UNL     1       0.722  -0.499  -1.258  0.00  0.00    +0.136 C 
ATOM     11  N   UNL     1       2.143  -0.135  -1.154  0.00  0.00    -0.323 N 
ATOM     12  C   UNL     1       2.860  -0.488   0.082  0.00  0.00    +0.136 C 
ATOM     13  C   UNL     1       2.036   0.007   1.277  0.00  0.00    +0.133 C 
ATOM     14  O   UNL     1       0.695  -0.479   1.159  0.00  0.00    -0.371 OA
ATOM     15  C   UNL     1       2.656  -0.513   2.575  0.00  0.00    +0.039 C 
ENDBRANCH   1  11
BRANCH   4  16
ATOM     16  C   UNL     1       4.786   2.555  -5.393  0.00  0.00    -0.046 C 
BRANCH  16  17
ATOM     17  N   UNL     1       6.189   2.788  -5.026  0.00  0.00    +0.385 N 
ATOM     18  H   UNL     1       6.229   3.354  -4.191  0.00  0.00    -0.085 HD
ATOM     19  H   UNL     1       6.644   1.904  -4.854  0.00  0.00    -0.085 HD
BRANCH  17  20
ATOM     20  C   UNL     1       6.873   3.486  -6.123  0.00  0.00    -0.039 C 
BRANCH  20  21
ATOM     21  C   UNL     1       8.313   3.725  -5.746  0.00  0.00    +0.016 A 
ATOM     22  C   UNL     1       9.275   2.861  -6.136  0.00  0.00    +0.097 A 
ATOM     23  N   UNL     1      10.577   3.093  -5.785  0.00  0.00    -0.303 N 
ATOM     24  C   UNL     1      10.908   4.174  -5.056  0.00  0.00    +0.331 A 
ATOM     25  O   UNL     1      12.071   4.361  -4.755  0.00  0.00    -0.246 OA
ATOM     26  N   UNL     1       9.969   5.051  -4.654  0.00  0.00    -0.264 N 
ATOM     27  C   UNL     1       8.675   4.861  -4.984  0.00  0.00    +0.258 A 
ATOM     28  O   UNL     1       7.827   5.657  -4.625  0.00  0.00    -0.267 OA
ATOM     29  C   UNL     1      10.355   6.220  -3.860  0.00  0.00    +0.157 C 
ATOM     30  C   UNL     1      11.620   2.156  -6.208  0.00  0.00    +0.153 C 
ENDBRANCH  20  21
ENDBRANCH  17  20
ENDBRANCH  16  17
ENDBRANCH   4  16
TORSDOF 5
