REMARK  Name = ZINC67061187
REMARK  13 active torsions:
REMARK  status: ('A' for Active; 'I' for Inactive)
REMARK    1  A    between atoms: C_1  and  C_2
REMARK    2  A    between atoms: C_2  and  O_3
REMARK    3  A    between atoms: O_3  and  C_4
REMARK    4  A    between atoms: C_5  and  O_24
REMARK    5  A    between atoms: C_7  and  C_11
REMARK    6  A    between atoms: C_11  and  N_12
REMARK    7  A    between atoms: N_15  and  N_16
REMARK    8  A    between atoms: C_17  and  C_19
REMARK    9  A    between atoms: C_19  and  C_20
REMARK   10  A    between atoms: C_20  and  C_21
REMARK   11  A    between atoms: C_21  and  C_22
REMARK   12  A    between atoms: C_21  and  C_23
REMARK   13  A    between atoms: O_24  and  C_25
REMARK                            x       y       z     vdW  Elec       q    Type
REMARK                         _______ _______ _______ _____ _____    ______ ____
ROOT
ATOM      1  N   UNL     1       0.468  -6.725  -0.722  0.00  0.00    -0.294 N 
ATOM      2  C   UNL     1       0.448  -8.072  -0.670  0.00  0.00    +0.316 C 
ATOM      3  O   UNL     1       0.961  -8.722  -1.560  0.00  0.00    -0.251 OA
ATOM      4  N   UNL     1      -0.140  -8.698   0.369  0.00  0.00    -0.218 N 
ATOM      5  H   UNL     1       0.059  -6.207  -0.011  0.00  0.00    +0.151 HD
ATOM      6  H   UNL     1      -0.154  -9.667   0.406  0.00  0.00    +0.174 HD
ENDROOT
BRANCH   4   7
ATOM      7  N   UNL     1      -0.731  -7.949   1.394  0.00  0.00    -0.233 N 
ATOM      8  C   UNL     1      -1.319  -8.575   2.433  0.00  0.00    +0.229 C 
ATOM      9  O   UNL     1      -1.337  -9.787   2.479  0.00  0.00    -0.274 OA
ATOM     10  H   UNL     1      -0.717  -6.980   1.357  0.00  0.00    +0.173 HD
BRANCH   8  11
ATOM     11  C   UNL     1      -1.956  -7.769   3.536  0.00  0.00    +0.097 C 
BRANCH  11  12
ATOM     12  C   UNL     1      -2.546  -8.716   4.583  0.00  0.00    +0.012 C 
BRANCH  12  13
ATOM     13  C   UNL     1      -3.192  -7.897   5.704  0.00  0.00    -0.017 C 
ATOM     14  C   UNL     1      -4.384  -7.118   5.144  0.00  0.00    +0.007 C 
ATOM     15  C   UNL     1      -3.672  -8.838   6.810  0.00  0.00    +0.007 C 
ENDBRANCH  12  13
ENDBRANCH  11  12
ENDBRANCH   8  11
ENDBRANCH   4   7
BRANCH   1  16
ATOM     16  C   UNL     1       1.107  -6.045  -1.850  0.00  0.00    +0.141 C 
BRANCH  16  20
ATOM     17  C   UNL     1       0.777  -1.811  -1.336  0.00  0.00    +0.180 A 
ATOM     18  C   UNL     1       1.877  -2.491  -0.823  0.00  0.00    +0.163 A 
ATOM     19  C   UNL     1       1.980  -3.863  -0.991  0.00  0.00    +0.054 A 
ATOM     20  C   UNL     1       0.992  -4.553  -1.668  0.00  0.00    -0.025 A 
ATOM     21  C   UNL     1      -0.100  -3.878  -2.179  0.00  0.00    +0.029 A 
ATOM     22  C   UNL     1      -0.213  -2.510  -2.009  0.00  0.00    +0.086 A 
ATOM     23 CL   UNL     1      -1.591  -1.667  -2.646  0.00  0.00    -0.080 Cl
BRANCH  18  24
ATOM     24  O   UNL     1       2.848  -1.811  -0.157  0.00  0.00    -0.491 OA
ATOM     25  C   UNL     1       3.948  -2.574   0.343  0.00  0.00    +0.277 C 
ENDBRANCH  18  24
BRANCH  17  26
ATOM     26  O   UNL     1       0.671  -0.465  -1.174  0.00  0.00    -0.487 OA
BRANCH  26  28
ATOM     27  C   UNL     1      -0.019   1.526   0.010  0.00  0.00    +0.048 C 
ATOM     28  C   UNL     1       0.002  -0.004   0.002  0.00  0.00    +0.226 C 
ENDBRANCH  26  28
ENDBRANCH  17  26
ENDBRANCH  16  20
ENDBRANCH   1  16
TORSDOF 9
