REMARK  Name = ZINC50086480
REMARK  8 active torsions:
REMARK  status: ('A' for Active; 'I' for Inactive)
REMARK    1  A    between atoms: C_1  and  C_2
REMARK    2  A    between atoms: N_5  and  C_11
REMARK    3  A    between atoms: C_7  and  C_10
REMARK    4  A    between atoms: C_11  and  C_12
REMARK    5  A    between atoms: C_12  and  N_13
REMARK    6  A    between atoms: N_16  and  C_17
REMARK    7  A    between atoms: C_21  and  C_23
REMARK    8  A    between atoms: N_25  and  C_26
REMARK                            x       y       z     vdW  Elec       q    Type
REMARK                         _______ _______ _______ _____ _____    ______ ____
ROOT
ATOM      1  N   UNL     1      -4.051  -4.627  -0.171  0.00  0.00    -0.298 N 
ATOM      2  C   UNL     1      -4.234  -5.953  -0.329  0.00  0.00    +0.304 C 
ATOM      3  O   UNL     1      -3.274  -6.691  -0.438  0.00  0.00    -0.253 OA
ATOM      4  N   UNL     1      -5.482  -6.462  -0.366  0.00  0.00    -0.269 N 
ATOM      5  H   UNL     1      -4.817  -4.039  -0.084  0.00  0.00    +0.150 HD
ATOM      6  H   UNL     1      -6.246  -5.884  -0.213  0.00  0.00    +0.156 HD
ENDROOT
BRANCH   4   7
ATOM      7  C   UNL     1      -5.676  -7.824  -0.627  0.00  0.00    +0.036 A 
ATOM      8  C   UNL     1      -4.765  -8.759  -0.148  0.00  0.00    +0.026 A 
ATOM      9  C   UNL     1      -4.950 -10.104  -0.402  0.00  0.00    +0.041 A 
ATOM     10  C   UNL     1      -6.043 -10.530  -1.135  0.00  0.00    +0.136 A 
ATOM     11  C   UNL     1      -6.964  -9.597  -1.621  0.00  0.00    +0.074 A 
ATOM     12  C   UNL     1      -6.777  -8.239  -1.358  0.00  0.00    +0.039 A 
ATOM     13  F   UNL     1      -6.221 -11.847  -1.381  0.00  0.00    -0.205 F 
BRANCH  11  14
ATOM     14  C   UNL     1      -8.132 -10.047  -2.404  0.00  0.00    +0.247 C 
ATOM     15  O   UNL     1      -8.295 -11.231  -2.628  0.00  0.00    -0.270 OA
ATOM     16  N   UNL     1      -9.018  -9.145  -2.871  0.00  0.00    -0.314 N 
ATOM     17  C   UNL     1     -10.177  -9.591  -3.648  0.00  0.00    +0.128 C 
ATOM     18  H   UNL     1      -8.888  -8.200  -2.693  0.00  0.00    +0.149 HD
ENDBRANCH  11  14
ENDBRANCH   4   7
BRANCH   1  19
ATOM     19  C   UNL     1      -2.695  -4.075  -0.130  0.00  0.00    +0.121 C 
BRANCH  19  20
ATOM     20  C   UNL     1      -2.768  -2.558   0.056  0.00  0.00    +0.103 C 
BRANCH  20  24
ATOM     21  C   UNL     1      -0.021   1.526   0.039  0.00  0.00    +0.039 C 
ATOM     22  C   UNL     1       0.001  -0.004   0.021  0.00  0.00    +0.130 C 
ATOM     23  C   UNL     1      -1.435  -0.535   0.036  0.00  0.00    +0.115 C 
ATOM     24  N   UNL     1      -1.408  -2.004   0.097  0.00  0.00    -0.296 NA
ATOM     25  C   UNL     1      -0.688  -2.463   1.294  0.00  0.00    +0.115 C 
ATOM     26  C   UNL     1       0.741  -1.912   1.266  0.00  0.00    +0.130 C 
ATOM     27  O   UNL     1       0.695  -0.485   1.175  0.00  0.00    -0.371 OA
ATOM     28  C   UNL     1       1.471  -2.320   2.547  0.00  0.00    +0.039 C 
ENDBRANCH  20  24
ENDBRANCH  19  20
ENDBRANCH   1  19
TORSDOF 5
