REMARK  Name = ZINC58224764
REMARK  10 active torsions:
REMARK  status: ('A' for Active; 'I' for Inactive)
REMARK    1  A    between atoms: C_1  and  C_2
REMARK    2  A    between atoms: C_2  and  C_3
REMARK    3  A    between atoms: C_3  and  C_4
REMARK    4  A    between atoms: C_3  and  C_6
REMARK    5  A    between atoms: C_4  and  C_5
REMARK    6  A    between atoms: C_6  and  C_8
REMARK    7  A    between atoms: C_6  and  N_27
REMARK    8  A    between atoms: C_8  and  N_9
REMARK    9  A    between atoms: N_12  and  C_13
REMARK   10  A    between atoms: C_16  and  N_20
REMARK                            x       y       z     vdW  Elec       q    Type
REMARK                         _______ _______ _______ _____ _____    ______ ____
ROOT
ATOM      1  N   UNL     1       2.502  -3.723  -0.621  0.00  0.00    -0.301 N 
ATOM      2  C   UNL     1       3.290  -4.157  -1.625  0.00  0.00    +0.304 C 
ATOM      3  O   UNL     1       3.825  -3.357  -2.367  0.00  0.00    -0.253 OA
ATOM      4  N   UNL     1       3.484  -5.479  -1.806  0.00  0.00    -0.269 N 
ATOM      5  H   UNL     1       2.075  -4.362  -0.028  0.00  0.00    +0.150 HD
ATOM      6  H   UNL     1       3.000  -6.119  -1.262  0.00  0.00    +0.156 HD
ENDROOT
BRANCH   4   7
ATOM      7  C   UNL     1       4.386  -5.927  -2.780  0.00  0.00    +0.036 A 
ATOM      8  C   UNL     1       4.131  -7.103  -3.474  0.00  0.00    +0.025 A 
ATOM      9  C   UNL     1       5.020  -7.546  -4.434  0.00  0.00    +0.026 A 
ATOM     10  C   UNL     1       6.169  -6.815  -4.706  0.00  0.00    +0.049 A 
ATOM     11  C   UNL     1       6.424  -5.638  -4.013  0.00  0.00    +0.064 A 
ATOM     12  C   UNL     1       5.532  -5.193  -3.056  0.00  0.00    +0.045 A 
ATOM     13 CL   UNL     1       7.861  -4.724  -4.352  0.00  0.00    -0.082 Cl
BRANCH  10  14
ATOM     14  N   UNL     1       7.070  -7.264  -5.678  0.00  0.00    -0.318 N 
ATOM     15  C   UNL     1       8.182  -8.167  -5.334  0.00  0.00    +0.124 C 
ATOM     16  C   UNL     1       7.997  -9.470  -6.113  0.00  0.00    +0.123 C 
ATOM     17  N   UNL     1       7.690  -9.198  -7.510  0.00  0.00    -0.313 N 
ATOM     18  C   UNL     1       7.180  -8.053  -7.964  0.00  0.00    +0.230 C 
ATOM     19  O   UNL     1       6.891  -7.973  -9.139  0.00  0.00    -0.274 OA
ATOM     20  C   UNL     1       6.941  -6.859  -7.086  0.00  0.00    +0.200 C 
ATOM     21  H   UNL     1       7.869  -9.900  -8.156  0.00  0.00    +0.149 HD
ENDBRANCH  10  14
ENDBRANCH   4   7
BRANCH   1  22
ATOM     22  C   UNL     1       2.291  -2.287  -0.424  0.00  0.00    +0.091 C 
BRANCH  22  23
ATOM     23  C   UNL     1       1.226  -2.071   0.653  0.00  0.00    -0.048 C 
BRANCH  23  24
ATOM     24  N   UNL     1      -0.084  -2.491   0.137  0.00  0.00    +0.383 N 
ATOM     25  C   UNL     1      -0.030  -3.907  -0.308  0.00  0.00    -0.078 C 
ATOM     26  C   UNL     1      -1.515  -4.348  -0.272  0.00  0.00    -0.020 C 
ATOM     27  C   UNL     1      -2.060  -3.623   0.980  0.00  0.00    -0.020 C 
ATOM     28  C   UNL     1      -1.095  -2.446   1.216  0.00  0.00    -0.078 C 
ATOM     29  H   UNL     1      -0.364  -1.896  -0.627  0.00  0.00    -0.081 HD
ENDBRANCH  23  24
BRANCH  23  30
ATOM     30  C   UNL     1       1.174  -0.589   1.030  0.00  0.00    -0.024 C 
BRANCH  30  32
ATOM     31  C   UNL     1       0.650   1.706   0.195  0.00  0.00    +0.004 C 
ATOM     32  C   UNL     1       0.594   0.213  -0.136  0.00  0.00    -0.002 C 
ENDBRANCH  30  32
BRANCH  30  33
ATOM     33  C   UNL     1       0.289  -0.407   2.265  0.00  0.00    -0.002 C 
ATOM     34  C   UNL     1       0.881  -1.193   3.437  0.00  0.00    +0.004 C 
ENDBRANCH  30  33
ENDBRANCH  23  30
ENDBRANCH  22  23
ENDBRANCH   1  22
TORSDOF 8
