REMARK  Name = ZINC39916036
REMARK  12 active torsions:
REMARK  status: ('A' for Active; 'I' for Inactive)
REMARK    1  A    between atoms: C_8  and  S_22
REMARK    2  A    between atoms: N_9  and  C_10
REMARK    3  A    between atoms: C_10  and  C_11
REMARK    4  A    between atoms: C_11  and  C_12
REMARK    5  A    between atoms: C_12  and  O_13
REMARK    6  A    between atoms: O_13  and  C_14
REMARK    7  A    between atoms: S_22  and  C_23
REMARK    8  A    between atoms: C_25  and  O_38
REMARK    9  A    between atoms: C_27  and  O_37
REMARK   10  A    between atoms: C_29  and  O_36
REMARK   11  A    between atoms: C_31  and  C_34
REMARK   12  A    between atoms: C_34  and  O_35
REMARK                            x       y       z     vdW  Elec       q    Type
REMARK                         _______ _______ _______ _____ _____    ______ ____
ROOT
ATOM      1  C   UNL     1      -0.017   1.373   0.010  0.00  0.00    +0.002 A 
ATOM      2  C   UNL     1       1.169   2.093   0.002  0.00  0.00    +0.002 A 
ATOM      3  C   UNL     1       2.384   1.439  -0.013  0.00  0.00    +0.028 A 
ATOM      4  C   UNL     1       2.421   0.053  -0.021  0.00  0.00    +0.069 A 
ATOM      5  C   UNL     1       1.224  -0.681  -0.013  0.00  0.00    +0.090 A 
ATOM      6  C   UNL     1       0.002  -0.004   0.002  0.00  0.00    +0.030 A 
ATOM      7  N   UNL     1       1.561  -1.998  -0.024  0.00  0.00    -0.222 NA
ATOM      8  C   UNL     1       2.866  -2.117  -0.037  0.00  0.00    +0.172 A 
ATOM      9  N   UNL     1       3.446  -0.880  -0.036  0.00  0.00    -0.318 N 
ENDROOT
BRANCH   9  10
ATOM     10  C   UNL     1       4.882  -0.593  -0.050  0.00  0.00    +0.127 C 
BRANCH  10  11
ATOM     11  C   UNL     1       5.397  -0.500   1.388  0.00  0.00    +0.063 C 
BRANCH  11  12
ATOM     12  C   UNL     1       6.898  -0.201   1.374  0.00  0.00    +0.231 C 
BRANCH  12  13
ATOM     13  O   UNL     1       7.379  -0.114   2.716  0.00  0.00    -0.490 OA
BRANCH  13  14
ATOM     14  C   UNL     1       8.702   0.149   2.882  0.00  0.00    +0.139 A 
ATOM     15  C   UNL     1       9.519   0.326   1.775  0.00  0.00    +0.048 A 
ATOM     16  C   UNL     1      10.864   0.593   1.946  0.00  0.00    +0.023 A 
ATOM     17  C   UNL     1      11.396   0.685   3.219  0.00  0.00    +0.043 A 
ATOM     18  C   UNL     1      10.584   0.509   4.325  0.00  0.00    +0.043 A 
ATOM     19  C   UNL     1       9.237   0.247   4.160  0.00  0.00    +0.084 A 
ATOM     20 CL   UNL     1       8.216   0.034   5.547  0.00  0.00    -0.080 Cl
ATOM     21 CL   UNL     1      13.086   1.020   3.430  0.00  0.00    -0.083 Cl
ENDBRANCH  13  14
ENDBRANCH  12  13
ENDBRANCH  11  12
ENDBRANCH  10  11
ENDBRANCH   9  10
BRANCH   8  22
ATOM     22  S   UNL     1       3.743  -3.646  -0.054  0.00  0.00    -0.054 S 
BRANCH  22  23
ATOM     23  C   UNL     1       2.434  -4.902  -0.048  0.00  0.00    +0.214 C 
ATOM     24  C   UNL     1       3.053  -6.282   0.189  0.00  0.00    +0.185 C 
ATOM     25  C   UNL     1       1.950  -7.344   0.133  0.00  0.00    +0.177 C 
ATOM     26  C   UNL     1       1.236  -7.251  -1.219  0.00  0.00    +0.176 C 
ATOM     27  C   UNL     1       0.687  -5.834  -1.401  0.00  0.00    +0.176 C 
ATOM     28  O   UNL     1       1.760  -4.894  -1.308  0.00  0.00    -0.355 OA
BRANCH  26  29
ATOM     29  O   UNL     1       2.160  -7.546  -2.268  0.00  0.00    -0.386 OA
ATOM     30  H   UNL     1       2.550  -8.429  -2.212  0.00  0.00    +0.210 HD
ENDBRANCH  26  29
BRANCH  25  31
ATOM     31  O   UNL     1       2.528  -8.642   0.282  0.00  0.00    -0.386 OA
ATOM     32  H   UNL     1       3.002  -8.768   1.115  0.00  0.00    +0.210 HD
ENDBRANCH  25  31
BRANCH  24  33
ATOM     33  O   UNL     1       4.026  -6.549  -0.822  0.00  0.00    -0.386 OA
ATOM     34  H   UNL     1       4.753  -5.912  -0.847  0.00  0.00    +0.210 HD
ENDBRANCH  24  33
BRANCH  27  35
ATOM     35  C   UNL     1       0.024  -5.716  -2.775  0.00  0.00    +0.190 C 
BRANCH  35  36
ATOM     36  O   UNL     1      -0.589  -4.431  -2.900  0.00  0.00    -0.392 OA
ATOM     37  H   UNL     1      -1.029  -4.286  -3.748  0.00  0.00    +0.210 HD
ENDBRANCH  35  36
ENDBRANCH  27  35
ENDBRANCH  22  23
ENDBRANCH   8  22
TORSDOF 12
