REMARK  Name = ZINC31454032
REMARK  5 active torsions:
REMARK  status: ('A' for Active; 'I' for Inactive)
REMARK    1  A    between atoms: C_4  and  N_6
REMARK    2  A    between atoms: C_10  and  C_12
REMARK    3  A    between atoms: C_12  and  S_13
REMARK    4  A    between atoms: S_13  and  C_14
REMARK    5  A    between atoms: N_18  and  C_19
REMARK                            x       y       z     vdW  Elec       q    Type
REMARK                         _______ _______ _______ _____ _____    ______ ____
ROOT
ATOM      1  N   UNL     1      -0.289   3.999   2.373  0.00  0.00    -0.296 N 
ATOM      2  C   UNL     1      -0.624   3.766   3.657  0.00  0.00    +0.306 C 
ATOM      3  O   UNL     1      -1.780   3.539   3.952  0.00  0.00    -0.252 OA
ATOM      4  N   UNL     1       0.325   3.786   4.615  0.00  0.00    -0.239 N 
ATOM      5  C   UNL     1      -0.010   3.553   5.899  0.00  0.00    +0.231 C 
ATOM      6  O   UNL     1      -1.164   3.326   6.194  0.00  0.00    -0.274 OA
ATOM      7  H   UNL     1       0.758   4.205   2.106  0.00  0.00    +0.151 HD
ATOM      8  H   UNL     1       1.372   3.992   4.348  0.00  0.00    +0.159 HD
ENDROOT
BRANCH   1  12
ATOM      9  C   UNL     1      -2.481   5.330  -0.306  0.00  0.00    +0.002 C 
ATOM     10  C   UNL     1      -1.433   4.504  -1.080  0.00  0.00    +0.002 C 
ATOM     11  C   UNL     1      -0.695   3.644  -0.039  0.00  0.00    +0.022 C 
ATOM     12  C   UNL     1      -1.319   3.978   1.332  0.00  0.00    +0.074 C 
ATOM     13  C   UNL     1      -1.926   5.391   1.139  0.00  0.00    +0.022 C 
ENDBRANCH   1  12
BRANCH   5  14
ATOM     14  C   UNL     1       1.050   3.575   6.970  0.00  0.00    +0.173 C 
BRANCH  14  15
ATOM     15  S   UNL     1       0.290   3.229   8.581  0.00  0.00    -0.077 S 
BRANCH  15  16
ATOM     16  C   UNL     1       1.640   3.289   9.711  0.00  0.00    +0.194 A 
ATOM     17  N   UNL     1       2.892   3.527   9.404  0.00  0.00    -0.121 NA
ATOM     18  N   UNL     1       3.643   3.489  10.587  0.00  0.00    -0.113 NA
ATOM     19  C   UNL     1       2.826   3.220  11.576  0.00  0.00    +0.215 A 
ATOM     20  N   UNL     1       1.567   3.089  11.061  0.00  0.00    -0.288 N 
ATOM     21  N   UNL     1       3.179   3.091  12.913  0.00  0.00    -0.328 N 
ATOM     22  H   UNL     1       2.409   2.862  13.665  0.00  0.00    +0.145 HD
ATOM     23  H   UNL     1       4.228   3.216  13.220  0.00  0.00    +0.145 HD
BRANCH  20  24
ATOM     24  C   UNL     1       0.353   2.788  11.823  0.00  0.00    +0.093 C 
ATOM     25  C   UNL     1      -0.860   2.273  11.045  0.00  0.00    +0.027 C 
ATOM     26  C   UNL     1      -0.859   3.697  11.608  0.00  0.00    +0.027 C 
ENDBRANCH  20  24
ENDBRANCH  15  16
ENDBRANCH  14  15
ENDBRANCH   5  14
TORSDOF 5
