REMARK  Name = ZINC35045522
REMARK  4 active torsions:
REMARK  status: ('A' for Active; 'I' for Inactive)
REMARK    1  A    between atoms: C_3  and  N_12
REMARK    2  A    between atoms: C_5  and  N_7
REMARK    3  A    between atoms: N_12  and  C_13
REMARK    4  A    between atoms: C_13  and  C_14
REMARK                            x       y       z     vdW  Elec       q    Type
REMARK                         _______ _______ _______ _____ _____    ______ ____
ROOT
ATOM      1  C   UNL     1      -0.017   1.377   0.010  0.00  0.00    +0.004 A 
ATOM      2  C   UNL     1       1.169   2.087   0.002  0.00  0.00    +0.023 A 
ATOM      3  C   UNL     1       2.383   1.413  -0.013  0.00  0.00    +0.029 A 
ATOM      4  C   UNL     1       2.405   0.025  -0.021  0.00  0.00    +0.050 A 
ATOM      5  C   UNL     1       1.213  -0.684  -0.013  0.00  0.00    +0.071 A 
ATOM      6  C   UNL     1       0.002  -0.004   0.002  0.00  0.00    +0.028 A 
ENDROOT
BRANCH   5   7
ATOM      7  N   UNL     1       1.231  -2.086  -0.021  0.00  0.00    -0.200 N 
ATOM      8  C   UNL     1       0.168  -2.920  -0.021  0.00  0.00    +0.250 A 
ATOM      9  N   UNL     1       0.633  -4.142  -0.031  0.00  0.00    -0.116 NA
ATOM     10  N   UNL     1       1.917  -4.138  -0.037  0.00  0.00    -0.023 NA
ATOM     11  N   UNL     1       2.358  -2.926  -0.037  0.00  0.00    -0.039 NA
ENDBRANCH   5   7
BRANCH   3  12
ATOM     12  N   UNL     1       3.582   2.131  -0.021  0.00  0.00    -0.340 N 
ATOM     13  H   UNL     1       4.429   1.660  -0.032  0.00  0.00    +0.146 HD
BRANCH  12  14
ATOM     14  C   UNL     1       3.558   3.596  -0.014  0.00  0.00    +0.139 C 
BRANCH  14  15
ATOM     15  C   UNL     1       4.970   4.121  -0.025  0.00  0.00    +0.006 A 
ATOM     16  C   UNL     1       5.632   4.351   1.168  0.00  0.00    +0.047 A 
ATOM     17  C   UNL     1       6.929   4.833   1.157  0.00  0.00    +0.020 A 
ATOM     18  C   UNL     1       7.563   5.086  -0.045  0.00  0.00    +0.003 A 
ATOM     19  C   UNL     1       6.902   4.857  -1.237  0.00  0.00    +0.020 A 
ATOM     20  C   UNL     1       5.607   4.369  -1.228  0.00  0.00    +0.047 A 
ATOM     21 CL   UNL     1       4.780   4.073  -2.725  0.00  0.00    -0.083 Cl
ATOM     22 CL   UNL     1       4.836   4.035   2.678  0.00  0.00    -0.083 Cl
ENDBRANCH  14  15
ENDBRANCH  12  14
ENDBRANCH   3  12
TORSDOF 4
