REMARK  Name = ZINC50611508
REMARK  10 active torsions:
REMARK  status: ('A' for Active; 'I' for Inactive)
REMARK    1  A    between atoms: C_1  and  C_2
REMARK    2  A    between atoms: C_2  and  N_3
REMARK    3  A    between atoms: N_3  and  C_4
REMARK    4  A    between atoms: N_3  and  C_6
REMARK    5  A    between atoms: C_4  and  C_5
REMARK    6  A    between atoms: C_6  and  C_7
REMARK    7  A    between atoms: C_10  and  C_12
REMARK    8  A    between atoms: N_14  and  N_15
REMARK    9  A    between atoms: C_16  and  C_18
REMARK   10  A    between atoms: C_19  and  C_20
REMARK                            x       y       z     vdW  Elec       q    Type
REMARK                         _______ _______ _______ _____ _____    ______ ____
ROOT
ATOM      1  C   UNL     1       2.446  -2.836  -3.730  0.00  0.00    +0.295 C 
ATOM      2  O   UNL     1       3.453  -2.936  -4.406  0.00  0.00    -0.265 OA
ATOM      3  N   UNL     1       1.235  -3.007  -4.296  0.00  0.00    -0.228 N 
ATOM      4  H   UNL     1       0.432  -2.927  -3.757  0.00  0.00    +0.173 HD
ENDROOT
BRANCH   1   8
ATOM      5  C   UNL     1       1.992  -2.113  -0.220  0.00  0.00    +0.090 A 
ATOM      6  C   UNL     1       3.341  -2.068  -0.275  0.00  0.00    +0.043 A 
ATOM      7  C   UNL     1       3.709  -2.334  -1.604  0.00  0.00    +0.055 A 
ATOM      8  C   UNL     1       2.551  -2.530  -2.300  0.00  0.00    +0.191 A 
ATOM      9  O   UNL     1       1.519  -2.397  -1.440  0.00  0.00    -0.457 OA
BRANCH   5  10
ATOM     10  C   UNL     1       1.157  -1.887   1.014  0.00  0.00    -0.003 C 
BRANCH  10  11
ATOM     11  N   UNL     1       0.823  -0.461   1.126  0.00  0.00    +0.384 N 
ATOM     12  H   UNL     1       1.671   0.085   1.109  0.00  0.00    -0.081 HD
BRANCH  11  14
ATOM     13  C   UNL     1      -0.261   1.443   0.032  0.00  0.00    -0.017 C 
ATOM     14  C   UNL     1      -0.035  -0.070  -0.001  0.00  0.00    -0.082 C 
ENDBRANCH  11  14
BRANCH  11  15
ATOM     15  C   UNL     1       0.111  -0.222   2.389  0.00  0.00    -0.082 C 
ATOM     16  C   UNL     1       1.053  -0.495   3.563  0.00  0.00    -0.017 C 
ENDBRANCH  11  15
ENDBRANCH  10  11
ENDBRANCH   5  10
ENDBRANCH   1   8
BRANCH   3  17
ATOM     17  N   UNL     1       1.135  -3.299  -5.663  0.00  0.00    -0.231 N 
ATOM     18  C   UNL     1      -0.076  -3.470  -6.229  0.00  0.00    +0.253 C 
ATOM     19  O   UNL     1      -1.083  -3.370  -5.553  0.00  0.00    -0.269 OA
ATOM     20  H   UNL     1       1.938  -3.379  -6.201  0.00  0.00    +0.173 HD
BRANCH  18  21
ATOM     21  C   UNL     1      -0.180  -3.775  -7.655  0.00  0.00    +0.069 C 
ATOM     22  C   UNL     1      -1.393  -3.946  -8.222  0.00  0.00    +0.013 C 
BRANCH  22  23
ATOM     23  C   UNL     1      -1.498  -4.253  -9.656  0.00  0.00    -0.021 A 
ATOM     24  C   UNL     1      -0.341  -4.375 -10.434  0.00  0.00    +0.012 A 
ATOM     25  C   UNL     1      -0.443  -4.661 -11.777  0.00  0.00    +0.050 A 
ATOM     26  C   UNL     1      -1.692  -4.831 -12.365  0.00  0.00    +0.162 A 
ATOM     27  C   UNL     1      -2.848  -4.714 -11.596  0.00  0.00    +0.163 A 
ATOM     28  C   UNL     1      -2.753  -4.431 -10.246  0.00  0.00    +0.057 A 
ATOM     29  O   UNL     1      -4.077  -4.886 -12.156  0.00  0.00    -0.485 OA
ATOM     30  C   UNL     1      -4.150  -4.807 -13.583  0.00  0.00    +0.270 C 
ATOM     31  C   UNL     1      -3.007  -5.646 -14.170  0.00  0.00    +0.270 C 
ATOM     32  O   UNL     1      -1.768  -5.110 -13.694  0.00  0.00    -0.485 OA
ENDBRANCH  22  23
ENDBRANCH  18  21
ENDBRANCH   3  17
TORSDOF 8
