REMARK  Name = ZINC46660240
REMARK  5 active torsions:
REMARK  status: ('A' for Active; 'I' for Inactive)
REMARK    1  A    between atoms: C_1  and  C_2
REMARK    2  A    between atoms: C_2  and  C_3
REMARK    3  A    between atoms: C_3  and  C_4
REMARK    4  A    between atoms: C_4  and  C_5
REMARK    5  A    between atoms: C_11  and  C_13
REMARK                            x       y       z     vdW  Elec       q    Type
REMARK                         _______ _______ _______ _____ _____    ______ ____
ROOT
ATOM      1  C   UNL     1      -2.826  -2.585   0.015  0.00  0.00    +0.104 A 
ATOM      2  N   UNL     1      -3.629  -2.878  -0.989  0.00  0.00    -0.145 NA
ATOM      3  N   UNL     1      -4.800  -3.311  -0.809  0.00  0.00    -0.126 NA
ATOM      4  C   UNL     1      -5.297  -3.498   0.406  0.00  0.00    +0.188 A 
ATOM      5  S   UNL     1      -3.893  -2.991   1.395  0.00  0.00    -0.035 S 
ATOM      6  N   UNL     1      -6.547  -3.959   0.800  0.00  0.00    -0.259 N 
ATOM      7  C   UNL     1      -7.464  -4.295  -0.129  0.00  0.00    +0.250 C 
ATOM      8  O   UNL     1      -7.198  -4.194  -1.311  0.00  0.00    -0.270 OA
ATOM      9  H   UNL     1      -6.760  -4.040   1.742  0.00  0.00    +0.157 HD
ENDROOT
BRANCH   7  10
ATOM     10  C   UNL     1      -8.797  -4.787   0.290  0.00  0.00    +0.039 A 
ATOM     11  C   UNL     1      -9.100  -4.896   1.656  0.00  0.00    +0.014 A 
ATOM     12  C   UNL     1     -10.318  -5.345   2.066  0.00  0.00    +0.016 A 
ATOM     13  C   UNL     1     -11.285  -5.706   1.118  0.00  0.00    +0.065 A 
ATOM     14  C   UNL     1     -10.993  -5.601  -0.268  0.00  0.00    +0.080 A 
ATOM     15  C   UNL     1      -9.735  -5.130  -0.670  0.00  0.00    +0.041 A 
ATOM     16  N   UNL     1     -11.929  -5.949  -1.162  0.00  0.00    -0.223 NA
ATOM     17  C   UNL     1     -13.114  -6.386  -0.765  0.00  0.00    +0.180 A 
ATOM     18  N   UNL     1     -13.441  -6.503   0.533  0.00  0.00    -0.301 N 
ATOM     19  H   UNL     1     -14.321  -6.828   0.777  0.00  0.00    +0.171 HD
ATOM     20  C   UNL     1     -12.559  -6.175   1.502  0.00  0.00    +0.260 A 
ATOM     21  O   UNL     1     -12.887  -6.293   2.801  0.00  0.00    -0.267 OA
ATOM     22  S   UNL     1     -14.274  -6.817  -1.949  0.00  0.00    -0.011 S 
ENDBRANCH   7  10
BRANCH   1  23
ATOM     23  C   UNL     1      -1.413  -2.063   0.004  0.00  0.00    +0.065 C 
BRANCH  23  24
ATOM     24  C   UNL     1      -1.433  -0.534   0.013  0.00  0.00    +0.006 C 
BRANCH  24  26
ATOM     25  C   UNL     1      -0.019   1.526   0.010  0.00  0.00    +0.004 C 
ATOM     26  C   UNL     1       0.002  -0.004   0.002  0.00  0.00    -0.003 C 
ENDBRANCH  24  26
ENDBRANCH  23  24
ENDBRANCH   1  23
TORSDOF 4
