REMARK  Name = ZINC12218617
REMARK  9 active torsions:
REMARK  status: ('A' for Active; 'I' for Inactive)
REMARK    1  A    between atoms: C_1  and  C_2
REMARK    2  A    between atoms: C_5  and  C_8
REMARK    3  A    between atoms: C_12  and  O_14
REMARK    4  A    between atoms: O_14  and  C_15
REMARK    5  A    between atoms: C_20  and  C_21
REMARK    6  A    between atoms: C_20  and  N_57
REMARK    7  A    between atoms: C_24  and  O_28
REMARK    8  A    between atoms: C_26  and  O_27
REMARK    9  A    between atoms: O_28  and  C_29
REMARK                            x       y       z     vdW  Elec       q    Type
REMARK                         _______ _______ _______ _____ _____    ______ ____
ROOT
ATOM      1  C   UNL     1      -4.746   3.447  -0.304  0.00  0.00    -0.014 A 
ATOM      2  C   UNL     1      -3.865   2.626  -1.007  0.00  0.00    +0.014 A 
ATOM      3  C   UNL     1      -2.816   2.025  -0.345  0.00  0.00    -0.018 A 
ATOM      4  C   UNL     1      -2.621   2.240   1.005  0.00  0.00    +0.163 A 
ATOM      5  C   UNL     1      -3.502   3.051   1.717  0.00  0.00    +0.162 A 
ATOM      6  C   UNL     1      -4.562   3.653   1.062  0.00  0.00    +0.058 A 
ATOM      7  O   UNL     1      -1.547   1.686   1.633  0.00  0.00    -0.490 OA
ATOM      8  C   UNL     1      -0.275   2.222   1.257  0.00  0.00    +0.211 C 
ATOM      9  C   UNL     1       0.259   1.529   0.022  0.00  0.00    -0.036 C 
ATOM     10  C   UNL     1      -1.864   1.115  -1.098  0.00  0.00    -0.039 C 
ATOM     11  N   UNL     1      -0.552   1.801  -1.184  0.00  0.00    +0.387 N 
ATOM     12  H   UNL     1      -0.713   2.813  -1.251  0.00  0.00    -0.081 HD
ENDROOT
BRANCH   1  17
ATOM     13  C   UNL     1      -9.137   5.979  -3.038  0.00  0.00    +0.044 C 
ATOM     14  C   UNL     1      -7.988   5.316  -2.323  0.00  0.00    -0.050 A 
ATOM     15  C   UNL     1      -7.809   5.524  -0.967  0.00  0.00    +0.004 A 
ATOM     16  C   UNL     1      -6.758   4.920  -0.306  0.00  0.00    +0.009 A 
ATOM     17  C   UNL     1      -5.877   4.099  -1.008  0.00  0.00    -0.018 A 
ATOM     18  C   UNL     1      -6.059   3.898  -2.375  0.00  0.00    +0.009 A 
ATOM     19  C   UNL     1      -7.116   4.503  -3.024  0.00  0.00    +0.004 A 
ENDBRANCH   1  17
BRANCH   5  20
ATOM     20  O   UNL     1      -3.322   3.249   3.050  0.00  0.00    -0.491 OA
ATOM     21  C   UNL     1      -4.266   4.092   3.714  0.00  0.00    +0.277 C 
ENDBRANCH   5  20
BRANCH  11  22
ATOM     22  C   UNL     1       0.171   1.353  -2.384  0.00  0.00    -0.039 C 
BRANCH  22  23
ATOM     23  C   UNL     1      -0.497   1.954  -3.594  0.00  0.00    -0.022 A 
ATOM     24  C   UNL     1      -1.260   1.158  -4.427  0.00  0.00    +0.009 A 
ATOM     25  C   UNL     1      -1.880   1.707  -5.534  0.00  0.00    +0.046 A 
ATOM     26  C   UNL     1      -1.727   3.057  -5.817  0.00  0.00    +0.124 A 
ATOM     27  C   UNL     1      -0.958   3.856  -4.986  0.00  0.00    +0.091 A 
ATOM     28  C   UNL     1      -0.342   3.304  -3.873  0.00  0.00    +0.122 A 
BRANCH  28  29
ATOM     29  O   UNL     1       0.413   4.085  -3.056  0.00  0.00    -0.506 OA
ATOM     30  H   UNL     1       1.346   4.128  -3.305  0.00  0.00    +0.292 HD
ENDBRANCH  28  29
BRANCH  26  31
ATOM     31  O   UNL     1      -2.331   3.595  -6.909  0.00  0.00    -0.495 OA
ATOM     32  C   UNL     1      -3.109   2.713  -7.721  0.00  0.00    +0.277 C 
ENDBRANCH  26  31
ENDBRANCH  22  23
ENDBRANCH  11  22
TORSDOF 6
