REMARK  Name = ZINC21139523
REMARK  7 active torsions:
REMARK  status: ('A' for Active; 'I' for Inactive)
REMARK    1  A    between atoms: C_1  and  C_2
REMARK    2  A    between atoms: C_9  and  C_11
REMARK    3  A    between atoms: C_14  and  N_17
REMARK    4  A    between atoms: C_18  and  C_20
REMARK    5  A    between atoms: C_20  and  C_22
REMARK    6  A    between atoms: C_20  and  S_23
REMARK    7  A    between atoms: S_23  and  C_24
REMARK                            x       y       z     vdW  Elec       q    Type
REMARK                         _______ _______ _______ _____ _____    ______ ____
ROOT
ATOM      1  C   UNL     1      -4.213  -8.012  -0.578  0.00  0.00    +0.007 A 
ATOM      2  C   UNL     1      -2.899  -8.339  -0.917  0.00  0.00    +0.012 A 
ATOM      3  C   UNL     1      -1.925  -7.365  -0.910  0.00  0.00    +0.024 A 
ATOM      4  C   UNL     1      -2.249  -6.057  -0.565  0.00  0.00    +0.033 A 
ATOM      5  C   UNL     1      -3.556  -5.730  -0.221  0.00  0.00    +0.024 A 
ATOM      6  C   UNL     1      -4.536  -6.698  -0.232  0.00  0.00    +0.012 A 
ENDROOT
BRANCH   1  15
ATOM      7  C   UNL     1      -9.834 -13.503  -0.590  0.00  0.00    +0.044 C 
ATOM      8  C   UNL     1      -8.572 -12.682  -0.673  0.00  0.00    -0.049 A 
ATOM      9  C   UNL     1      -7.374 -13.275  -1.045  0.00  0.00    +0.005 A 
ATOM     10  C   UNL     1      -6.220 -12.562  -1.131  0.00  0.00    +0.029 A 
ATOM     11  C   UNL     1      -6.201 -11.176  -0.840  0.00  0.00    +0.079 A 
ATOM     12  C   UNL     1      -7.438 -10.601  -0.464  0.00  0.00    +0.040 A 
ATOM     13  C   UNL     1      -8.598 -11.332  -0.380  0.00  0.00    +0.020 A 
ATOM     14  S   UNL     1      -6.998  -8.901  -0.194  0.00  0.00    -0.067 S 
ATOM     15  C   UNL     1      -5.260  -9.055  -0.584  0.00  0.00    +0.109 A 
ATOM     16  N   UNL     1      -5.152 -10.331  -0.883  0.00  0.00    -0.239 NA
ENDBRANCH   1  15
BRANCH   4  17
ATOM     17  N   UNL     1      -1.259  -5.072  -0.558  0.00  0.00    -0.285 N 
ATOM     18  C   UNL     1      -1.568  -3.804  -0.894  0.00  0.00    +0.230 C 
ATOM     19  O   UNL     1      -2.681  -3.537  -1.294  0.00  0.00    -0.274 OA
ATOM     20  H   UNL     1      -0.227  -5.331  -0.279  0.00  0.00    +0.155 HD
BRANCH  18  21
ATOM     21  C   UNL     1      -0.530  -2.718  -0.773  0.00  0.00    +0.136 C 
ATOM     22  C   UNL     1      -0.432  -2.268   0.686  0.00  0.00    +0.029 C 
BRANCH  21  23
ATOM     23  S   UNL     1      -1.005  -1.308  -1.810  0.00  0.00    -0.084 S 
BRANCH  23  24
ATOM     24  C   UNL     1       0.360  -0.203  -1.679  0.00  0.00    +0.161 A 
ATOM     25  N   UNL     1       1.481  -0.336  -0.996  0.00  0.00    -0.133 NA
ATOM     26  N   UNL     1       2.427   0.662  -1.032  0.00  0.00    -0.125 NA
ATOM     27  C   UNL     1       2.210   1.747  -1.750  0.00  0.00    +0.180 A 
ATOM     28  S   UNL     1       0.597   1.399  -2.434  0.00  0.00    -0.025 S 
ATOM     29  N   UNL     1       3.019   2.863  -1.926  0.00  0.00    -0.336 N 
ATOM     30  H   UNL     1       2.682   3.691  -2.567  0.00  0.00    +0.144 HD
ATOM     31  H   UNL     1       3.997   2.918  -1.425  0.00  0.00    +0.144 HD
ENDBRANCH  23  24
ENDBRANCH  21  23
ENDBRANCH  18  21
ENDBRANCH   4  17
TORSDOF 5
