REMARK  Name = ZINC20426927
REMARK  11 active torsions:
REMARK  status: ('A' for Active; 'I' for Inactive)
REMARK    1  A    between atoms: C_1  and  C_2
REMARK    2  A    between atoms: C_11  and  O_13
REMARK    3  A    between atoms: O_13  and  C_14
REMARK    4  A    between atoms: C_14  and  C_15
REMARK    5  A    between atoms: C_15  and  C_17
REMARK    6  A    between atoms: C_15  and  O_32
REMARK    7  A    between atoms: C_17  and  N_18
REMARK    8  A    between atoms: C_23  and  O_30
REMARK    9  A    between atoms: C_24  and  O_28
REMARK   10  A    between atoms: O_28  and  C_29
REMARK   11  A    between atoms: O_30  and  C_31
REMARK                            x       y       z     vdW  Elec       q    Type
REMARK                         _______ _______ _______ _____ _____    ______ ____
ROOT
ATOM      1  C   UNL     1      -0.849   1.336  -1.248  0.00  0.00    +0.135 C 
ENDROOT
BRANCH   1   2
ATOM      2  O   UNL     1      -2.041   0.550  -1.191  0.00  0.00    -0.390 OA
ATOM      3  H   UNL     1      -2.754   0.691  -0.365  0.00  0.00    +0.210 HD
ENDBRANCH   1   2
BRANCH   1   4
ATOM      4  C   UNL     1      -0.040   0.945  -2.486  0.00  0.00    +0.258 C 
BRANCH   4   5
ATOM      5  O   UNL     1      -0.774   1.286  -3.663  0.00  0.00    -0.489 OA
BRANCH   5  16
ATOM      6  C   UNL     1       2.988  -0.523  -8.649  0.00  0.00    +0.045 C 
ATOM      7  C   UNL     1       1.628   0.121  -8.572  0.00  0.00    -0.033 A 
ATOM      8  C   UNL     1       0.941   0.439  -9.700  0.00  0.00    +0.096 A 
ATOM      9  C   UNL     1      -0.330   1.041  -9.601  0.00  0.00    +0.337 A 
ATOM     10  O   UNL     1      -0.934   1.321 -10.621  0.00  0.00    -0.245 OA
ATOM     11  O   UNL     1      -0.890   1.314  -8.413  0.00  0.00    -0.422 OA
ATOM     12  C   UNL     1      -0.262   1.023  -7.254  0.00  0.00    +0.143 A 
ATOM     13  C   UNL     1       1.010   0.421  -7.279  0.00  0.00    +0.021 A 
ATOM     14  C   UNL     1       1.665   0.117  -6.080  0.00  0.00    +0.015 A 
ATOM     15  C   UNL     1       1.069   0.412  -4.888  0.00  0.00    +0.046 A 
ATOM     16  C   UNL     1      -0.193   1.004  -4.857  0.00  0.00    +0.124 A 
ATOM     17  C   UNL     1      -0.855   1.311  -6.034  0.00  0.00    +0.092 A 
ENDBRANCH   5  16
ENDBRANCH   4   5
ENDBRANCH   1   4
BRANCH   1  18
ATOM     18  C   UNL     1      -0.013   1.086   0.008  0.00  0.00    -0.043 C 
BRANCH  18  19
ATOM     19  N   UNL     1      -0.773   1.503   1.194  0.00  0.00    +0.384 N 
ATOM     20  C   UNL     1      -0.844   2.970   1.285  0.00  0.00    -0.074 C 
ATOM     21  C   UNL     1      -1.929   3.341   2.297  0.00  0.00    +0.017 C 
ATOM     22  C   UNL     1      -1.720   2.576   3.579  0.00  0.00    -0.044 A 
ATOM     23  C   UNL     1      -2.368   3.018   4.723  0.00  0.00    +0.053 A 
ATOM     24  C   UNL     1      -2.214   2.342   5.920  0.00  0.00    +0.162 A 
ATOM     25  C   UNL     1      -1.403   1.212   5.974  0.00  0.00    +0.162 A 
ATOM     26  C   UNL     1      -0.757   0.777   4.830  0.00  0.00    +0.051 A 
ATOM     27  C   UNL     1      -0.914   1.459   3.632  0.00  0.00    -0.057 A 
ATOM     28  C   UNL     1      -0.187   0.946   2.417  0.00  0.00    -0.042 C 
ATOM     29  H   UNL     1      -1.795   1.109   1.090  0.00  0.00    -0.081 HD
BRANCH  25  30
ATOM     30  O   UNL     1      -1.245   0.539   7.145  0.00  0.00    -0.491 OA
ATOM     31  C   UNL     1      -0.397  -0.611   7.123  0.00  0.00    +0.277 C 
ENDBRANCH  25  30
BRANCH  24  32
ATOM     32  O   UNL     1      -2.851   2.779   7.039  0.00  0.00    -0.491 OA
ATOM     33  C   UNL     1      -3.667   3.945   6.907  0.00  0.00    +0.277 C 
ENDBRANCH  24  32
ENDBRANCH  18  19
ENDBRANCH   1  18
TORSDOF 8
