REMARK  Name = ZINC19974064
REMARK  2 active torsions:
REMARK  status: ('A' for Active; 'I' for Inactive)
REMARK    1  A    between atoms: C_3  and  C_6
REMARK    2  A    between atoms: C_9  and  N_15
REMARK                            x       y       z     vdW  Elec       q    Type
REMARK                         _______ _______ _______ _____ _____    ______ ____
ROOT
ATOM      1  C   UNL     1       0.637  -0.507  -1.296  0.00  0.00    +0.035 C 
ATOM      2  C   UNL     1       0.002  -0.004   0.002  0.00  0.00    +0.031 C 
ATOM      3  C   UNL     1      -0.019   1.525   0.010  0.00  0.00    +0.080 C 
ATOM      4  C   UNL     1       1.419   2.054  -0.001  0.00  0.00    +0.096 C 
ATOM      5  C   UNL     1       2.146   1.447  -1.180  0.00  0.00    +0.136 C 
ATOM      6  O   UNL     1       2.748   2.143  -1.962  0.00  0.00    -0.297 OA
ATOM      7  C   UNL     1       2.099  -0.055  -1.356  0.00  0.00    +0.083 C 
ENDROOT
BRANCH   3   8
ATOM      8  N   UNL     1      -0.727   2.011  -1.177  0.00  0.00    -0.320 N 
ATOM      9  C   UNL     1      -1.330   3.264  -1.162  0.00  0.00    +0.204 A 
ATOM     10  C   UNL     1      -2.069   3.874  -2.273  0.00  0.00    +0.202 A 
ATOM     11  N   UNL     1      -2.488   5.048  -1.891  0.00  0.00    -0.032 NA
ATOM     12  O   UNL     1      -2.056   5.251  -0.557  0.00  0.00    -0.239 OA
ATOM     13  N   UNL     1      -1.341   4.095  -0.157  0.00  0.00    -0.032 NA
ATOM     14  N   UNL     1      -2.285   3.300  -3.521  0.00  0.00    -0.338 N 
ATOM     15  H   UNL     1      -0.781   1.385  -2.079  0.00  0.00    +0.148 HD
ATOM     16  H   UNL     1      -2.855   3.846  -4.287  0.00  0.00    +0.144 HD
ATOM     17  H   UNL     1      -1.886   2.299  -3.742  0.00  0.00    +0.144 HD
ENDBRANCH   3   8
BRANCH   1  20
ATOM     18  C   UNL     1       0.039  -4.188  -2.075  0.00  0.00    +0.008 A 
ATOM     19  C   UNL     1      -0.039  -2.817  -2.238  0.00  0.00    +0.011 A 
ATOM     20  C   UNL     1       0.574  -2.012  -1.336  0.00  0.00    -0.007 A 
ATOM     21  S   UNL     1       1.279  -3.197  -0.202  0.00  0.00    -0.101 S 
ATOM     22  C   UNL     1       0.716  -4.686  -1.012  0.00  0.00    +0.045 A 
ENDBRANCH   1  20
TORSDOF 2
