REMARK  Name = ZINC58452514
REMARK  9 active torsions:
REMARK  status: ('A' for Active; 'I' for Inactive)
REMARK    1  A    between atoms: C_1  and  N_2
REMARK    2  A    between atoms: N_2  and  C_3
REMARK    3  A    between atoms: C_4  and  C_6
REMARK    4  A    between atoms: N_11  and  C_12
REMARK    5  A    between atoms: C_12  and  C_13
REMARK    6  A    between atoms: N_15  and  C_16
REMARK    7  A    between atoms: C_17  and  C_25
REMARK    8  A    between atoms: C_25  and  O_27
REMARK    9  A    between atoms: O_27  and  C_28
REMARK                            x       y       z     vdW  Elec       q    Type
REMARK                         _______ _______ _______ _____ _____    ______ ____
ROOT
ATOM      1  C   UNL     1      -1.732  -2.627  -4.858  0.00  0.00    +0.201 C 
ATOM      2  O   UNL     1      -0.707  -3.067  -5.335  0.00  0.00    -0.278 OA
ATOM      3  N   UNL     1      -2.815  -2.445  -5.639  0.00  0.00    -0.281 N 
ATOM      4  H   UNL     1      -3.634  -2.094  -5.258  0.00  0.00    +0.155 HD
ENDROOT
BRANCH   3   5
ATOM      5  C   UNL     1      -2.758  -2.761  -6.988  0.00  0.00    +0.086 A 
ATOM      6  C   UNL     1      -3.762  -2.636  -7.936  0.00  0.00    +0.091 A 
ATOM      7  C   UNL     1      -3.445  -3.040  -9.296  0.00  0.00    -0.021 A 
ATOM      8  C   UNL     1      -2.184  -3.494  -9.457  0.00  0.00    -0.004 A 
ATOM      9  S   UNL     1      -1.454  -3.376  -7.850  0.00  0.00    -0.077 S 
ATOM     10  C   UNL     1      -1.560  -3.983 -10.728  0.00  0.00    +0.043 C 
ATOM     11  C   UNL     1      -2.680  -4.245 -11.745  0.00  0.00    +0.005 C 
ATOM     12  C   UNL     1      -3.621  -3.038 -11.769  0.00  0.00    +0.005 C 
ATOM     13  C   UNL     1      -4.417  -2.972 -10.464  0.00  0.00    +0.037 C 
BRANCH   6  14
ATOM     14  C   UNL     1      -5.086  -2.119  -7.583  0.00  0.00    +0.342 C 
ATOM     15  O   UNL     1      -5.311  -0.926  -7.651  0.00  0.00    -0.245 OA
BRANCH  14  16
ATOM     16  O   UNL     1      -6.055  -2.966  -7.181  0.00  0.00    -0.464 OA
ATOM     17  C   UNL     1      -7.322  -2.393  -6.852  0.00  0.00    +0.280 C 
ENDBRANCH  14  16
ENDBRANCH   6  14
ENDBRANCH   3   5
BRANCH   1  18
ATOM     18  C   UNL     1      -1.794  -2.284  -3.392  0.00  0.00    +0.020 C 
BRANCH  18  23
ATOM     19  C   UNL     1      -0.501  -2.126  -1.350  0.00  0.00    +0.020 C 
ATOM     20  C   UNL     1       0.631  -2.966  -0.706  0.00  0.00    -0.008 C 
ATOM     21  C   UNL     1       0.492  -4.333  -1.416  0.00  0.00    -0.020 C 
ATOM     22  C   UNL     1      -0.253  -4.030  -2.729  0.00  0.00    -0.077 C 
ATOM     23  N   UNL     1      -0.495  -2.570  -2.767  0.00  0.00    +0.393 N 
ATOM     24  H   UNL     1       0.245  -2.109  -3.274  0.00  0.00    -0.080 HD
BRANCH  19  28
ATOM     25  C   UNL     1      -0.444   1.514  -0.169  0.00  0.00    +0.131 C 
ATOM     26  N   UNL     1      -0.650   0.064  -0.209  0.00  0.00    -0.309 N 
ATOM     27  C   UNL     1      -1.357  -0.605   0.886  0.00  0.00    +0.131 C 
ATOM     28  C   UNL     1      -0.191  -0.654  -1.253  0.00  0.00    +0.202 C 
ATOM     29  O   UNL     1       0.473  -0.116  -2.114  0.00  0.00    -0.277 OA
ENDBRANCH  19  28
ENDBRANCH  18  23
ENDBRANCH   1  18
TORSDOF 6
