REMARK  Name = ZINC61357218
REMARK  13 active torsions:
REMARK  status: ('A' for Active; 'I' for Inactive)
REMARK    1  A    between atoms: C_1  and  C_2
REMARK    2  A    between atoms: C_2  and  C_3
REMARK    3  A    between atoms: C_3  and  C_4
REMARK    4  A    between atoms: C_4  and  N_5
REMARK    5  A    between atoms: C_6  and  N_30
REMARK    6  A    between atoms: C_7  and  N_14
REMARK    7  A    between atoms: N_14  and  C_15
REMARK    8  A    between atoms: C_15  and  C_16
REMARK    9  A    between atoms: C_17  and  C_19
REMARK   10  A    between atoms: C_19  and  O_20
REMARK   11  A    between atoms: O_20  and  C_21
REMARK   12  A    between atoms: C_24  and  C_27
REMARK   13  A    between atoms: C_27  and  C_28
REMARK                            x       y       z     vdW  Elec       q    Type
REMARK                         _______ _______ _______ _____ _____    ______ ____
ROOT
ATOM      1  N   UNL     1       3.030  -2.000  -3.563  0.00  0.00    -0.280 N 
ATOM      2  C   UNL     1       2.331  -2.245  -4.722  0.00  0.00    +0.127 A 
ATOM      3  C   UNL     1       1.347  -3.213  -4.723  0.00  0.00    +0.140 A 
ATOM      4  C   UNL     1       1.090  -3.921  -3.535  0.00  0.00    +0.277 A 
ATOM      5  O   UNL     1       0.226  -4.782  -3.508  0.00  0.00    -0.266 OA
ATOM      6  N   UNL     1       1.804  -3.642  -2.427  0.00  0.00    -0.273 N 
ATOM      7  H   UNL     1       1.627  -4.129  -1.607  0.00  0.00    +0.173 HD
ATOM      8  C   UNL     1       2.762  -2.699  -2.446  0.00  0.00    +0.331 A 
ATOM      9  O   UNL     1       3.395  -2.470  -1.433  0.00  0.00    -0.246 OA
ENDROOT
BRANCH   3  10
ATOM     10  N   UNL     1       0.612  -3.488  -5.896  0.00  0.00    -0.262 N 
ATOM     11  C   UNL     1      -0.707  -3.208  -5.947  0.00  0.00    +0.258 C 
ATOM     12  O   UNL     1      -1.280  -2.805  -4.956  0.00  0.00    -0.272 OA
BRANCH  10  13
ATOM     13  C   UNL     1       1.281  -4.077  -7.059  0.00  0.00    +0.110 C 
ATOM     14  C   UNL     1       1.112  -5.598  -7.027  0.00  0.00    +0.025 C 
ENDBRANCH  10  13
BRANCH  11  15
ATOM     15  C   UNL     1      -1.468  -3.394  -7.234  0.00  0.00    +0.325 C 
BRANCH  15  16
ATOM     16  O   UNL     1      -2.836  -3.034  -7.035  0.00  0.00    -0.483 OA
BRANCH  16  17
ATOM     17  C   UNL     1      -3.666  -3.146  -8.105  0.00  0.00    +0.121 A 
ATOM     18  C   UNL     1      -3.174  -3.599  -9.321  0.00  0.00    +0.046 A 
ATOM     19  C   UNL     1      -4.019  -3.712 -10.408  0.00  0.00    +0.008 A 
ATOM     20  C   UNL     1      -5.354  -3.374 -10.285  0.00  0.00    -0.033 A 
ATOM     21  C   UNL     1      -5.847  -2.922  -9.075  0.00  0.00    +0.008 A 
ATOM     22  C   UNL     1      -5.007  -2.812  -7.983  0.00  0.00    +0.046 A 
BRANCH  20  23
ATOM     23  C   UNL     1      -6.274  -3.498 -11.472  0.00  0.00    +0.153 C 
BRANCH  23  24
ATOM     24  C   UNL     1      -6.870  -4.843 -11.492  0.00  0.00    +0.067 C 
ATOM     25  N   UNL     1      -7.331  -5.882 -11.508  0.00  0.00    -0.196 NA
ENDBRANCH  23  24
ENDBRANCH  20  23
ENDBRANCH  16  17
ENDBRANCH  15  16
ENDBRANCH  11  15
ENDBRANCH   3  10
BRANCH   2  26
ATOM     26  N   UNL     1       2.608  -1.534  -5.865  0.00  0.00    -0.343 N 
ATOM     27  H   UNL     1       3.253  -0.810  -5.842  0.00  0.00    +0.144 HD
ATOM     28  H   UNL     1       2.159  -1.757  -6.696  0.00  0.00    +0.144 HD
ENDBRANCH   2  26
BRANCH   1  29
ATOM     29  C   UNL     1       4.077  -0.975  -3.548  0.00  0.00    +0.128 C 
BRANCH  29  30
ATOM     30  C   UNL     1       5.417  -1.609  -3.928  0.00  0.00    +0.021 C 
BRANCH  30  32
ATOM     31  C   UNL     1       7.850  -1.172  -4.293  0.00  0.00    +0.004 C 
ATOM     32  C   UNL     1       6.510  -0.538  -3.912  0.00  0.00    -0.002 C 
ENDBRANCH  30  32
ENDBRANCH  29  30
ENDBRANCH   1  29
TORSDOF 11
