REMARK  Name = ZINC61212218
REMARK  8 active torsions:
REMARK  status: ('A' for Active; 'I' for Inactive)
REMARK    1  A    between atoms: C_1  and  C_2
REMARK    2  A    between atoms: C_2  and  C_3
REMARK    3  A    between atoms: C_2  and  C_4
REMARK    4  A    between atoms: C_2  and  O_5
REMARK    5  A    between atoms: O_5  and  C_6
REMARK    6  A    between atoms: N_8  and  C_9
REMARK    7  A    between atoms: C_12  and  C_15
REMARK    8  A    between atoms: C_26  and  C_27
REMARK                            x       y       z     vdW  Elec       q    Type
REMARK                         _______ _______ _______ _____ _____    ______ ____
ROOT
ATOM      1  C   UNL     1       9.271   3.848  -5.767  0.00  0.00    +0.248 C 
ATOM      2  O   UNL     1       9.742   4.284  -4.734  0.00  0.00    -0.270 OA
ATOM      3  N   UNL     1       9.194   2.517  -5.965  0.00  0.00    -0.281 N 
ATOM      4  C   UNL     1       8.518   1.958  -7.140  0.00  0.00    +0.144 C 
ATOM      5  C   UNL     1       9.356   0.852  -7.730  0.00  0.00    -0.027 A 
ATOM      6  C   UNL     1       9.001   0.368  -8.982  0.00  0.00    +0.005 A 
ATOM      7  C   UNL     1       9.723  -0.650  -9.569  0.00  0.00    +0.000 A 
ATOM      8  C   UNL     1      10.807  -1.193  -8.905  0.00  0.00    +0.000 A 
ATOM      9  C   UNL     1      11.163  -0.710  -7.663  0.00  0.00    +0.004 A 
ATOM     10  C   UNL     1      10.441   0.319  -7.072  0.00  0.00    -0.040 A 
ATOM     11  C   UNL     1      10.905   0.814  -5.727  0.00  0.00    +0.067 C 
ATOM     12  C   UNL     1       9.791   1.567  -5.012  0.00  0.00    +0.167 C 
ENDROOT
BRANCH   1  16
ATOM     13  C   UNL     1       7.871   6.522  -8.755  0.00  0.00    +0.036 A 
ATOM     14  C   UNL     1       9.188   6.076  -8.785  0.00  0.00    +0.024 A 
ATOM     15  C   UNL     1       9.646   5.210  -7.818  0.00  0.00    +0.015 A 
ATOM     16  C   UNL     1       8.785   4.778  -6.806  0.00  0.00    +0.037 A 
ATOM     17  C   UNL     1       7.462   5.227  -6.779  0.00  0.00    +0.015 A 
ATOM     18  C   UNL     1       7.013   6.098  -7.746  0.00  0.00    +0.024 A 
BRANCH  13  21
ATOM     19  C   UNL     1       7.852   7.284 -11.005  0.00  0.00    +0.405 C 
ATOM     20  O   UNL     1       8.713   6.471 -11.277  0.00  0.00    -0.226 OA
ATOM     21  N   UNL     1       7.411   7.400  -9.736  0.00  0.00    -0.251 N 
ATOM     22  H   UNL     1       6.774   8.094  -9.506  0.00  0.00    +0.158 HD
BRANCH  19  23
ATOM     23  O   UNL     1       7.339   8.069 -11.970  0.00  0.00    -0.444 OA
BRANCH  23  25
ATOM     24  C   UNL     1       7.596   6.456 -13.751  0.00  0.00    +0.055 C 
ATOM     25  C   UNL     1       7.853   7.893 -13.292  0.00  0.00    +0.107 C 
ATOM     26  C   UNL     1       9.358   8.168 -13.295  0.00  0.00    +0.055 C 
ATOM     27  C   UNL     1       7.155   8.865 -14.245  0.00  0.00    +0.055 C 
ENDBRANCH  23  25
ENDBRANCH  19  23
ENDBRANCH  13  21
ENDBRANCH   1  16
BRANCH  12  28
ATOM     28  C   UNL     1      10.361   2.314  -3.834  0.00  0.00    +0.231 C 
ATOM     29  O   UNL     1       9.771   2.317  -2.775  0.00  0.00    -0.274 OA
ATOM     30  N   UNL     1      11.526   2.981  -3.958  0.00  0.00    -0.328 N 
ATOM     31  H   UNL     1      11.998   2.979  -4.806  0.00  0.00    +0.145 HD
ATOM     32  H   UNL     1      11.892   3.462  -3.200  0.00  0.00    +0.145 HD
ENDBRANCH  12  28
TORSDOF 5
