REMARK  Name = ZINC39677191
REMARK  5 active torsions:
REMARK  status: ('A' for Active; 'I' for Inactive)
REMARK    1  A    between atoms: C_1  and  C_2
REMARK    2  A    between atoms: C_6  and  C_7
REMARK    3  A    between atoms: C_7  and  N_8
REMARK    4  A    between atoms: C_9  and  C_11
REMARK    5  A    between atoms: C_22  and  C_24
REMARK                            x       y       z     vdW  Elec       q    Type
REMARK                         _______ _______ _______ _____ _____    ______ ____
ROOT
ATOM      1  C   UNL     1      -3.701   0.576   4.755  0.00  0.00    +0.100 C 
ATOM      2  C   UNL     1      -4.111  -0.911   4.665  0.00  0.00    +0.121 C 
ATOM      3  N   UNL     1      -3.897  -1.442   6.032  0.00  0.00    -0.296 N 
ATOM      4  C   UNL     1      -4.350  -0.350   6.927  0.00  0.00    +0.115 C 
ATOM      5  C   UNL     1      -3.862   0.941   6.241  0.00  0.00    -0.004 C 
ATOM      6  C   UNL     1      -4.898   2.049   6.402  0.00  0.00    -0.010 C 
ATOM      7  C   UNL     1      -4.999   2.436   7.881  0.00  0.00    -0.082 C 
ATOM      8  N   UNL     1      -3.688   2.890   8.360  0.00  0.00    +0.379 N 
ATOM      9  C   UNL     1      -2.719   1.789   8.288  0.00  0.00    -0.082 C 
ATOM     10  C   UNL     1      -2.522   1.376   6.827  0.00  0.00    -0.010 C 
ATOM     11  C   UNL     1      -3.403  -2.646   6.383  0.00  0.00    +0.247 C 
ATOM     12  O   UNL     1      -2.955  -3.390   5.532  0.00  0.00    -0.270 OA
ATOM     13  H   UNL     1      -3.368   3.656   7.786  0.00  0.00    -0.086 HD
ATOM     14  H   UNL     1      -3.770   3.201   9.316  0.00  0.00    -0.086 HD
ENDROOT
BRANCH  11  15
ATOM     15  C   UNL     1      -3.404  -3.061   7.802  0.00  0.00    +0.037 A 
ATOM     16  C   UNL     1      -4.273  -2.452   8.709  0.00  0.00    +0.013 A 
ATOM     17  C   UNL     1      -4.270  -2.845  10.032  0.00  0.00    +0.001 A 
ATOM     18  C   UNL     1      -3.408  -3.839  10.459  0.00  0.00    +0.000 A 
ATOM     19  C   UNL     1      -2.545  -4.446   9.565  0.00  0.00    +0.001 A 
ATOM     20  C   UNL     1      -2.542  -4.068   8.239  0.00  0.00    +0.013 A 
ENDBRANCH  11  15
BRANCH   1  22
ATOM     21  N   UNL     1      -1.841   1.946   3.869  0.00  0.00    -0.310 N 
ATOM     22  C   UNL     1      -2.267   0.751   4.325  0.00  0.00    +0.218 C 
ATOM     23  O   UNL     1      -1.496  -0.183   4.389  0.00  0.00    -0.275 OA
ATOM     24  H   UNL     1      -2.458   2.693   3.818  0.00  0.00    +0.149 HD
BRANCH  21  25
ATOM     25  C   UNL     1      -0.448   2.116   3.451  0.00  0.00    +0.147 C 
BRANCH  25  31
ATOM     26  C   UNL     1       0.422   4.500   5.182  0.00  0.00    +0.044 C 
ATOM     27  C   UNL     1       0.150   4.618   3.705  0.00  0.00    -0.039 A 
ATOM     28  C   UNL     1       0.291   5.833   3.060  0.00  0.00    +0.011 A 
ATOM     29  C   UNL     1       0.038   5.905   1.731  0.00  0.00    +0.046 A 
ATOM     30  S   UNL     1      -0.416   4.221   1.349  0.00  0.00    -0.100 S 
ATOM     31  C   UNL     1      -0.233   3.534   2.987  0.00  0.00    +0.010 A 
ENDBRANCH  25  31
ENDBRANCH  21  25
ENDBRANCH   1  22
TORSDOF 4
