REMARK  Name = ZINC39468772
REMARK  2 active torsions:
REMARK  status: ('A' for Active; 'I' for Inactive)
REMARK    1  A    between atoms: C_4  and  C_7
REMARK    2  A    between atoms: C_7  and  C_8
REMARK                            x       y       z     vdW  Elec       q    Type
REMARK                         _______ _______ _______ _____ _____    ______ ____
ROOT
ATOM      1  C   UNL     1       4.120  -1.075   1.366  0.00  0.00    -0.033 C 
ATOM      2  C   UNL     1       3.859  -2.293   1.841  0.00  0.00    -0.018 C 
ATOM      3  C   UNL     1       4.292  -2.630   3.241  0.00  0.00    +0.016 C 
ATOM      4  C   UNL     1       4.440  -4.136   3.436  0.00  0.00    -0.003 C 
ATOM      5  C   UNL     1       4.919  -4.421   4.867  0.00  0.00    -0.020 C 
ATOM      6  C   UNL     1       5.073  -5.941   5.001  0.00  0.00    +0.159 C 
ATOM      7  O   UNL     1       5.436  -6.266   6.356  0.00  0.00    -0.297 OA
ATOM      8  P   UNL     1       6.681  -5.456   7.021  0.00  0.00    +0.421 P 
ATOM      9  O   UNL     1       8.024  -6.064   6.558  0.00  0.00    -0.239 OA
ATOM     10  N   UNL     1       6.535  -3.906   6.470  0.00  0.00    -0.267 NA
ATOM     11  N   UNL     1       6.186  -3.746   5.144  0.00  0.00    +0.399 N 
ATOM     12  C   UNL     1       6.078  -2.291   4.937  0.00  0.00    -0.046 C 
ATOM     13  C   UNL     1       5.658  -1.984   3.506  0.00  0.00    +0.005 C 
ATOM     14  C   UNL     1       5.555  -0.507   3.243  0.00  0.00    -0.009 C 
ATOM     15  C   UNL     1       4.815  -0.091   2.215  0.00  0.00    +0.017 C 
ATOM     16 BR   UNL     1       4.653   1.758   1.854  0.00  0.00    -0.050 Br
ATOM     17  O   UNL     1       6.581  -5.491   8.562  0.00  0.00    -0.128 OA
ATOM     18  H   UNL     1       6.697  -3.148   7.053  0.00  0.00    +0.113 HD
ATOM     19  H   UNL     1       6.906  -4.120   4.544  0.00  0.00    -0.055 HD
ENDROOT
BRANCH   1  20
ATOM     20  C   UNL     1       3.711  -0.707  -0.038  0.00  0.00    +0.071 C 
BRANCH  20  24
ATOM     21  C   UNL     1       6.988  -1.369  -2.697  0.00  0.00    +0.000 A 
ATOM     22  C   UNL     1       6.146  -2.414  -2.364  0.00  0.00    +0.000 A 
ATOM     23  C   UNL     1       5.085  -2.200  -1.503  0.00  0.00    +0.004 A 
ATOM     24  C   UNL     1       4.868  -0.941  -0.975  0.00  0.00    -0.043 A 
ATOM     25  C   UNL     1       5.710   0.103  -1.307  0.00  0.00    +0.004 A 
ATOM     26  C   UNL     1       6.770  -0.111  -2.169  0.00  0.00    +0.000 A 
ENDBRANCH  20  24
ENDBRANCH   1  20
TORSDOF 2
