REMARK  Name = ZINC12246055
REMARK  7 active torsions:
REMARK  status: ('A' for Active; 'I' for Inactive)
REMARK    1  A    between atoms: C_1  and  N_2
REMARK    2  A    between atoms: N_2  and  C_3
REMARK    3  A    between atoms: C_3  and  C_4
REMARK    4  A    between atoms: C_14  and  C_16
REMARK    5  A    between atoms: C_16  and  O_17
REMARK    6  A    between atoms: O_17  and  C_18
REMARK    7  A    between atoms: N_27  and  C_30
REMARK                            x       y       z     vdW  Elec       q    Type
REMARK                         _______ _______ _______ _____ _____    ______ ____
ROOT
ATOM      1  C   UNL     1      -0.235   1.240  -2.366  0.00  0.00    +0.235 A 
ATOM      2  C   UNL     1      -0.872   1.666  -3.530  0.00  0.00    +0.072 A 
ATOM      3  C   UNL     1      -0.320   1.297  -4.745  0.00  0.00    +0.051 A 
ATOM      4  C   UNL     1       0.834   0.513  -4.727  0.00  0.00    +0.144 A 
ATOM      5  N   UNL     1       1.366   0.151  -3.570  0.00  0.00    -0.131 NA
ATOM      6  N   UNL     1       0.855   0.499  -2.445  0.00  0.00    -0.110 NA
ATOM      7  N   UNL     1       1.425   0.112  -5.923  0.00  0.00    -0.311 N 
ATOM      8  C   UNL     1       0.466  -0.615  -6.766  0.00  0.00    +0.125 C 
ATOM      9  C   UNL     1       1.128  -0.968  -8.100  0.00  0.00    +0.125 C 
ATOM     10  N   UNL     1       2.326  -1.781  -7.849  0.00  0.00    -0.314 N 
ATOM     11  C   UNL     1       3.285  -1.055  -7.005  0.00  0.00    +0.125 C 
ATOM     12  C   UNL     1       2.623  -0.702  -5.672  0.00  0.00    +0.125 C 
ENDROOT
BRANCH  10  13
ATOM     13  C   UNL     1       2.915  -2.182  -9.043  0.00  0.00    +0.099 A 
ATOM     14  C   UNL     1       2.166  -2.886  -9.979  0.00  0.00    +0.042 A 
ATOM     15  C   UNL     1       2.765  -3.279 -11.162  0.00  0.00    +0.005 A 
ATOM     16  C   UNL     1       4.098  -2.951 -11.370  0.00  0.00    +0.018 A 
ATOM     17  C   UNL     1       4.782  -2.250 -10.398  0.00  0.00    +0.084 A 
ATOM     18  N   UNL     1       4.224  -1.843  -9.226  0.00  0.00    -0.350 N 
ATOM     19  H   UNL     1       4.755  -1.315  -8.524  0.00  0.00    +0.166 HD
ENDBRANCH  10  13
BRANCH   1  20
ATOM     20  O   UNL     1      -0.738   1.583  -1.152  0.00  0.00    -0.466 OA
BRANCH  20  21
ATOM     21  C   UNL     1      -0.037   1.106  -0.001  0.00  0.00    +0.326 C 
BRANCH  21  24
ATOM     22  C   UNL     1       0.889   0.337   2.567  0.00  0.00    +0.132 C 
ATOM     23  N   UNL     1      -0.250   1.251   2.459  0.00  0.00    -0.296 N 
ATOM     24  C   UNL     1      -0.737   1.582   1.246  0.00  0.00    +0.253 C 
ATOM     25  O   UNL     1      -1.737   2.262   1.158  0.00  0.00    -0.272 OA
BRANCH  23  26
ATOM     26  C   UNL     1      -0.861   1.807   3.669  0.00  0.00    +0.165 C 
BRANCH  26  27
ATOM     27  C   UNL     1      -1.883   0.839   4.206  0.00  0.00    +0.083 A 
ATOM     28  C   UNL     1      -1.665  -0.113   5.200  0.00  0.00    -0.002 A 
ATOM     29  C   UNL     1      -2.828  -0.783   5.401  0.00  0.00    +0.040 A 
ATOM     30  N   UNL     1      -3.745  -0.278   4.559  0.00  0.00    -0.281 N 
ATOM     31  H   UNL     1      -4.696  -0.575   4.477  0.00  0.00    +0.189 HD
ATOM     32  N   UNL     1      -3.130   0.740   3.816  0.00  0.00    -0.177 NA
ATOM     33  C   UNL     1      -3.000  -1.897   6.403  0.00  0.00    +0.055 C 
ATOM     34  C   UNL     1      -1.610  -2.391   6.821  0.00  0.00    +0.006 C 
ATOM     35  C   UNL     1      -0.740  -1.195   7.216  0.00  0.00    +0.005 C 
ATOM     36  C   UNL     1      -0.392  -0.379   5.965  0.00  0.00    +0.039 C 
ENDBRANCH  26  27
ENDBRANCH  23  26
ENDBRANCH  21  24
ENDBRANCH  20  21
ENDBRANCH   1  20
TORSDOF 6
