REMARK  Name = ZINC12900398
REMARK  4 active torsions:
REMARK  status: ('A' for Active; 'I' for Inactive)
REMARK    1  A    between atoms: C_1  and  C_2
REMARK    2  A    between atoms: C_2  and  C_3
REMARK    3  A    between atoms: C_2  and  C_4
REMARK    4  A    between atoms: N_12  and  C_15
REMARK                            x       y       z     vdW  Elec       q    Type
REMARK                         _______ _______ _______ _____ _____    ______ ____
ROOT
ATOM      1  C   UNL     1      -4.164   2.959  -0.704  0.00  0.00    -0.055 C 
ATOM      2  C   UNL     1      -4.428   3.225   0.793  0.00  0.00    +0.073 C 
ATOM      3  C   UNL     1      -3.252   4.131   1.252  0.00  0.00    +0.087 C 
ATOM      4  C   UNL     1      -3.921   5.435   1.625  0.00  0.00    +0.229 C 
ATOM      5  O   UNL     1      -3.353   6.417   2.052  0.00  0.00    -0.275 OA
ATOM      6  N   UNL     1      -5.238   5.336   1.411  0.00  0.00    -0.210 N 
ATOM      7  C   UNL     1      -5.636   4.149   0.939  0.00  0.00    +0.228 C 
ATOM      8  O   UNL     1      -6.780   3.849   0.673  0.00  0.00    -0.275 OA
ATOM      9  C   UNL     1      -2.405   4.332  -0.012  0.00  0.00    +0.032 C 
ATOM     10  C   UNL     1      -1.805   5.707  -0.061  0.00  0.00    -0.026 A 
ATOM     11  C   UNL     1      -2.346   6.975  -0.065  0.00  0.00    +0.005 A 
ATOM     12  C   UNL     1      -1.516   8.081  -0.116  0.00  0.00    +0.000 A 
ATOM     13  C   UNL     1      -0.144   7.911  -0.164  0.00  0.00    +0.002 A 
ATOM     14  C   UNL     1       0.401   6.644  -0.161  0.00  0.00    +0.026 A 
ATOM     15  C   UNL     1      -0.429   5.526  -0.111  0.00  0.00    +0.053 A 
ATOM     16  N   UNL     1      -0.110   4.159  -0.098  0.00  0.00    -0.265 N 
ATOM     17  C   UNL     1      -1.232   3.385  -0.039  0.00  0.00    +0.112 A 
ATOM     18  N   UNL     1      -1.196   2.083  -0.020  0.00  0.00    -0.234 NA
ATOM     19  C   UNL     1      -0.032   1.393  -0.046  0.00  0.00    +0.078 A 
ATOM     20  C   UNL     1      -0.003  -0.003  -0.020  0.00  0.00    +0.028 A 
ATOM     21  C   UNL     1       1.206  -0.661  -0.054  0.00  0.00    +0.002 A 
ATOM     22  C   UNL     1       2.400   0.047  -0.115  0.00  0.00    +0.001 A 
ATOM     23  C   UNL     1       2.397   1.424  -0.142  0.00  0.00    +0.015 A 
ATOM     24  C   UNL     1       1.184   2.110  -0.109  0.00  0.00    +0.065 A 
ATOM     25  C   UNL     1       1.117   3.576  -0.135  0.00  0.00    +0.266 A 
ATOM     26  O   UNL     1       2.130   4.249  -0.188  0.00  0.00    -0.267 OA
ATOM     27  N   UNL     1      -3.310   4.075  -1.118  0.00  0.00    +0.393 N 
ATOM     28  H   UNL     1      -3.882   4.906  -1.310  0.00  0.00    -0.084 HD
ATOM     29  H   UNL     1      -2.780   3.823  -1.960  0.00  0.00    -0.084 HD
ENDROOT
BRANCH   6  30
ATOM     30  C   UNL     1      -6.128   6.390   1.660  0.00  0.00    +0.044 A 
ATOM     31  C   UNL     1      -6.361   6.811   2.962  0.00  0.00    +0.024 A 
ATOM     32  C   UNL     1      -7.235   7.853   3.204  0.00  0.00    +0.002 A 
ATOM     33  C   UNL     1      -7.885   8.470   2.151  0.00  0.00    +0.000 A 
ATOM     34  C   UNL     1      -7.658   8.050   0.854  0.00  0.00    +0.002 A 
ATOM     35  C   UNL     1      -6.782   7.012   0.605  0.00  0.00    +0.024 A 
ENDBRANCH   6  30
BRANCH   1  37
ATOM     36  C   UNL     1      -5.195   2.678  -2.962  0.00  0.00    +0.005 C 
ATOM     37  C   UNL     1      -5.481   2.944  -1.483  0.00  0.00    -0.031 C 
ATOM     38  C   UNL     1      -6.387   1.841  -0.932  0.00  0.00    +0.005 C 
ENDBRANCH   1  37
TORSDOF 2
