REMARK  Name = ZINC36795288
REMARK  13 active torsions:
REMARK  status: ('A' for Active; 'I' for Inactive)
REMARK    1  A    between atoms: C_1  and  C_2
REMARK    2  A    between atoms: C_2  and  O_3
REMARK    3  A    between atoms: O_3  and  C_4
REMARK    4  A    between atoms: C_4  and  C_6
REMARK    5  A    between atoms: C_7  and  C_32
REMARK    6  A    between atoms: C_8  and  C_28
REMARK    7  A    between atoms: C_10  and  N_11
REMARK    8  A    between atoms: C_12  and  C_14
REMARK    9  A    between atoms: C_14  and  S_15
REMARK   10  A    between atoms: S_15  and  C_16
REMARK   11  A    between atoms: C_19  and  C_25
REMARK   12  A    between atoms: C_21  and  N_22
REMARK   13  A    between atoms: N_30  and  C_31
REMARK                            x       y       z     vdW  Elec       q    Type
REMARK                         _______ _______ _______ _____ _____    ______ ____
ROOT
ATOM      1  N   UNL     1      -3.036  -2.525   2.504  0.00  0.00    -0.279 N 
ATOM      2  C   UNL     1      -3.810  -2.867   3.553  0.00  0.00    +0.228 C 
ATOM      3  O   UNL     1      -4.912  -3.338   3.365  0.00  0.00    -0.275 OA
ATOM      4  H   UNL     1      -2.155  -2.148   2.654  0.00  0.00    +0.155 HD
ENDROOT
BRANCH   1   9
ATOM      5  C   UNL     1      -2.845  -2.417   0.016  0.00  0.00    +0.091 A 
ATOM      6  C   UNL     1      -3.515  -2.699  -1.167  0.00  0.00    -0.015 A 
ATOM      7  C   UNL     1      -4.767  -3.238  -1.041  0.00  0.00    +0.079 A 
ATOM      8  S   UNL     1      -4.977  -3.336   0.725  0.00  0.00    -0.068 S 
ATOM      9  C   UNL     1      -3.498  -2.709   1.215  0.00  0.00    +0.087 A 
ATOM     10  C   UNL     1      -2.898  -2.428  -2.514  0.00  0.00    +0.046 C 
BRANCH   7  11
ATOM     11  C   UNL     1      -5.702  -3.634  -2.096  0.00  0.00    +0.251 C 
ATOM     12  O   UNL     1      -5.394  -3.496  -3.266  0.00  0.00    -0.270 OA
ATOM     13  N   UNL     1      -6.904  -4.152  -1.773  0.00  0.00    -0.314 N 
ATOM     14  C   UNL     1      -7.839  -4.548  -2.829  0.00  0.00    +0.128 C 
ATOM     15  H   UNL     1      -7.149  -4.262  -0.841  0.00  0.00    +0.149 HD
ENDBRANCH   7  11
BRANCH   5  16
ATOM     16  C   UNL     1      -1.497  -1.838   0.006  0.00  0.00    +0.342 C 
ATOM     17  O   UNL     1      -0.523  -2.565  -0.007  0.00  0.00    -0.245 OA
BRANCH  16  18
ATOM     18  O   UNL     1      -1.339  -0.499   0.012  0.00  0.00    -0.461 OA
BRANCH  18  20
ATOM     19  C   UNL     1      -0.019   1.526   0.010  0.00  0.00    +0.048 C 
ATOM     20  C   UNL     1       0.002  -0.004   0.002  0.00  0.00    +0.229 C 
ENDBRANCH  18  20
ENDBRANCH  16  18
ENDBRANCH   5  16
ENDBRANCH   1   9
BRANCH   2  21
ATOM     21  C   UNL     1      -3.306  -2.666   4.958  0.00  0.00    +0.170 C 
BRANCH  21  22
ATOM     22  S   UNL     1      -4.568  -3.219   6.138  0.00  0.00    -0.114 S 
BRANCH  22  23
ATOM     23  C   UNL     1      -3.837  -2.922   7.714  0.00  0.00    +0.039 A 
ATOM     24  C   UNL     1      -2.561  -2.369   7.796  0.00  0.00    +0.018 A 
ATOM     25  C   UNL     1      -1.990  -2.137   9.014  0.00  0.00    +0.014 A 
ATOM     26  C   UNL     1      -2.685  -2.454  10.185  0.00  0.00    +0.039 A 
ATOM     27  C   UNL     1      -3.966  -3.009  10.107  0.00  0.00    +0.047 A 
ATOM     28  C   UNL     1      -4.539  -3.235   8.876  0.00  0.00    +0.140 A 
BRANCH  26  29
ATOM     29  C   UNL     1      -2.068  -2.204  11.501  0.00  0.00    +0.242 C 
ATOM     30  O   UNL     1      -2.674  -2.480  12.519  0.00  0.00    -0.270 OA
ATOM     31  N   UNL     1      -0.833  -1.669  11.576  0.00  0.00    -0.325 N 
ATOM     32  H   UNL     1      -0.350  -1.449  10.764  0.00  0.00    +0.145 HD
ATOM     33  H   UNL     1      -0.427  -1.505  12.442  0.00  0.00    +0.145 HD
ENDBRANCH  26  29
BRANCH  28  34
ATOM     34  N   UNL     1      -5.898  -3.817   8.787  0.00  0.00    +0.058 N 
ATOM     35  O   UNL     1      -6.506  -4.088   9.795  0.00  0.00    -0.126 OA
ATOM     36  O   UNL     1      -6.398  -4.020   7.705  0.00  0.00    -0.126 OA
ENDBRANCH  28  34
ENDBRANCH  22  23
ENDBRANCH  21  22
ENDBRANCH   2  21
TORSDOF 10
