REMARK  Name = ZINC04175586
REMARK  7 active torsions:
REMARK  status: ('A' for Active; 'I' for Inactive)
REMARK    1  A    between atoms: C_1  and  C_2
REMARK    2  A    between atoms: C_5  and  O_31
REMARK    3  A    between atoms: C_19  and  C_30
REMARK    4  A    between atoms: C_24  and  C_25
REMARK    5  A    between atoms: C_24  and  O_29
REMARK    6  A    between atoms: C_25  and  C_27
REMARK    7  A    between atoms: C_27  and  O_28
REMARK                            x       y       z     vdW  Elec       q    Type
REMARK                         _______ _______ _______ _____ _____    ______ ____
ROOT
ATOM      1  C   UNL     1       0.898   2.166  -0.187  0.00  0.00    +0.012 C 
ATOM      2  C   UNL     1       0.657   0.663  -0.030  0.00  0.00    -0.019 C 
ATOM      3  C   UNL     1      -0.838   0.406   0.169  0.00  0.00    +0.010 C 
ATOM      4  C   UNL     1      -1.319   1.133   1.426  0.00  0.00    +0.032 C 
ATOM      5  C   UNL     1      -0.550   0.610   2.641  0.00  0.00    +0.115 C 
ATOM      6  C   UNL     1       0.945   0.869   2.446  0.00  0.00    +0.035 C 
ATOM      7  C   UNL     1       1.430   0.151   1.187  0.00  0.00    -0.002 C 
ATOM      8  C   UNL     1       1.193  -1.355   1.330  0.00  0.00    +0.004 C 
ATOM      9  C   UNL     1       1.719  -2.064   0.082  0.00  0.00    +0.005 C 
ATOM     10  C   UNL     1       0.971  -1.564  -1.158  0.00  0.00    +0.003 C 
ATOM     11  C   UNL     1       1.129  -0.058  -1.287  0.00  0.00    +0.065 C 
ATOM     12  C   UNL     1       2.596   0.215  -1.534  0.00  0.00    +0.138 C 
ATOM     13  O   UNL     1       3.232   0.944  -0.811  0.00  0.00    -0.297 OA
ATOM     14  C   UNL     1       3.230  -0.466  -2.722  0.00  0.00    +0.084 C 
ATOM     15  C   UNL     1       2.969  -1.975  -2.680  0.00  0.00    +0.013 C 
ATOM     16  C   UNL     1       1.508  -2.264  -2.386  0.00  0.00    +0.002 C 
ATOM     17  C   UNL     1       0.789  -1.848  -3.681  0.00  0.00    +0.008 C 
ATOM     18  C   UNL     1       1.747  -2.340  -4.791  0.00  0.00    +0.043 C 
ATOM     19  C   UNL     1       3.117  -2.476  -4.144  0.00  0.00    +0.132 C 
ATOM     20  C   UNL     1       3.925  -2.693  -1.725  0.00  0.00    +0.015 C 
ENDROOT
BRANCH  19  21
ATOM     21  C   UNL     1       3.585  -3.909  -4.157  0.00  0.00    +0.190 C 
ATOM     22  O   UNL     1       3.237  -4.665  -3.283  0.00  0.00    -0.292 OA
BRANCH  21  23
ATOM     23  C   UNL     1       4.488  -4.397  -5.261  0.00  0.00    +0.233 C 
BRANCH  23  24
ATOM     24  O   UNL     1       4.790  -5.778  -5.053  0.00  0.00    -0.387 OA
ATOM     25  H   UNL     1       5.368  -6.160  -5.728  0.00  0.00    +0.210 HD
ENDBRANCH  23  24
ENDBRANCH  21  23
ENDBRANCH  19  21
BRANCH  19  26
ATOM     26  O   UNL     1       4.042  -1.650  -4.855  0.00  0.00    -0.380 OA
ATOM     27  H   UNL     1       4.177  -1.913  -5.776  0.00  0.00    +0.211 HD
ENDBRANCH  19  26
BRANCH   5  28
ATOM     28  O   UNL     1      -0.776  -0.794   2.781  0.00  0.00    -0.392 OA
ATOM     29  H   UNL     1      -1.705  -1.032   2.908  0.00  0.00    +0.210 HD
ENDBRANCH   5  28
TORSDOF 5
