REMARK  Name = ZINC19702463
REMARK  3 active torsions:
REMARK  status: ('A' for Active; 'I' for Inactive)
REMARK    1  A    between atoms: C_1  and  O_2
REMARK    2  A    between atoms: O_2  and  C_3
REMARK    3  A    between atoms: C_3  and  C_5
REMARK                            x       y       z     vdW  Elec       q    Type
REMARK                         _______ _______ _______ _____ _____    ______ ____
ROOT
ATOM      1  C   UNL     1       0.658  -2.011  -1.121  0.00  0.00    +0.180 C 
ATOM      2  C   UNL     1       0.085  -2.744  -0.105  0.00  0.00    +0.224 C 
ATOM      3  C   UNL     1       0.189  -4.184  -0.073  0.00  0.00    +0.088 A 
ATOM      4  C   UNL     1       1.034  -4.942  -0.895  0.00  0.00    +0.126 A 
ATOM      5  C   UNL     1       0.954  -6.297  -0.693  0.00  0.00    +0.037 A 
ATOM      6  C   UNL     1       0.116  -6.781   0.259  0.00  0.00    +0.048 A 
ATOM      7  S   UNL     1      -0.599  -5.409   0.922  0.00  0.00    -0.091 S 
ATOM      8  S   UNL     1       2.072  -4.068  -2.045  0.00  0.00    +0.074 S 
ATOM      9  O   UNL     1       3.305  -3.811  -1.387  0.00  0.00    -0.150 OA
ATOM     10  O   UNL     1       1.988  -4.749  -3.289  0.00  0.00    -0.150 OA
ATOM     11  N   UNL     1       1.292  -2.602  -2.233  0.00  0.00    -0.206 N 
ATOM     12  O   UNL     1      -0.589  -2.103   0.881  0.00  0.00    -0.284 OA
ATOM     13  H   UNL     1       1.276  -2.161  -3.096  0.00  0.00    +0.174 HD
ENDROOT
BRANCH   1  14
ATOM     14  C   UNL     1       0.602  -0.604  -1.049  0.00  0.00    +0.358 C 
ATOM     15  O   UNL     1       1.095   0.071  -1.935  0.00  0.00    -0.243 OA
BRANCH  14  17
ATOM     16  C   UNL     1      -0.017   1.425   0.010  0.00  0.00    +0.280 C 
ATOM     17  O   UNL     1       0.002  -0.004   0.002  0.00  0.00    -0.463 OA
ENDBRANCH  14  17
ENDBRANCH   1  14
TORSDOF 2
