REMARK  Name = ZINC19648096
REMARK  11 active torsions:
REMARK  status: ('A' for Active; 'I' for Inactive)
REMARK    1  A    between atoms: C_1  and  C_2
REMARK    2  A    between atoms: C_2  and  C_3
REMARK    3  A    between atoms: C_2  and  N_4
REMARK    4  A    between atoms: C_5  and  C_7
REMARK    5  A    between atoms: C_11  and  N_12
REMARK    6  A    between atoms: C_13  and  C_15
REMARK    7  A    between atoms: C_21  and  C_23
REMARK    8  A    between atoms: C_27  and  C_31
REMARK    9  A    between atoms: C_31  and  C_32
REMARK   10  A    between atoms: C_31  and  C_33
REMARK   11  A    between atoms: C_31  and  C_34
REMARK                            x       y       z     vdW  Elec       q    Type
REMARK                         _______ _______ _______ _____ _____    ______ ____
ROOT
ATOM      1  C   UNL     1      -3.141   1.188  -2.240  0.00  0.00    +0.069 A 
ATOM      2  C   UNL     1      -2.222   1.220  -1.115  0.00  0.00    -0.023 A 
ATOM      3  C   UNL     1      -2.763   0.893   0.079  0.00  0.00    -0.004 A 
ATOM      4  S   UNL     1      -4.463   0.546  -0.275  0.00  0.00    -0.077 S 
ATOM      5  C   UNL     1      -4.457   0.831  -1.984  0.00  0.00    +0.084 A 
ATOM      6  C   UNL     1      -2.065   0.841   1.403  0.00  0.00    +0.046 C 
ATOM      7  C   UNL     1      -0.726   1.578   1.271  0.00  0.00    -0.000 C 
ATOM      8  C   UNL     1      -0.013   1.086   0.008  0.00  0.00    +0.009 C 
ATOM      9  C   UNL     1      -0.749   1.591  -1.234  0.00  0.00    +0.037 C 
ENDROOT
BRANCH   1  11
ATOM     10  N   UNL     1      -2.756   2.794  -4.033  0.00  0.00    -0.309 N 
ATOM     11  C   UNL     1      -2.694   1.520  -3.597  0.00  0.00    +0.247 C 
ATOM     12  O   UNL     1      -2.267   0.646  -4.328  0.00  0.00    -0.270 OA
ATOM     13  H   UNL     1      -3.143   3.584  -3.372  0.00  0.00    +0.149 HD
BRANCH  10  15
ATOM     14  C   UNL     1      -3.018   4.397  -5.861  0.00  0.00    +0.027 C 
ATOM     15  C   UNL     1      -2.310   3.126  -5.388  0.00  0.00    +0.067 C 
ATOM     16  C   UNL     1      -0.797   3.356  -5.385  0.00  0.00    +0.027 C 
ENDBRANCH  10  15
ENDBRANCH   1  11
BRANCH   5  17
ATOM     17  N   UNL     1      -5.512   0.728  -2.878  0.00  0.00    -0.279 N 
ATOM     18  C   UNL     1      -6.734   0.364  -2.440  0.00  0.00    +0.221 C 
ATOM     19  O   UNL     1      -6.910   0.126  -1.264  0.00  0.00    -0.275 OA
ATOM     20  H   UNL     1      -5.352   0.943  -3.945  0.00  0.00    +0.155 HD
BRANCH  18  21
ATOM     21  C   UNL     1      -7.880   0.251  -3.412  0.00  0.00    +0.089 C 
ATOM     22  C   UNL     1      -7.543  -0.792  -4.479  0.00  0.00    +0.013 C 
ATOM     23  C   UNL     1      -7.307  -2.148  -3.810  0.00  0.00    +0.001 C 
ATOM     24  C   UNL     1      -8.571  -2.574  -3.061  0.00  0.00    +0.001 C 
ATOM     25  C   UNL     1      -8.908  -1.530  -1.994  0.00  0.00    +0.015 C 
ATOM     26  C   UNL     1      -9.144  -0.175  -2.663  0.00  0.00    +0.114 C 
BRANCH  26  27
ATOM     27  C   UNL     1      -9.475   0.853  -1.611  0.00  0.00    +0.360 C 
ATOM     28  O   UNL     1      -8.772   1.827  -1.476  0.00  0.00    -0.246 OA
ATOM     29  O   UNL     1     -10.551   0.687  -0.826  0.00  0.00    -0.246 OA
ENDBRANCH  26  27
ENDBRANCH  18  21
ENDBRANCH   5  17
BRANCH   7  30
ATOM     30  C   UNL     1       0.140   1.284   2.497  0.00  0.00    -0.035 C 
ATOM     31  C   UNL     1       1.483   2.005   2.357  0.00  0.00    +0.011 C 
ATOM     32  C   UNL     1      -0.575   1.777   3.756  0.00  0.00    +0.011 C 
ATOM     33  C   UNL     1       0.380  -0.223   2.603  0.00  0.00    +0.011 C 
ENDBRANCH   7  30
TORSDOF 6
