REMARK  Name = ZINC06730721
REMARK  4 active torsions:
REMARK  status: ('A' for Active; 'I' for Inactive)
REMARK    1  A    between atoms: C_6  and  C_22
REMARK    2  A    between atoms: C_7  and  N_9
REMARK    3  A    between atoms: C_10  and  C_12
REMARK    4  A    between atoms: C_18  and  C_20
REMARK                            x       y       z     vdW  Elec       q    Type
REMARK                         _______ _______ _______ _____ _____    ______ ____
ROOT
ATOM      1  C   UNL     1       2.890  -2.512  -0.299  0.00  0.00    +0.005 C 
ATOM      2  C   UNL     1       3.941  -1.671   0.431  0.00  0.00    +0.005 C 
ATOM      3  C   UNL     1       3.810  -0.210  -0.026  0.00  0.00    +0.043 C 
ATOM      4  C   UNL     1       2.364   0.175   0.034  0.00  0.00    -0.004 A 
ATOM      5  C   UNL     1       1.304  -0.654   0.144  0.00  0.00    -0.023 A 
ATOM      6  C   UNL     1       0.007   0.001   0.182  0.00  0.00    +0.069 A 
ATOM      7  C   UNL     1      -0.014   1.386   0.103  0.00  0.00    +0.084 A 
ATOM      8  S   UNL     1       1.664   1.800  -0.019  0.00  0.00    -0.077 S 
ATOM      9  C   UNL     1       1.493  -2.164   0.220  0.00  0.00    +0.037 C 
ENDROOT
BRANCH   6  10
ATOM     10  C   UNL     1      -1.232  -0.773   0.299  0.00  0.00    +0.249 C 
ATOM     11  O   UNL     1      -1.808  -1.156  -0.702  0.00  0.00    -0.270 OA
ATOM     12  N   UNL     1      -1.734  -1.061   1.517  0.00  0.00    -0.293 N 
ATOM     13  C   UNL     1      -1.052  -0.615   2.742  0.00  0.00    +0.136 C 
ATOM     14  C   UNL     1      -2.086   0.089   3.636  0.00  0.00    +0.179 C 
ATOM     15  O   UNL     1      -3.214  -0.771   3.815  0.00  0.00    -0.377 OA
ATOM     16  C   UNL     1      -3.913  -1.078   2.607  0.00  0.00    +0.179 C 
ATOM     17  C   UNL     1      -2.977  -1.837   1.660  0.00  0.00    +0.136 C 
ENDBRANCH   6  10
BRANCH   7  18
ATOM     18  N   UNL     1      -1.112   2.233   0.113  0.00  0.00    -0.279 N 
ATOM     19  C   UNL     1      -0.936   3.566   0.026  0.00  0.00    +0.222 C 
ATOM     20  O   UNL     1       0.183   4.025  -0.061  0.00  0.00    -0.275 OA
ATOM     21  H   UNL     1      -2.007   1.865   0.182  0.00  0.00    +0.155 HD
BRANCH  19  22
ATOM     22  C   UNL     1      -2.129   4.486   0.037  0.00  0.00    +0.093 C 
ATOM     23  C   UNL     1      -1.802   5.743   0.847  0.00  0.00    +0.040 C 
ATOM     24  C   UNL     1      -0.808   6.590   0.108  0.00  0.00    -0.030 C 
ATOM     25  C   UNL     1      -0.549   6.469  -1.155  0.00  0.00    -0.030 C 
ATOM     26  C   UNL     1      -1.198   5.458  -2.053  0.00  0.00    +0.042 C 
ATOM     27  C   UNL     1      -2.468   4.909  -1.398  0.00  0.00    +0.118 C 
BRANCH  27  28
ATOM     28  C   UNL     1      -2.967   3.716  -2.173  0.00  0.00    +0.360 C 
ATOM     29  O   UNL     1      -3.046   2.637  -1.635  0.00  0.00    -0.246 OA
ATOM     30  O   UNL     1      -3.325   3.853  -3.459  0.00  0.00    -0.246 OA
ENDBRANCH  27  28
ENDBRANCH  19  22
ENDBRANCH   7  18
TORSDOF 4
