REMARK  Name = ZINC49377736
REMARK  6 active torsions:
REMARK  status: ('A' for Active; 'I' for Inactive)
REMARK    1  A    between atoms: C_1  and  C_2
REMARK    2  A    between atoms: C_2  and  C_20
REMARK    3  A    between atoms: C_8  and  C_10
REMARK    4  A    between atoms: C_10  and  C_11
REMARK    5  A    between atoms: C_14  and  S_16
REMARK    6  A    between atoms: S_16  and  N_19
REMARK                            x       y       z     vdW  Elec       q    Type
REMARK                         _______ _______ _______ _____ _____    ______ ____
ROOT
ATOM      1  C   UNL     1       2.483  -1.905   2.053  0.00  0.00    +0.138 C 
ENDROOT
BRANCH   1   9
ATOM      2  C   UNL     1      -0.019   1.552   0.015  0.00  0.00    +0.034 C 
ATOM      3  C   UNL     1      -0.083   0.024  -0.054  0.00  0.00    +0.055 C 
ATOM      4  C   UNL     1      -1.543  -0.436   0.032  0.00  0.00    +0.185 C 
ATOM      5  O   UNL     1      -2.054  -0.143   1.334  0.00  0.00    -0.376 OA
ATOM      6  C   UNL     1      -1.382  -0.828   2.394  0.00  0.00    +0.179 C 
ATOM      7  C   UNL     1       0.086  -0.388   2.430  0.00  0.00    +0.136 C 
ATOM      8  N   UNL     1       0.653  -0.554   1.082  0.00  0.00    -0.292 N 
ATOM      9  C   UNL     1       1.812  -1.215   0.893  0.00  0.00    +0.221 C 
ATOM     10  O   UNL     1       2.315  -1.254  -0.210  0.00  0.00    -0.275 OA
ATOM     11  C   UNL     1       0.534  -0.459  -1.367  0.00  0.00    +0.034 C 
ENDBRANCH   1   9
BRANCH   1  12
ATOM     12  C   UNL     1       3.753  -2.564   1.578  0.00  0.00    +0.000 A 
ATOM     13  C   UNL     1       5.010  -2.058   1.528  0.00  0.00    +0.013 A 
ATOM     14  C   UNL     1       6.034  -2.855   1.050  0.00  0.00    +0.036 A 
ATOM     15  C   UNL     1       5.751  -4.117   0.646  0.00  0.00    +0.142 A 
ATOM     16  S   UNL     1       3.993  -4.215   0.944  0.00  0.00    -0.073 S 
BRANCH  15  17
ATOM     17  S   UNL     1       6.837  -5.345   0.001  0.00  0.00    +0.062 S 
ATOM     18  O   UNL     1       6.036  -6.233  -0.766  0.00  0.00    -0.153 OA
ATOM     19  O   UNL     1       7.950  -4.654  -0.550  0.00  0.00    -0.153 OA
BRANCH  17  20
ATOM     20  N   UNL     1       7.411  -6.216   1.287  0.00  0.00    -0.203 NA
ATOM     21  H   UNL     1       7.127  -5.995   2.188  0.00  0.00    +0.144 HD
ATOM     22  H   UNL     1       8.031  -6.948   1.140  0.00  0.00    +0.144 HD
ENDBRANCH  17  20
ENDBRANCH  15  17
ENDBRANCH   1  12
TORSDOF 4
