REMARK  Name = ZINC62404909
REMARK  10 active torsions:
REMARK  status: ('A' for Active; 'I' for Inactive)
REMARK    1  A    between atoms: C_1  and  C_2
REMARK    2  A    between atoms: C_2  and  N_3
REMARK    3  A    between atoms: C_11  and  C_12
REMARK    4  A    between atoms: C_12  and  C_13
REMARK    5  A    between atoms: C_12  and  N_14
REMARK    6  A    between atoms: N_17  and  C_18
REMARK    7  A    between atoms: C_21  and  O_25
REMARK    8  A    between atoms: C_23  and  C_24
REMARK    9  A    between atoms: O_25  and  C_26
REMARK   10  A    between atoms: C_26  and  C_27
REMARK                            x       y       z     vdW  Elec       q    Type
REMARK                         _______ _______ _______ _____ _____    ______ ____
ROOT
ATOM      1  N   UNL     1      -2.100  -1.778  -3.296  0.00  0.00    -0.290 N 
ATOM      2  C   UNL     1      -1.413  -2.108  -4.407  0.00  0.00    +0.304 C 
ATOM      3  O   UNL     1      -0.472  -1.427  -4.765  0.00  0.00    -0.252 OA
ATOM      4  N   UNL     1      -1.769  -3.194  -5.122  0.00  0.00    -0.269 N 
ATOM      5  H   UNL     1      -2.851  -2.321  -3.010  0.00  0.00    +0.151 HD
ATOM      6  H   UNL     1      -2.466  -3.783  -4.793  0.00  0.00    +0.156 HD
ENDROOT
BRANCH   4   7
ATOM      7  C   UNL     1      -1.132  -3.472  -6.339  0.00  0.00    +0.038 A 
ATOM      8  C   UNL     1      -0.544  -2.445  -7.065  0.00  0.00    +0.027 A 
ATOM      9  C   UNL     1       0.084  -2.719  -8.264  0.00  0.00    +0.047 A 
ATOM     10  C   UNL     1       0.127  -4.021  -8.743  0.00  0.00    +0.122 A 
ATOM     11  C   UNL     1      -0.461  -5.047  -8.018  0.00  0.00    +0.050 A 
ATOM     12  C   UNL     1      -1.084  -4.774  -6.816  0.00  0.00    -0.026 A 
ATOM     13  C   UNL     1      -1.718  -5.891  -6.026  0.00  0.00    +0.046 C 
BRANCH  10  14
ATOM     14  O   UNL     1       0.744  -4.290  -9.924  0.00  0.00    -0.483 OA
BRANCH  14  15
ATOM     15  C   UNL     1       1.328  -3.185 -10.618  0.00  0.00    +0.324 C 
BRANCH  15  16
ATOM     16  C   UNL     1       1.962  -3.672 -11.895  0.00  0.00    +0.248 C 
ATOM     17  O   UNL     1       1.918  -4.850 -12.183  0.00  0.00    -0.272 OA
ATOM     18  N   UNL     1       2.577  -2.800 -12.718  0.00  0.00    -0.327 N 
ATOM     19  H   UNL     1       2.612  -1.858 -12.487  0.00  0.00    +0.145 HD
ATOM     20  H   UNL     1       2.985  -3.113 -13.540  0.00  0.00    +0.145 HD
ENDBRANCH  15  16
ENDBRANCH  14  15
ENDBRANCH  10  14
ENDBRANCH   4   7
BRANCH   1  21
ATOM     21  C   UNL     1      -1.713  -0.598  -2.519  0.00  0.00    +0.138 C 
ATOM     22  C   UNL     1      -2.372   0.646  -3.119  0.00  0.00    +0.036 C 
BRANCH  21  31
ATOM     23  N   UNL     1      -1.406  -0.490   0.004  0.00  0.00    -0.326 N 
ATOM     24  C   UNL     1      -2.175  -0.766   1.117  0.00  0.00    +0.069 A 
ATOM     25  C   UNL     1      -1.960  -0.682   2.486  0.00  0.00    +0.028 A 
ATOM     26  C   UNL     1      -2.964  -1.046   3.358  0.00  0.00    +0.002 A 
ATOM     27  C   UNL     1      -4.185  -1.495   2.877  0.00  0.00    +0.002 A 
ATOM     28  C   UNL     1      -4.415  -1.584   1.533  0.00  0.00    +0.030 A 
ATOM     29  C   UNL     1      -3.412  -1.221   0.630  0.00  0.00    +0.089 A 
ATOM     30  N   UNL     1      -3.336  -1.199  -0.726  0.00  0.00    -0.230 NA
ATOM     31  C   UNL     1      -2.165  -0.766  -1.091  0.00  0.00    +0.131 A 
BRANCH  23  33
ATOM     32  C   UNL     1      -0.046   1.543   0.004  0.00  0.00    +0.027 C 
ATOM     33  C   UNL     1      -0.030   0.013   0.002  0.00  0.00    +0.120 C 
ENDBRANCH  23  33
ENDBRANCH  21  31
ENDBRANCH   1  21
TORSDOF 7
