REMARK  Name = ZINC13413820
REMARK  8 active torsions:
REMARK  status: ('A' for Active; 'I' for Inactive)
REMARK    1  A    between atoms: C_1  and  C_2
REMARK    2  A    between atoms: C_2  and  O_3
REMARK    3  A    between atoms: O_3  and  C_4
REMARK    4  A    between atoms: C_7  and  N_10
REMARK    5  A    between atoms: C_20  and  S_21
REMARK    6  A    between atoms: S_21  and  C_22
REMARK    7  A    between atoms: C_22  and  C_23
REMARK    8  A    between atoms: C_31  and  C_32
REMARK                            x       y       z     vdW  Elec       q    Type
REMARK                         _______ _______ _______ _____ _____    ______ ____
ROOT
ATOM      1  N   UNL     1      -3.429  -3.272   2.495  0.00  0.00    -0.255 N 
ATOM      2  C   UNL     1      -3.189  -4.584   2.268  0.00  0.00    +0.267 A 
ATOM      3  O   UNL     1      -2.877  -5.335   3.175  0.00  0.00    -0.267 OA
ATOM      4  C   UNL     1      -3.320  -5.069   0.888  0.00  0.00    +0.065 A 
ATOM      5  C   UNL     1      -3.095  -6.403   0.552  0.00  0.00    +0.015 A 
ATOM      6  C   UNL     1      -3.231  -6.802  -0.749  0.00  0.00    +0.001 A 
ATOM      7  C   UNL     1      -3.590  -5.893  -1.737  0.00  0.00    +0.002 A 
ATOM      8  C   UNL     1      -3.817  -4.580  -1.435  0.00  0.00    +0.028 A 
ATOM      9  C   UNL     1      -3.686  -4.141  -0.114  0.00  0.00    +0.079 A 
ATOM     10  N   UNL     1      -3.905  -2.856   0.228  0.00  0.00    -0.223 NA
ATOM     11  C   UNL     1      -3.778  -2.443   1.465  0.00  0.00    +0.177 A 
ENDROOT
BRANCH   1  15
ATOM     12  C   UNL     1      -3.098  -1.744   6.362  0.00  0.00    +0.121 A 
ATOM     13  C   UNL     1      -4.312  -2.245   5.916  0.00  0.00    +0.047 A 
ATOM     14  C   UNL     1      -4.423  -2.752   4.636  0.00  0.00    +0.030 A 
ATOM     15  C   UNL     1      -3.318  -2.758   3.795  0.00  0.00    +0.052 A 
ATOM     16  C   UNL     1      -2.102  -2.260   4.244  0.00  0.00    +0.030 A 
ATOM     17  C   UNL     1      -1.994  -1.750   5.522  0.00  0.00    +0.047 A 
BRANCH  12  18
ATOM     18  O   UNL     1      -2.990  -1.246   7.623  0.00  0.00    -0.492 OA
BRANCH  18  20
ATOM     19  C   UNL     1      -1.784  -0.232   9.455  0.00  0.00    +0.048 C 
ATOM     20  C   UNL     1      -1.711  -0.746   8.015  0.00  0.00    +0.225 C 
ENDBRANCH  18  20
ENDBRANCH  12  18
ENDBRANCH   1  15
BRANCH  11  21
ATOM     21  S   UNL     1      -4.078  -0.743   1.819  0.00  0.00    -0.082 S 
BRANCH  21  22
ATOM     22  C   UNL     1      -4.485  -0.144   0.160  0.00  0.00    +0.117 C 
BRANCH  22  23
ATOM     23  C   UNL     1      -4.787   1.331   0.218  0.00  0.00    +0.023 A 
ATOM     24  C   UNL     1      -6.091   1.953   0.443  0.00  0.00    +0.025 A 
ATOM     25  C   UNL     1      -7.381   1.461   0.660  0.00  0.00    +0.012 A 
ATOM     26  C   UNL     1      -8.417   2.333   0.841  0.00  0.00    +0.001 A 
ATOM     27  C   UNL     1      -8.196   3.703   0.810  0.00  0.00    +0.004 A 
ATOM     28  C   UNL     1      -6.932   4.209   0.598  0.00  0.00    +0.047 A 
ATOM     29  C   UNL     1      -5.862   3.342   0.412  0.00  0.00    +0.136 A 
ATOM     30  O   UNL     1      -4.546   3.533   0.195  0.00  0.00    -0.448 OA
ATOM     31  C   UNL     1      -3.903   2.353   0.074  0.00  0.00    +0.221 A 
BRANCH  31  32
ATOM     32  C   UNL     1      -2.464   2.196  -0.171  0.00  0.00    +0.421 C 
ATOM     33  O   UNL     1      -1.979   1.085  -0.259  0.00  0.00    -0.237 OA
ATOM     34  O   UNL     1      -1.680   3.286  -0.304  0.00  0.00    -0.237 OA
ENDBRANCH  31  32
ENDBRANCH  22  23
ENDBRANCH  21  22
ENDBRANCH  11  21
TORSDOF 7
