REMARK  Name = ZINC20610758
REMARK  7 active torsions:
REMARK  status: ('A' for Active; 'I' for Inactive)
REMARK    1  A    between atoms: C_1  and  C_2
REMARK    2  A    between atoms: C_16  and  C_19
REMARK    3  A    between atoms: C_19  and  C_20
REMARK    4  A    between atoms: N_25  and  C_28
REMARK    5  A    between atoms: C_28  and  C_29
REMARK    6  A    between atoms: C_34  and  O_35
REMARK    7  A    between atoms: O_35  and  C_36
REMARK                            x       y       z     vdW  Elec       q    Type
REMARK                         _______ _______ _______ _____ _____    ______ ____
ROOT
ATOM      1  C   UNL     1       0.066   1.571   0.631  0.00  0.00    +0.045 C 
ATOM      2  C   UNL     1       0.078   0.070   0.497  0.00  0.00    -0.029 A 
ATOM      3  C   UNL     1       0.119  -0.508  -0.754  0.00  0.00    +0.005 A 
ATOM      4  C   UNL     1       0.131  -1.885  -0.887  0.00  0.00    +0.001 A 
ATOM      5  C   UNL     1       0.101  -2.686   0.241  0.00  0.00    +0.008 A 
ATOM      6  C   UNL     1       0.058  -2.112   1.492  0.00  0.00    +0.004 A 
ATOM      7  C   UNL     1       0.052  -0.728   1.638  0.00  0.00    +0.042 A 
ATOM      8  N   UNL     1       0.015  -0.386   2.991  0.00  0.00    -0.283 N 
ATOM      9  C   UNL     1      -0.002  -1.471   3.789  0.00  0.00    +0.243 C 
ATOM     10  O   UNL     1      -0.036  -1.477   5.002  0.00  0.00    -0.273 OA
ATOM     11  C   UNL     1       0.018  -2.673   2.885  0.00  0.00    +0.136 C 
ATOM     12  C   UNL     1       1.239  -3.555   3.172  0.00  0.00    +0.122 C 
ATOM     13  C   UNL     1       0.694  -4.693   4.080  0.00  0.00    +0.107 C 
ATOM     14  C   UNL     1      -0.801  -4.364   4.275  0.00  0.00    +0.076 C 
ATOM     15  N   UNL     1      -1.162  -3.534   3.087  0.00  0.00    -0.295 NA
ATOM     16  C   UNL     1       0.843  -5.927   3.219  0.00  0.00    +0.227 C 
ATOM     17  O   UNL     1       0.521  -7.050   3.543  0.00  0.00    -0.275 OA
ATOM     18  N   UNL     1       1.383  -5.586   2.043  0.00  0.00    -0.237 N 
ATOM     19  C   UNL     1       1.658  -4.268   1.907  0.00  0.00    +0.229 C 
ATOM     20  O   UNL     1       2.154  -3.739   0.936  0.00  0.00    -0.275 OA
ATOM     21  H   UNL     1       0.003   0.527   3.319  0.00  0.00    +0.155 HD
ATOM     22  H   UNL     1      -1.985  -2.982   3.274  0.00  0.00    +0.124 HD
ENDROOT
BRANCH  14  23
ATOM     23  C   UNL     1      -1.631  -5.649   4.282  0.00  0.00    +0.115 C 
BRANCH  23  24
ATOM     24  C   UNL     1      -3.067  -5.317   4.596  0.00  0.00    +0.212 C 
ATOM     25  O   UNL     1      -3.394  -4.166   4.794  0.00  0.00    -0.276 OA
ATOM     26  N   UNL     1      -3.989  -6.299   4.656  0.00  0.00    -0.329 N 
ATOM     27  H   UNL     1      -3.727  -7.220   4.498  0.00  0.00    +0.145 HD
ATOM     28  H   UNL     1      -4.913  -6.085   4.858  0.00  0.00    +0.145 HD
ENDBRANCH  23  24
ENDBRANCH  14  23
BRANCH  18  29
ATOM     29  C   UNL     1       1.663  -6.562   0.987  0.00  0.00    +0.155 C 
BRANCH  29  30
ATOM     30  C   UNL     1       3.103  -6.997   1.074  0.00  0.00    +0.012 A 
ATOM     31  C   UNL     1       4.045  -6.441   0.230  0.00  0.00    +0.009 A 
ATOM     32  C   UNL     1       5.366  -6.840   0.308  0.00  0.00    +0.001 A 
ATOM     33  C   UNL     1       5.749  -7.796   1.232  0.00  0.00    +0.004 A 
ATOM     34  C   UNL     1       4.811  -8.354   2.078  0.00  0.00    +0.046 A 
ATOM     35  C   UNL     1       3.485  -7.952   2.005  0.00  0.00    +0.125 A 
BRANCH  35  36
ATOM     36  O   UNL     1       2.562  -8.495   2.841  0.00  0.00    -0.495 OA
ATOM     37  C   UNL     1       3.043  -9.389   3.846  0.00  0.00    +0.277 C 
ENDBRANCH  35  36
ENDBRANCH  29  30
ENDBRANCH  18  29
TORSDOF 5
