REMARK  Name = ZINC41223220
REMARK  8 active torsions:
REMARK  status: ('A' for Active; 'I' for Inactive)
REMARK    1  A    between atoms: C_1  and  C_2
REMARK    2  A    between atoms: C_2  and  C_4
REMARK    3  A    between atoms: C_2  and  N_13
REMARK    4  A    between atoms: C_4  and  C_5
REMARK    5  A    between atoms: C_5  and  C_6
REMARK    6  A    between atoms: C_9  and  O_12
REMARK    7  A    between atoms: C_14  and  C_16
REMARK    8  A    between atoms: N_18  and  C_19
REMARK                            x       y       z     vdW  Elec       q    Type
REMARK                         _______ _______ _______ _____ _____    ______ ____
ROOT
ATOM      1  N   UNL     1       0.686  -0.481  -1.202  0.00  0.00    -0.305 N 
ATOM      2  C   UNL     1       0.004  -0.614  -2.357  0.00  0.00    +0.300 C 
ATOM      3  O   UNL     1      -1.179  -0.350  -2.397  0.00  0.00    -0.265 OA
ATOM      4  H   UNL     1       1.633  -0.692  -1.170  0.00  0.00    +0.149 HD
ENDROOT
BRANCH   2   5
ATOM      5  C   UNL     1       0.706  -1.088  -3.588  0.00  0.00    +0.303 C 
ATOM      6  O   UNL     1       1.890  -1.352  -3.548  0.00  0.00    -0.265 OA
ATOM      7  N   UNL     1       0.024  -1.221  -4.742  0.00  0.00    -0.278 N 
ATOM      8  H   UNL     1      -0.935  -1.075  -4.759  0.00  0.00    +0.155 HD
BRANCH   7   9
ATOM      9  C   UNL     1       0.698  -1.571  -5.916  0.00  0.00    +0.038 A 
ATOM     10  C   UNL     1       0.293  -1.042  -7.135  0.00  0.00    +0.027 A 
ATOM     11  C   UNL     1       0.958  -1.387  -8.295  0.00  0.00    +0.051 A 
ATOM     12  C   UNL     1       2.031  -2.262  -8.248  0.00  0.00    +0.173 A 
ATOM     13  C   UNL     1       2.441  -2.795  -7.027  0.00  0.00    +0.174 A 
ATOM     14  C   UNL     1       1.777  -2.444  -5.864  0.00  0.00    +0.073 A 
ATOM     15  O   UNL     1       3.506  -3.619  -7.246  0.00  0.00    -0.395 OA
ATOM     16  C   UNL     1       3.487  -3.906  -8.657  0.00  0.00    +0.589 C 
ATOM     17  O   UNL     1       2.841  -2.754  -9.231  0.00  0.00    -0.395 OA
ATOM     18  F   UNL     1       4.790  -4.035  -9.150  0.00  0.00    -0.125 F 
ATOM     19  F   UNL     1       2.746  -5.064  -8.914  0.00  0.00    -0.125 F 
ENDBRANCH   7   9
ENDBRANCH   2   5
BRANCH   1  21
ATOM     20  C   UNL     1      -0.033   1.513   0.017  0.00  0.00    +0.028 C 
ATOM     21  C   UNL     1      -0.002  -0.016   0.005  0.00  0.00    +0.071 C 
BRANCH  21  22
ATOM     22  C   UNL     1       0.744  -0.521   1.242  0.00  0.00    +0.026 C 
BRANCH  22  23
ATOM     23  C   UNL     1       0.668  -2.048   1.296  0.00  0.00    +0.037 C 
BRANCH  23  24
ATOM     24  C   UNL     1       1.402  -2.545   2.515  0.00  0.00    -0.047 A 
ATOM     25  C   UNL     1       2.751  -2.839   2.436  0.00  0.00    +0.007 A 
ATOM     26  C   UNL     1       3.426  -3.295   3.552  0.00  0.00    +0.045 A 
ATOM     27  C   UNL     1       2.749  -3.458   4.752  0.00  0.00    +0.117 A 
ATOM     28  C   UNL     1       1.396  -3.161   4.829  0.00  0.00    +0.045 A 
ATOM     29  C   UNL     1       0.727  -2.700   3.711  0.00  0.00    +0.007 A 
BRANCH  27  30
ATOM     30  O   UNL     1       3.411  -3.906   5.851  0.00  0.00    -0.507 OA
ATOM     31  H   UNL     1       3.798  -3.204   6.391  0.00  0.00    +0.292 HD
ENDBRANCH  27  30
ENDBRANCH  23  24
ENDBRANCH  22  23
ENDBRANCH  21  22
ENDBRANCH   1  21
TORSDOF 7
