REMARK  Name = ZINC63803314
REMARK  6 active torsions:
REMARK  status: ('A' for Active; 'I' for Inactive)
REMARK    1  A    between atoms: C_1  and  S_2
REMARK    2  A    between atoms: S_2  and  C_3
REMARK    3  A    between atoms: C_6  and  N_20
REMARK    4  A    between atoms: C_7  and  C_9
REMARK    5  A    between atoms: N_11  and  C_12
REMARK    6  A    between atoms: C_17  and  O_18
REMARK                            x       y       z     vdW  Elec       q    Type
REMARK                         _______ _______ _______ _____ _____    ______ ____
ROOT
ATOM      1  C   UNL     1      -3.776  -3.427   0.142  0.00  0.00    +0.251 C 
ATOM      2  O   UNL     1      -4.559  -3.867   0.962  0.00  0.00    -0.270 OA
ATOM      3  N   UNL     1      -3.244  -4.245  -0.787  0.00  0.00    -0.278 N 
ATOM      4  H   UNL     1      -2.573  -3.909  -1.402  0.00  0.00    +0.155 HD
ENDROOT
BRANCH   3   5
ATOM      5  C   UNL     1      -3.659  -5.580  -0.866  0.00  0.00    +0.077 A 
ATOM      6  C   UNL     1      -3.996  -6.273   0.289  0.00  0.00    +0.047 A 
ATOM      7  C   UNL     1      -4.405  -7.591   0.209  0.00  0.00    +0.043 A 
ATOM      8  C   UNL     1      -4.480  -8.222  -1.021  0.00  0.00    +0.023 A 
ATOM      9  C   UNL     1      -4.146  -7.538  -2.174  0.00  0.00    +0.049 A 
ATOM     10  C   UNL     1      -3.741  -6.215  -2.103  0.00  0.00    +0.138 A 
ATOM     11 CL   UNL     1      -4.826  -8.457   1.654  0.00  0.00    -0.083 Cl
BRANCH  10  12
ATOM     12  O   UNL     1      -3.418  -5.539  -3.238  0.00  0.00    -0.505 OA
ATOM     13  H   UNL     1      -2.486  -5.609  -3.486  0.00  0.00    +0.292 HD
ENDBRANCH  10  12
ENDBRANCH   3   5
BRANCH   1  18
ATOM     14  C   UNL     1      -1.732  -0.273   0.269  0.00  0.00    +0.008 A 
ATOM     15  C   UNL     1      -2.730   0.694   0.206  0.00  0.00    +0.017 A 
ATOM     16  C   UNL     1      -4.057   0.320   0.123  0.00  0.00    +0.034 A 
ATOM     17  C   UNL     1      -4.402  -1.017   0.102  0.00  0.00    +0.138 A 
ATOM     18  C   UNL     1      -3.409  -1.996   0.164  0.00  0.00    +0.068 A 
ATOM     19  C   UNL     1      -2.068  -1.618   0.242  0.00  0.00    +0.030 A 
BRANCH  17  20
ATOM     20  N   UNL     1      -5.826  -1.412   0.013  0.00  0.00    +0.057 N 
ATOM     21  O   UNL     1      -6.692  -0.571   0.076  0.00  0.00    -0.126 OA
ATOM     22  O   UNL     1      -6.123  -2.576  -0.123  0.00  0.00    -0.126 OA
ENDBRANCH  17  20
BRANCH  14  24
ATOM     23  C   UNL     1      -0.103   2.024   0.378  0.00  0.00    +0.090 C 
ATOM     24  S   UNL     1      -0.041   0.211   0.374  0.00  0.00    -0.129 S 
ENDBRANCH  14  24
ENDBRANCH   1  18
TORSDOF 5
