REMARK  Name = ZINC03237759
REMARK  9 active torsions:
REMARK  status: ('A' for Active; 'I' for Inactive)
REMARK    1  A    between atoms: C_1  and  N_2
REMARK    2  A    between atoms: C_3  and  N_33
REMARK    3  A    between atoms: C_4  and  C_11
REMARK    4  A    between atoms: N_7  and  C_10
REMARK    5  A    between atoms: C_11  and  C_13
REMARK    6  A    between atoms: C_13  and  S_14
REMARK    7  A    between atoms: S_14  and  C_15
REMARK    8  A    between atoms: C_18  and  C_27
REMARK    9  A    between atoms: N_19  and  C_20
REMARK                            x       y       z     vdW  Elec       q    Type
REMARK                         _______ _______ _______ _____ _____    ______ ____
ROOT
ATOM      1  C   UNL     1      -1.373   8.454   1.727  0.00  0.00    +0.197 A 
ATOM      2  N   UNL     1      -0.826   8.128   0.577  0.00  0.00    -0.122 NA
ATOM      3  N   UNL     1      -0.563   9.186  -0.103  0.00  0.00    -0.128 NA
ATOM      4  C   UNL     1      -0.926  10.254   0.569  0.00  0.00    +0.169 A 
ATOM      5  N   UNL     1      -1.462   9.819   1.761  0.00  0.00    -0.270 N 
ENDROOT
BRANCH   5   6
ATOM      6  C   UNL     1      -1.986  10.609   2.794  0.00  0.00    +0.051 A 
ATOM      7  C   UNL     1      -3.125  11.371   2.577  0.00  0.00    +0.029 A 
ATOM      8  C   UNL     1      -3.642  12.146   3.597  0.00  0.00    +0.040 A 
ATOM      9  C   UNL     1      -3.018  12.170   4.833  0.00  0.00    +0.124 A 
ATOM     10  C   UNL     1      -1.878  11.414   5.050  0.00  0.00    +0.040 A 
ATOM     11  C   UNL     1      -1.361  10.635   4.034  0.00  0.00    +0.029 A 
ATOM     12  F   UNL     1      -3.522  12.932   5.828  0.00  0.00    -0.205 F 
ENDBRANCH   5   6
BRANCH   4  13
ATOM     13  C   UNL     1      -0.791  11.658   0.127  0.00  0.00    +0.020 A 
ATOM     14  C   UNL     1      -0.929  12.699   1.047  0.00  0.00    +0.011 A 
ATOM     15  C   UNL     1      -0.796  14.007   0.629  0.00  0.00    +0.001 A 
ATOM     16  C   UNL     1      -0.537  14.289  -0.701  0.00  0.00    +0.000 A 
ATOM     17  C   UNL     1      -0.405  13.262  -1.619  0.00  0.00    +0.001 A 
ATOM     18  C   UNL     1      -0.530  11.950  -1.213  0.00  0.00    +0.011 A 
ENDBRANCH   4  13
BRANCH   1  19
ATOM     19  S   UNL     1      -1.902   7.341   2.986  0.00  0.00    -0.078 S 
BRANCH  19  20
ATOM     20  C   UNL     1      -1.467   5.763   2.213  0.00  0.00    +0.157 C 
BRANCH  20  21
ATOM     21  C   UNL     1      -1.839   4.632   3.137  0.00  0.00    +0.182 C 
ATOM     22  O   UNL     1      -2.349   4.869   4.213  0.00  0.00    -0.291 OA
BRANCH  21  26
ATOM     23  C   UNL     1      -2.245  -0.182   3.935  0.00  0.00    +0.155 C 
ATOM     24  N   UNL     1      -1.783   0.946   3.122  0.00  0.00    -0.284 N 
ATOM     25  C   UNL     1      -2.043   2.221   3.537  0.00  0.00    +0.116 A 
ATOM     26  C   UNL     1      -1.596   3.296   2.751  0.00  0.00    +0.120 A 
ATOM     27  C   UNL     1      -0.862   2.986   1.517  0.00  0.00    +0.269 A 
ATOM     28  O   UNL     1      -0.447   3.878   0.799  0.00  0.00    -0.267 OA
ATOM     29  N   UNL     1      -0.661   1.692   1.193  0.00  0.00    -0.263 N 
ATOM     30  C   UNL     1      -1.112   0.706   1.985  0.00  0.00    +0.333 A 
ATOM     31  O   UNL     1      -0.906  -0.447   1.659  0.00  0.00    -0.246 OA
ATOM     32  C   UNL     1       0.065   1.358  -0.035  0.00  0.00    +0.157 C 
BRANCH  25  33
ATOM     33  N   UNL     1      -2.725   2.446   4.693  0.00  0.00    -0.344 N 
ATOM     34  H   UNL     1      -3.099   1.701   5.188  0.00  0.00    +0.144 HD
ATOM     35  H   UNL     1      -2.836   3.352   5.022  0.00  0.00    +0.144 HD
ENDBRANCH  25  33
ENDBRANCH  21  26
ENDBRANCH  20  21
ENDBRANCH  19  20
ENDBRANCH   1  19
TORSDOF 7
