REMARK  Name = ZINC12793105
REMARK  9 active torsions:
REMARK  status: ('A' for Active; 'I' for Inactive)
REMARK    1  A    between atoms: C_1  and  N_2
REMARK    2  A    between atoms: N_4  and  N_16
REMARK    3  A    between atoms: C_5  and  C_8
REMARK    4  A    between atoms: C_11  and  O_15
REMARK    5  A    between atoms: C_12  and  O_14
REMARK    6  A    between atoms: C_17  and  C_18
REMARK    7  A    between atoms: C_21  and  O_26
REMARK    8  A    between atoms: C_22  and  O_24
REMARK    9  A    between atoms: O_24  and  C_25
REMARK                            x       y       z     vdW  Elec       q    Type
REMARK                         _______ _______ _______ _____ _____    ______ ____
ROOT
ATOM      1  C   UNL     1      -3.122   5.785   0.274  0.00  0.00    +0.173 C 
ATOM      2  N   UNL     1      -2.794   4.357   0.283  0.00  0.00    -0.263 NA
ATOM      3  C   UNL     1      -3.751   3.465   0.252  0.00  0.00    +0.189 A 
ATOM      4  N   UNL     1      -3.660   2.087   0.254  0.00  0.00    -0.208 N 
ATOM      5  C   UNL     1      -4.818   1.356   0.212  0.00  0.00    +0.082 A 
ATOM      6  C   UNL     1      -6.007   1.991   0.181  0.00  0.00    +0.077 A 
ATOM      7  S   UNL     1      -5.519   3.708   0.198  0.00  0.00    -0.056 S 
ENDROOT
BRANCH   5   8
ATOM      8  C   UNL     1      -4.764  -0.122   0.207  0.00  0.00    +0.005 A 
ATOM      9  C   UNL     1      -3.691  -0.780  -0.396  0.00  0.00    +0.014 A 
ATOM     10  C   UNL     1      -3.640  -2.159  -0.395  0.00  0.00    +0.050 A 
ATOM     11  C   UNL     1      -4.657  -2.894   0.194  0.00  0.00    +0.158 A 
ATOM     12  C   UNL     1      -5.734  -2.243   0.792  0.00  0.00    +0.159 A 
ATOM     13  C   UNL     1      -5.788  -0.861   0.800  0.00  0.00    +0.059 A 
BRANCH  12  14
ATOM     14  O   UNL     1      -6.730  -2.966   1.370  0.00  0.00    -0.503 OA
ATOM     15  H   UNL     1      -7.454  -3.189   0.768  0.00  0.00    +0.292 HD
ENDBRANCH  12  14
BRANCH  11  16
ATOM     16  O   UNL     1      -4.605  -4.253   0.187  0.00  0.00    -0.503 OA
ATOM     17  H   UNL     1      -5.025  -4.659  -0.583  0.00  0.00    +0.292 HD
ENDBRANCH  11  16
ENDBRANCH   5   8
BRANCH   4  18
ATOM     18  N   UNL     1      -2.412   1.451   0.292  0.00  0.00    -0.172 NA
ATOM     19  C   UNL     1      -1.381   2.074   0.776  0.00  0.00    +0.141 C 
BRANCH  19  20
ATOM     20  C   UNL     1      -0.044   1.457   0.698  0.00  0.00    -0.002 A 
ATOM     21  C   UNL     1       0.115   0.202   0.103  0.00  0.00    +0.013 A 
ATOM     22  C   UNL     1       1.367  -0.370   0.027  0.00  0.00    +0.050 A 
ATOM     23  C   UNL     1       2.470   0.296   0.538  0.00  0.00    +0.158 A 
ATOM     24  C   UNL     1       2.320   1.547   1.132  0.00  0.00    +0.162 A 
ATOM     25  C   UNL     1       1.068   2.128   1.213  0.00  0.00    +0.059 A 
BRANCH  24  26
ATOM     26  O   UNL     1       3.404   2.198   1.632  0.00  0.00    -0.491 OA
ATOM     27  C   UNL     1       3.176   3.477   2.227  0.00  0.00    +0.277 C 
ENDBRANCH  24  26
BRANCH  23  28
ATOM     28  O   UNL     1       3.702  -0.273   0.460  0.00  0.00    -0.503 OA
ATOM     29  H   UNL     1       4.188  -0.050  -0.346  0.00  0.00    +0.292 HD
ENDBRANCH  23  28
ENDBRANCH  19  20
ENDBRANCH   4  18
TORSDOF 7
