REMARK  Name = ZINC14131052
REMARK  7 active torsions:
REMARK  status: ('A' for Active; 'I' for Inactive)
REMARK    1  A    between atoms: C_1  and  C_2
REMARK    2  A    between atoms: C_5  and  C_8
REMARK    3  A    between atoms: C_8  and  C_19
REMARK    4  A    between atoms: C_9  and  C_10
REMARK    5  A    between atoms: C_13  and  O_18
REMARK    6  A    between atoms: C_14  and  O_16
REMARK    7  A    between atoms: O_16  and  C_17
REMARK                            x       y       z     vdW  Elec       q    Type
REMARK                         _______ _______ _______ _____ _____    ______ ____
ROOT
ATOM      1  C   UNL     1       2.497  -0.279   0.081  0.00  0.00    +0.059 C 
ATOM      2  C   UNL     1       2.484   1.058  -0.176  0.00  0.00    +0.027 C 
ENDROOT
BRANCH   1   7
ATOM      3  C   UNL     1      -2.432  -3.252   0.114  0.00  0.00    +0.044 C 
ATOM      4  C   UNL     1      -1.142  -2.474   0.105  0.00  0.00    -0.050 A 
ATOM      5  C   UNL     1      -0.206  -2.702  -0.888  0.00  0.00    +0.004 A 
ATOM      6  C   UNL     1       0.978  -1.993  -0.901  0.00  0.00    +0.009 A 
ATOM      7  C   UNL     1       1.229  -1.043   0.090  0.00  0.00    -0.008 A 
ATOM      8  C   UNL     1       0.284  -0.821   1.091  0.00  0.00    +0.009 A 
ATOM      9  C   UNL     1      -0.898  -1.533   1.090  0.00  0.00    +0.004 A 
ENDBRANCH   1   7
BRANCH   2  10
ATOM     10  C   UNL     1       1.241   1.712  -0.601  0.00  0.00    -0.020 A 
ATOM     11  C   UNL     1       0.347   1.040  -1.444  0.00  0.00    +0.012 A 
ATOM     12  C   UNL     1      -0.818   1.658  -1.845  0.00  0.00    +0.050 A 
ATOM     13  C   UNL     1      -1.113   2.942  -1.407  0.00  0.00    +0.158 A 
ATOM     14  C   UNL     1      -0.228   3.618  -0.568  0.00  0.00    +0.162 A 
ATOM     15  C   UNL     1       0.944   3.009  -0.165  0.00  0.00    +0.057 A 
BRANCH  14  16
ATOM     16  O   UNL     1      -0.519   4.877  -0.146  0.00  0.00    -0.491 OA
ATOM     17  C   UNL     1       0.432   5.510   0.713  0.00  0.00    +0.277 C 
ENDBRANCH  14  16
BRANCH  13  18
ATOM     18  O   UNL     1      -2.265   3.544  -1.802  0.00  0.00    -0.503 OA
ATOM     19  H   UNL     1      -2.183   4.050  -2.622  0.00  0.00    +0.292 HD
ENDBRANCH  13  18
ENDBRANCH   2  10
BRANCH   1  20
ATOM     20  C   UNL     1       3.737  -0.945   0.345  0.00  0.00    +0.100 C 
ATOM     21  N   UNL     1       4.721  -1.474   0.553  0.00  0.00    -0.191 NA
ENDBRANCH   1  20
TORSDOF 5
