REMARK  Name = ZINC67641141
REMARK  5 active torsions:
REMARK  status: ('A' for Active; 'I' for Inactive)
REMARK    1  A    between atoms: C_1  and  C_2
REMARK    2  A    between atoms: C_2  and  C_3
REMARK    3  A    between atoms: C_2  and  C_4
REMARK    4  A    between atoms: C_2  and  C_5
REMARK    5  A    between atoms: C_7  and  C_11
REMARK                            x       y       z     vdW  Elec       q    Type
REMARK                         _______ _______ _______ _____ _____    ______ ____
ROOT
ATOM      1  C   UNL     1       1.919  -3.022  -3.625  0.00  0.00    +0.080 C 
ATOM      2  C   UNL     1       0.794  -4.052  -3.521  0.00  0.00    +0.110 C 
ATOM      3  C   UNL     1       0.761  -4.638  -2.136  0.00  0.00    +0.218 C 
ATOM      4  O   UNL     1      -0.305  -4.927  -1.633  0.00  0.00    -0.275 OA
ATOM      5  N   UNL     1       1.898  -4.846  -1.448  0.00  0.00    -0.285 N 
ATOM      6  C   UNL     1       3.136  -4.505  -2.003  0.00  0.00    +0.039 A 
ATOM      7  C   UNL     1       3.193  -3.612  -3.075  0.00  0.00    -0.016 A 
ATOM      8  C   UNL     1       4.391  -3.269  -3.627  0.00  0.00    +0.017 A 
ATOM      9  C   UNL     1       5.578  -3.814  -3.120  0.00  0.00    +0.020 A 
ATOM     10  C   UNL     1       6.944  -3.664  -3.462  0.00  0.00    +0.142 A 
ATOM     11  N   UNL     1       7.657  -4.405  -2.665  0.00  0.00    -0.181 NA
ATOM     12  N   UNL     1       6.820  -5.077  -1.767  0.00  0.00    -0.277 N 
ATOM     13  H   UNL     1       7.105  -5.690  -1.071  0.00  0.00    +0.189 HD
ATOM     14  C   UNL     1       5.525  -4.716  -2.041  0.00  0.00    +0.067 A 
ATOM     15  C   UNL     1       4.295  -5.056  -1.488  0.00  0.00    +0.051 A 
ATOM     16  H   UNL     1       1.859  -5.235  -0.560  0.00  0.00    +0.155 HD
ENDROOT
BRANCH   1  19
ATOM     17  C   UNL     1       0.707  -0.490  -1.238  0.00  0.00    +0.042 A 
ATOM     18  C   UNL     1       0.829  -1.778  -1.633  0.00  0.00    +0.048 A 
ATOM     19  C   UNL     1       1.551  -1.795  -2.831  0.00  0.00    +0.071 A 
ATOM     20  N   UNL     1       1.853  -0.560  -3.143  0.00  0.00    -0.178 NA
ATOM     21  N   UNL     1       1.326   0.282  -2.155  0.00  0.00    -0.281 N 
ATOM     22  H   UNL     1       1.396   1.249  -2.134  0.00  0.00    +0.189 HD
BRANCH  17  24
ATOM     23  C   UNL     1      -0.019   1.526   0.010  0.00  0.00    +0.017 C 
ATOM     24  C   UNL     1       0.002  -0.004   0.002  0.00  0.00    +0.004 C 
ATOM     25  C   UNL     1       0.742  -0.511   1.242  0.00  0.00    +0.017 C 
ATOM     26  C   UNL     1      -1.433  -0.534   0.013  0.00  0.00    +0.017 C 
ENDBRANCH  17  24
ENDBRANCH   1  19
TORSDOF 2
