REMARK  Name = ZINC39544882
REMARK  6 active torsions:
REMARK  status: ('A' for Active; 'I' for Inactive)
REMARK    1  A    between atoms: C_1  and  C_2
REMARK    2  A    between atoms: C_2  and  C_3
REMARK    3  A    between atoms: C_2  and  C_4
REMARK    4  A    between atoms: C_4  and  N_5
REMARK    5  A    between atoms: N_5  and  O_23
REMARK    6  A    between atoms: C_6  and  C_8
REMARK                            x       y       z     vdW  Elec       q    Type
REMARK                         _______ _______ _______ _____ _____    ______ ____
ROOT
ATOM      1  C   UNL     1      -1.464  -4.316   0.532  0.00  0.00    +0.151 C 
ATOM      2  C   UNL     1      -2.928  -4.647   0.185  0.00  0.00    +0.076 C 
ATOM      3  C   UNL     1      -3.365  -5.586   1.286  0.00  0.00    +0.032 C 
ATOM      4  C   UNL     1      -2.373  -5.769   2.121  0.00  0.00    +0.085 C 
ATOM      5  N   UNL     1      -2.388  -6.608   3.253  0.00  0.00    -0.303 N 
ATOM      6  C   UNL     1      -1.177  -7.274   3.509  0.00  0.00    +0.037 A 
ATOM      7  C   UNL     1      -1.108  -8.212   4.529  0.00  0.00    +0.023 A 
ATOM      8  C   UNL     1       0.084  -8.860   4.787  0.00  0.00    +0.002 A 
ATOM      9  C   UNL     1       1.204  -8.569   4.029  0.00  0.00    +0.000 A 
ATOM     10  C   UNL     1       1.134  -7.638   3.010  0.00  0.00    +0.007 A 
ATOM     11  C   UNL     1      -0.058  -6.987   2.740  0.00  0.00    -0.010 A 
ATOM     12  C   UNL     1      -0.109  -5.995   1.607  0.00  0.00    +0.124 C 
ATOM     13  N   UNL     1      -1.214  -5.052   1.782  0.00  0.00    -0.369 NA
ATOM     14 BR   UNL     1      -5.078  -6.373   1.435  0.00  0.00    -0.052 Br
ATOM     15  H   UNL     1      -3.172  -6.717   3.812  0.00  0.00    +0.153 HD
ATOM     16  H   UNL     1      -0.989  -4.402   2.520  0.00  0.00    +0.129 HD
ENDROOT
BRANCH   1  18
ATOM     17  N   UNL     1      -1.516  -1.975  -0.266  0.00  0.00    -0.182 N 
ATOM     18  C   UNL     1      -1.294  -2.834   0.749  0.00  0.00    +0.257 C 
ATOM     19  O   UNL     1      -0.958  -2.415   1.836  0.00  0.00    -0.272 OA
BRANCH  17  20
ATOM     20  O   UNL     1      -1.801  -2.469  -1.562  0.00  0.00    -0.292 OA
ATOM     21  H   UNL     1      -1.814  -3.434  -1.621  0.00  0.00    +0.242 HD
ENDBRANCH  17  20
BRANCH  17  22
ATOM     22  C   UNL     1      -1.463  -0.531  -0.028  0.00  0.00    +0.142 C 
BRANCH  22  24
ATOM     23  C   UNL     1      -2.616   1.393   1.071  0.00  0.00    +0.009 C 
ATOM     24  C   UNL     1      -2.731  -0.087   0.704  0.00  0.00    +0.003 C 
ATOM     25  C   UNL     1      -3.944  -0.295  -0.205  0.00  0.00    +0.009 C 
ENDBRANCH  22  24
ENDBRANCH  17  22
ENDBRANCH   1  18
TORSDOF 4
