REMARK  Name = ZINC05175710
REMARK  8 active torsions:
REMARK  status: ('A' for Active; 'I' for Inactive)
REMARK    1  A    between atoms: C_1  and  C_2
REMARK    2  A    between atoms: C_2  and  C_16
REMARK    3  A    between atoms: N_3  and  N_4
REMARK    4  A    between atoms: C_5  and  C_7
REMARK    5  A    between atoms: C_9  and  O_15
REMARK    6  A    between atoms: C_10  and  O_14
REMARK    7  A    between atoms: C_11  and  O_13
REMARK    8  A    between atoms: C_19  and  N_22
REMARK                            x       y       z     vdW  Elec       q    Type
REMARK                         _______ _______ _______ _____ _____    ______ ____
ROOT
ATOM      1  N   UNL     1       3.933   1.756   1.009  0.00  0.00    -0.203 N 
ATOM      2  C   UNL     1       3.032   1.088   1.756  0.00  0.00    +0.263 C 
ATOM      3  O   UNL     1       3.181  -0.100   1.970  0.00  0.00    -0.268 OA
ATOM      4  H   UNL     1       3.815   2.704   0.838  0.00  0.00    +0.178 HD
ENDROOT
BRANCH   2   5
ATOM      5  C   UNL     1       1.865   1.798   2.314  0.00  0.00    +0.045 A 
ATOM      6  C   UNL     1       0.930   1.106   3.088  0.00  0.00    +0.062 A 
ATOM      7  C   UNL     1      -0.165   1.773   3.606  0.00  0.00    +0.163 A 
ATOM      8  C   UNL     1      -0.331   3.134   3.366  0.00  0.00    +0.201 A 
ATOM      9  C   UNL     1       0.600   3.826   2.594  0.00  0.00    +0.163 A 
ATOM     10  C   UNL     1       1.694   3.163   2.070  0.00  0.00    +0.062 A 
BRANCH   9  11
ATOM     11  O   UNL     1       0.432   5.154   2.356  0.00  0.00    -0.503 OA
ATOM     12  H   UNL     1      -0.080   5.349   1.560  0.00  0.00    +0.292 HD
ENDBRANCH   9  11
BRANCH   8  13
ATOM     13  O   UNL     1      -1.405   3.788   3.880  0.00  0.00    -0.501 OA
ATOM     14  H   UNL     1      -2.179   3.789   3.301  0.00  0.00    +0.292 HD
ENDBRANCH   8  13
BRANCH   7  15
ATOM     15  O   UNL     1      -1.079   1.099   4.355  0.00  0.00    -0.503 OA
ATOM     16  H   UNL     1      -0.883   1.092   5.302  0.00  0.00    +0.292 HD
ENDBRANCH   7  15
ENDBRANCH   2   5
BRANCH   1  19
ATOM     17  C   UNL     1       7.061   1.008  -0.872  0.00  0.00    +0.068 C 
ATOM     18  C   UNL     1       5.968   1.745  -0.143  0.00  0.00    +0.063 C 
ATOM     19  N   UNL     1       5.041   1.082   0.479  0.00  0.00    -0.184 NA
BRANCH  18  20
ATOM     20  C   UNL     1       5.950   3.220  -0.135  0.00  0.00    -0.002 A 
ATOM     21  C   UNL     1       6.350   3.932  -1.268  0.00  0.00    +0.012 A 
ATOM     22  C   UNL     1       6.327   5.311  -1.256  0.00  0.00    +0.033 A 
ATOM     23  C   UNL     1       5.919   5.989  -0.121  0.00  0.00    +0.126 A 
ATOM     24  C   UNL     1       5.526   5.290   1.007  0.00  0.00    +0.033 A 
ATOM     25  C   UNL     1       5.540   3.911   1.007  0.00  0.00    +0.012 A 
BRANCH  23  26
ATOM     26  N   UNL     1       5.902   7.469  -0.113  0.00  0.00    +0.056 N 
ATOM     27  O   UNL     1       5.543   8.069   0.884  0.00  0.00    -0.126 OA
ATOM     28  O   UNL     1       6.246   8.087  -1.105  0.00  0.00    -0.126 OA
ENDBRANCH  23  26
ENDBRANCH  18  20
ENDBRANCH   1  19
TORSDOF 7
