REMARK  Name = ZINC62733009
REMARK  11 active torsions:
REMARK  status: ('A' for Active; 'I' for Inactive)
REMARK    1  A    between atoms: C_1  and  C_2
REMARK    2  A    between atoms: C_2  and  C_4
REMARK    3  A    between atoms: C_2  and  C_20
REMARK    4  A    between atoms: C_4  and  O_5
REMARK    5  A    between atoms: O_5  and  C_6
REMARK    6  A    between atoms: C_7  and  C_14
REMARK    7  A    between atoms: C_14  and  N_15
REMARK    8  A    between atoms: N_15  and  C_16
REMARK    9  A    between atoms: C_16  and  C_17
REMARK   10  A    between atoms: C_17  and  O_18
REMARK   11  A    between atoms: O_18  and  C_19
REMARK                            x       y       z     vdW  Elec       q    Type
REMARK                         _______ _______ _______ _____ _____    ______ ____
ROOT
ATOM      1  C   UNL     1       0.471  -0.598  -3.455  0.00  0.00    +0.140 A 
ATOM      2  C   UNL     1       1.283   0.163  -4.283  0.00  0.00    -0.020 A 
ATOM      3  C   UNL     1       1.592  -0.290  -5.551  0.00  0.00    +0.025 A 
ATOM      4  C   UNL     1       1.093  -1.501  -5.996  0.00  0.00    +0.043 A 
ATOM      5  C   UNL     1       0.282  -2.262  -5.172  0.00  0.00    +0.043 A 
ATOM      6  C   UNL     1      -0.025  -1.815  -3.901  0.00  0.00    +0.084 A 
ATOM      7 CL   UNL     1      -1.036  -2.773  -2.864  0.00  0.00    -0.080 Cl
ATOM      8 CL   UNL     1       1.483  -2.066  -7.590  0.00  0.00    -0.083 Cl
ENDROOT
BRANCH   1   9
ATOM      9  O   UNL     1       0.166  -0.154  -2.207  0.00  0.00    -0.490 OA
BRANCH   9  10
ATOM     10  C   UNL     1      -1.052   0.580  -2.059  0.00  0.00    +0.241 C 
BRANCH  10  12
ATOM     11  C   UNL     1      -1.306  -0.118   0.326  0.00  0.00    +0.020 C 
ATOM     12  C   UNL     1      -1.175   1.079  -0.618  0.00  0.00    +0.109 C 
BRANCH  12  13
ATOM     13  C   UNL     1      -2.394   1.955  -0.492  0.00  0.00    +0.217 C 
ATOM     14  O   UNL     1      -3.096   2.160  -1.459  0.00  0.00    -0.276 OA
ATOM     15  N   UNL     1      -2.705   2.510   0.696  0.00  0.00    -0.329 N 
ATOM     16  H   UNL     1      -2.144   2.346   1.470  0.00  0.00    +0.145 HD
ATOM     17  H   UNL     1      -3.490   3.074   0.777  0.00  0.00    +0.145 HD
ENDBRANCH  12  13
ENDBRANCH  10  12
ENDBRANCH   9  10
ENDBRANCH   1   9
BRANCH   2  18
ATOM     18  C   UNL     1       1.827   1.482  -3.800  0.00  0.00    -0.043 C 
BRANCH  18  19
ATOM     19  N   UNL     1       2.956   1.243  -2.891  0.00  0.00    +0.383 N 
ATOM     20  H   UNL     1       2.636   0.729  -2.084  0.00  0.00    -0.085 HD
ATOM     21  H   UNL     1       3.666   0.709  -3.370  0.00  0.00    -0.085 HD
BRANCH  19  22
ATOM     22  C   UNL     1       3.519   2.530  -2.459  0.00  0.00    -0.054 C 
BRANCH  22  23
ATOM     23  C   UNL     1       4.695   2.280  -1.513  0.00  0.00    +0.140 C 
BRANCH  23  24
ATOM     24  O   UNL     1       5.748   1.627  -2.224  0.00  0.00    -0.385 OA
ATOM     25  C   UNL     1       6.901   1.346  -1.427  0.00  0.00    +0.193 C 
ENDBRANCH  23  24
ENDBRANCH  22  23
ENDBRANCH  19  22
ENDBRANCH  18  19
ENDBRANCH   2  18
TORSDOF 9
