REMARK  Name = ZINC09867895
REMARK  4 active torsions:
REMARK  status: ('A' for Active; 'I' for Inactive)
REMARK    1  A    between atoms: C_3  and  N_17
REMARK    2  A    between atoms: C_6  and  C_7
REMARK    3  A    between atoms: N_17  and  S_18
REMARK    4  A    between atoms: S_18  and  C_21
REMARK                            x       y       z     vdW  Elec       q    Type
REMARK                         _______ _______ _______ _____ _____    ______ ____
ROOT
ATOM      1  N   UNL     1       1.760   8.172   1.612  0.00  0.00    -0.216 N 
ATOM      2  H   UNL     1       1.086   8.102   2.305  0.00  0.00    +0.174 HD
ENDROOT
BRANCH   1   5
ATOM      3  C   UNL     1       5.177   8.514   2.911  0.00  0.00    +0.013 A 
ATOM      4  C   UNL     1       3.860   8.796   2.621  0.00  0.00    +0.025 A 
ATOM      5  C   UNL     1       3.094   7.884   1.903  0.00  0.00    +0.048 A 
ATOM      6  C   UNL     1       3.653   6.683   1.480  0.00  0.00    +0.025 A 
ATOM      7  C   UNL     1       4.971   6.398   1.763  0.00  0.00    +0.013 A 
ATOM      8  C   UNL     1       5.742   7.311   2.483  0.00  0.00    +0.019 A 
BRANCH   8   9
ATOM      9  C   UNL     1       7.156   7.006   2.792  0.00  0.00    +0.164 A 
ATOM     10  N   UNL     1       8.088   7.869   3.138  0.00  0.00    -0.129 NA
ATOM     11  N   UNL     1       9.199   7.251   3.340  0.00  0.00    -0.134 NA
ATOM     12  C   UNL     1       9.042   5.974   3.132  0.00  0.00    +0.134 A 
ATOM     13  N   UNL     1       7.747   5.776   2.768  0.00  0.00    -0.311 N 
ATOM     14  C   UNL     1       7.127   4.500   2.412  0.00  0.00    +0.125 C 
ATOM     15  C   UNL     1       7.855   3.364   3.137  0.00  0.00    +0.022 C 
ATOM     16  C   UNL     1       9.017   2.865   2.280  0.00  0.00    +0.002 C 
ATOM     17  C   UNL     1      10.028   3.983   2.044  0.00  0.00    +0.008 C 
ATOM     18  C   UNL     1      10.084   4.895   3.273  0.00  0.00    +0.076 C 
ENDBRANCH   8   9
ENDBRANCH   1   5
BRANCH   1  19
ATOM     19  S   UNL     1       1.329   8.634   0.081  0.00  0.00    +0.072 S 
ATOM     20  O   UNL     1      -0.067   8.900   0.116  0.00  0.00    -0.150 OA
ATOM     21  O   UNL     1       1.902   7.685  -0.807  0.00  0.00    -0.150 OA
BRANCH  19  22
ATOM     22  C   UNL     1       2.126  10.172  -0.243  0.00  0.00    +0.109 A 
ATOM     23  C   UNL     1       1.458  11.359  -0.007  0.00  0.00    +0.030 A 
ATOM     24  C   UNL     1       2.079  12.566  -0.260  0.00  0.00    +0.025 A 
ATOM     25  C   UNL     1       3.378  12.586  -0.752  0.00  0.00    +0.037 A 
ATOM     26  C   UNL     1       4.046  11.392  -0.988  0.00  0.00    -0.024 A 
ATOM     27  C   UNL     1       3.419  10.188  -0.733  0.00  0.00    +0.034 A 
ATOM     28  C   UNL     1       5.455  11.414  -1.521  0.00  0.00    +0.046 C 
ATOM     29  C   UNL     1       5.624  12.608  -2.466  0.00  0.00    +0.101 C 
ATOM     30  C   UNL     1       5.093  13.854  -1.811  0.00  0.00    +0.218 C 
ATOM     31  O   UNL     1       5.642  14.917  -2.011  0.00  0.00    -0.275 OA
ATOM     32  N   UNL     1       4.014  13.805  -1.009  0.00  0.00    -0.285 N 
ATOM     33  H   UNL     1       3.674  14.619  -0.607  0.00  0.00    +0.155 HD
ENDBRANCH  19  22
ENDBRANCH   1  19
TORSDOF 4
