REMARK  Name = ZINC53106755
REMARK  10 active torsions:
REMARK  status: ('A' for Active; 'I' for Inactive)
REMARK    1  A    between atoms: C_1  and  C_2
REMARK    2  A    between atoms: C_2  and  C_3
REMARK    3  A    between atoms: C_3  and  C_5
REMARK    4  A    between atoms: C_3  and  C_6
REMARK    5  A    between atoms: C_6  and  C_8
REMARK    6  A    between atoms: C_6  and  N_21
REMARK    7  A    between atoms: N_10  and  C_11
REMARK    8  A    between atoms: C_11  and  C_19
REMARK    9  A    between atoms: C_15  and  C_18
REMARK   10  A    between atoms: C_19  and  O_20
REMARK                            x       y       z     vdW  Elec       q    Type
REMARK                         _______ _______ _______ _____ _____    ______ ____
ROOT
ATOM      1  C   UNL     1       0.437  -2.945  -1.838  0.00  0.00    +0.234 C 
ATOM      2  O   UNL     1       0.404  -3.762  -0.942  0.00  0.00    -0.274 OA
ATOM      3  N   UNL     1      -0.649  -2.749  -2.611  0.00  0.00    -0.306 N 
ATOM      4  H   UNL     1      -0.649  -2.044  -3.278  0.00  0.00    +0.149 HD
ENDROOT
BRANCH   3   5
ATOM      5  C   UNL     1      -1.830  -3.600  -2.445  0.00  0.00    +0.058 C 
ATOM      6  C   UNL     1      -1.414  -5.070  -2.518  0.00  0.00    +0.028 C 
ATOM      7  C   UNL     1      -0.770  -5.351  -3.877  0.00  0.00    +0.002 C 
ATOM      8  C   UNL     1      -1.776  -5.050  -4.990  0.00  0.00    +0.003 C 
ATOM      9  C   UNL     1      -2.193  -3.579  -4.917  0.00  0.00    -0.012 C 
ATOM     10  C   UNL     1      -2.836  -3.299  -3.557  0.00  0.00    +0.031 C 
ATOM     11  C   UNL     1      -0.959  -2.691  -5.091  0.00  0.00    +0.007 C 
BRANCH   5  12
ATOM     12  C   UNL     1      -2.473  -3.319  -1.085  0.00  0.00    +0.181 C 
BRANCH  12  13
ATOM     13  O   UNL     1      -1.565  -3.682  -0.044  0.00  0.00    -0.393 OA
ATOM     14  H   UNL     1      -1.907  -3.531   0.847  0.00  0.00    +0.209 HD
ENDBRANCH  12  13
ENDBRANCH   5  12
ENDBRANCH   3   5
BRANCH   1  15
ATOM     15  C   UNL     1       1.693  -2.150  -2.087  0.00  0.00    +0.163 C 
BRANCH  15  16
ATOM     16  N   UNL     1       2.800  -2.734  -1.325  0.00  0.00    -0.288 N 
ATOM     17  C   UNL     1       4.071  -2.554  -1.736  0.00  0.00    +0.298 C 
ATOM     18  O   UNL     1       4.298  -1.907  -2.740  0.00  0.00    -0.253 OA
ATOM     19  N   UNL     1       5.088  -3.091  -1.035  0.00  0.00    -0.313 N 
ATOM     20  H   UNL     1       2.618  -3.250  -0.524  0.00  0.00    +0.151 HD
ATOM     21  H   UNL     1       4.907  -3.607  -0.234  0.00  0.00    +0.146 HD
ATOM     22  H   UNL     1       6.003  -2.961  -1.331  0.00  0.00    +0.146 HD
ENDBRANCH  15  16
BRANCH  15  23
ATOM     23  C   UNL     1       1.476  -0.702  -1.644  0.00  0.00    +0.015 C 
ATOM     24  C   UNL     1       1.314  -0.653  -0.123  0.00  0.00    +0.010 C 
BRANCH  23  26
ATOM     25  C   UNL     1       2.414   1.612  -1.724  0.00  0.00    +0.004 C 
ATOM     26  C   UNL     1       2.683   0.143  -2.055  0.00  0.00    +0.002 C 
ENDBRANCH  23  26
ENDBRANCH  15  23
ENDBRANCH   1  15
TORSDOF 7
