REMARK  Name = ZINC40060966
REMARK  3 active torsions:
REMARK  status: ('A' for Active; 'I' for Inactive)
REMARK    1  A    between atoms: C_1  and  C_2
REMARK    2  A    between atoms: C_8  and  N_12
REMARK    3  A    between atoms: C_13  and  C_15
REMARK                            x       y       z     vdW  Elec       q    Type
REMARK                         _______ _______ _______ _____ _____    ______ ____
ROOT
ATOM      1  N   UNL     1       5.303  -3.523   0.166  0.00  0.00    -0.282 N 
ATOM      2  C   UNL     1       6.016  -4.151  -0.790  0.00  0.00    +0.245 C 
ATOM      3  O   UNL     1       5.733  -3.991  -1.962  0.00  0.00    -0.270 OA
ATOM      4  H   UNL     1       5.575  -3.588   1.095  0.00  0.00    +0.155 HD
ENDROOT
BRANCH   2   5
ATOM      5  C   UNL     1       7.139  -5.032  -0.415  0.00  0.00    +0.032 C 
ATOM      6  C   UNL     1       7.962  -5.595  -1.369  0.00  0.00    +0.005 A 
ATOM      7  C   UNL     1       7.752  -5.339  -2.794  0.00  0.00    +0.010 A 
ATOM      8  C   UNL     1       8.588  -5.915  -3.693  0.00  0.00    +0.001 A 
ATOM      9  C   UNL     1       9.640  -6.744  -3.285  0.00  0.00    +0.002 A 
ATOM     10  C   UNL     1       9.890  -7.023  -1.982  0.00  0.00    +0.024 A 
ATOM     11  C   UNL     1       9.080  -6.473  -0.965  0.00  0.00    +0.041 A 
ATOM     12  N   UNL     1       9.331  -6.750   0.307  0.00  0.00    -0.285 N 
ATOM     13  C   UNL     1       8.612  -6.270   1.313  0.00  0.00    +0.222 C 
ATOM     14  O   UNL     1       8.896  -6.564   2.458  0.00  0.00    -0.275 OA
ATOM     15  C   UNL     1       7.443  -5.353   1.036  0.00  0.00    +0.137 C 
ATOM     16  H   UNL     1      10.078  -7.334   0.512  0.00  0.00    +0.155 HD
ENDBRANCH   2   5
BRANCH   1  23
ATOM     17  C   UNL     1       0.627   1.988  -1.108  0.00  0.00    +0.040 C 
ATOM     18  C   UNL     1       0.557   0.689  -0.302  0.00  0.00    +0.130 C 
ATOM     19  N   UNL     1       0.781  -0.480  -1.162  0.00  0.00    -0.331 N 
ATOM     20  C   UNL     1       1.889  -1.280  -0.886  0.00  0.00    +0.042 A 
ATOM     21  C   UNL     1       2.261  -2.436  -1.599  0.00  0.00    +0.026 A 
ATOM     22  C   UNL     1       3.374  -3.161  -1.252  0.00  0.00    +0.025 A 
ATOM     23  C   UNL     1       4.173  -2.778  -0.180  0.00  0.00    +0.035 A 
ATOM     24  C   UNL     1       3.827  -1.639   0.541  0.00  0.00    +0.040 A 
ATOM     25  C   UNL     1       2.711  -0.918   0.186  0.00  0.00    +0.032 A 
ATOM     26  S   UNL     1       1.974   0.555   0.860  0.00  0.00    -0.101 S 
ATOM     27  H   UNL     1       0.179  -0.688  -1.894  0.00  0.00    +0.147 HD
ENDBRANCH   1  23
TORSDOF 2
