REMARK  Name = ZINC40824375
REMARK  3 active torsions:
REMARK  status: ('A' for Active; 'I' for Inactive)
REMARK    1  A    between atoms: C_1  and  C_2
REMARK    2  A    between atoms: C_6  and  C_7
REMARK    3  A    between atoms: N_19  and  N_20
REMARK                            x       y       z     vdW  Elec       q    Type
REMARK                         _______ _______ _______ _____ _____    ______ ____
ROOT
ATOM      1  C   UNL     1      -0.018   1.503   0.010  0.00  0.00    +0.048 C 
ATOM      2  C   UNL     1       0.002  -0.004   0.002  0.00  0.00    +0.009 A 
ATOM      3  C   UNL     1       0.009  -0.838  -1.122  0.00  0.00    +0.042 A 
ATOM      4  C   UNL     1       0.027  -2.137  -0.673  0.00  0.00    +0.115 A 
ATOM      5  O   UNL     1       0.035  -2.112   0.658  0.00  0.00    -0.454 OA
ATOM      6  C   UNL     1       0.024  -0.831   1.091  0.00  0.00    +0.193 A 
ATOM      7  C   UNL     1       0.034  -3.326  -1.600  0.00  0.00    +0.075 C 
ATOM      8  C   UNL     1      -0.491  -2.902  -2.974  0.00  0.00    +0.014 C 
ATOM      9  C   UNL     1       0.279  -1.685  -3.495  0.00  0.00    +0.058 C 
ATOM     10  C   UNL     1       0.000  -0.512  -2.566  0.00  0.00    +0.070 C 
ATOM     11  N   UNL     1      -0.228   0.686  -3.007  0.00  0.00    -0.183 NA
ENDROOT
BRANCH   6  12
ATOM     12  C   UNL     1       0.031  -0.400   2.493  0.00  0.00    +0.285 C 
ATOM     13  O   UNL     1       0.016   0.786   2.766  0.00  0.00    -0.266 OA
ATOM     14  N   UNL     1       0.053  -1.318   3.480  0.00  0.00    -0.258 N 
ATOM     15  C   UNL     1       0.060  -0.910   4.807  0.00  0.00    +0.165 A 
ATOM     16  N   UNL     1       0.041   0.315   5.287  0.00  0.00    -0.233 NA
ATOM     17  C   UNL     1       0.051   0.539   6.588  0.00  0.00    +0.120 A 
ATOM     18  C   UNL     1       0.081  -0.547   7.399  0.00  0.00    +0.068 A 
ATOM     19  S   UNL     1       0.086  -1.864   6.194  0.00  0.00    -0.061 S 
ATOM     20  H   UNL     1       0.065  -2.263   3.263  0.00  0.00    +0.157 HD
ENDBRANCH   6  12
BRANCH  11  21
ATOM     21  N   UNL     1      -0.223   0.938  -4.386  0.00  0.00    -0.191 N 
ATOM     22  C   UNL     1      -0.460   2.183  -4.844  0.00  0.00    +0.317 C 
ATOM     23  O   UNL     1      -0.456   2.401  -6.040  0.00  0.00    -0.251 OA
ATOM     24  N   UNL     1      -0.701   3.186  -3.977  0.00  0.00    -0.312 N 
ATOM     25  H   UNL     1      -0.050   0.216  -5.010  0.00  0.00    +0.179 HD
ATOM     26  H   UNL     1      -0.704   3.012  -3.023  0.00  0.00    +0.147 HD
ATOM     27  H   UNL     1      -0.872   4.082  -4.307  0.00  0.00    +0.147 HD
ENDBRANCH  11  21
TORSDOF 2
