REMARK  Name = ZINC44556224
REMARK  4 active torsions:
REMARK  status: ('A' for Active; 'I' for Inactive)
REMARK    1  A    between atoms: C_5  and  S_8
REMARK    2  A    between atoms: S_8  and  N_11
REMARK    3  A    between atoms: C_16  and  C_18
REMARK    4  A    between atoms: C_18  and  N_19
REMARK                            x       y       z     vdW  Elec       q    Type
REMARK                         _______ _______ _______ _____ _____    ______ ____
ROOT
ATOM      1  S   UNL     1       1.260  -2.071   0.215  0.00  0.00    +0.064 S 
ATOM      2  O   UNL     1       0.033  -2.382  -0.430  0.00  0.00    -0.153 OA
ATOM      3  O   UNL     1       2.511  -2.135  -0.456  0.00  0.00    -0.153 OA
ENDROOT
BRANCH   1   8
ATOM      4  C   UNL     1      -0.194   1.565   1.119  0.00  0.00    +0.037 A 
ATOM      5  C   UNL     1       0.858   2.152   1.801  0.00  0.00    +0.021 A 
ATOM      6  C   UNL     1       2.032   1.448   1.998  0.00  0.00    +0.037 A 
ATOM      7  C   UNL     1       2.155   0.158   1.514  0.00  0.00    +0.070 A 
ATOM      8  C   UNL     1       1.104  -0.428   0.833  0.00  0.00    +0.142 A 
ATOM      9  C   UNL     1      -0.071   0.276   0.635  0.00  0.00    +0.070 A 
ATOM     10 CL   UNL     1      -1.391  -0.460  -0.219  0.00  0.00    -0.081 Cl
ATOM     11 CL   UNL     1       3.630  -0.725   1.760  0.00  0.00    -0.081 Cl
ATOM     12 BR   UNL     1       0.689   3.915   2.463  0.00  0.00    -0.050 Br
ENDBRANCH   1   8
BRANCH   1  13
ATOM     13  N   UNL     1       1.374  -3.078   1.526  0.00  0.00    -0.175 NA
ATOM     14  C   UNL     1       2.685  -3.429   2.088  0.00  0.00    +0.110 C 
ATOM     15  C   UNL     1       2.680  -3.110   3.587  0.00  0.00    +0.017 C 
ATOM     16  C   UNL     1       1.499  -3.823   4.251  0.00  0.00    +0.003 C 
ATOM     17  C   UNL     1       0.189  -3.316   3.645  0.00  0.00    +0.019 C 
ATOM     18  C   UNL     1       0.166  -3.632   2.151  0.00  0.00    +0.062 C 
BRANCH  18  19
ATOM     19  C   UNL     1      -1.075  -3.003   1.515  0.00  0.00    -0.066 C 
BRANCH  19  20
ATOM     20  N   UNL     1      -2.266  -3.377   2.290  0.00  0.00    +0.379 N 
ATOM     21  H   UNL     1      -3.094  -3.057   1.810  0.00  0.00    -0.090 HD
ATOM     22  H   UNL     1      -2.301  -4.381   2.388  0.00  0.00    -0.090 HD
ATOM     23  H   UNL     1      -2.220  -2.951   3.203  0.00  0.00    -0.090 HD
ENDBRANCH  19  20
ENDBRANCH  18  19
ENDBRANCH   1  13
TORSDOF 4
