REMARK  Name = ZINC63925985
REMARK  5 active torsions:
REMARK  status: ('A' for Active; 'I' for Inactive)
REMARK    1  A    between atoms: C_1  and  N_2
REMARK    2  A    between atoms: C_8  and  N_13
REMARK    3  A    between atoms: N_16  and  C_17
REMARK    4  A    between atoms: C_17  and  C_18
REMARK    5  A    between atoms: C_18  and  C_19
REMARK                            x       y       z     vdW  Elec       q    Type
REMARK                         _______ _______ _______ _____ _____    ______ ____
ROOT
ATOM      1  N   UNL     1       0.085  -5.807   1.341  0.00  0.00    -0.269 N 
ATOM      2  C   UNL     1      -0.004  -6.965   0.657  0.00  0.00    +0.304 C 
ATOM      3  O   UNL     1      -0.009  -6.954  -0.558  0.00  0.00    -0.253 OA
ATOM      4  N   UNL     1      -0.088  -8.135   1.321  0.00  0.00    -0.299 N 
ATOM      5  H   UNL     1       0.167  -5.820   2.308  0.00  0.00    +0.156 HD
ATOM      6  H   UNL     1      -0.084  -8.144   2.291  0.00  0.00    +0.150 HD
ENDROOT
BRANCH   1  14
ATOM      7  C   UNL     1       1.452   1.229  -0.456  0.00  0.00    +0.142 C 
ATOM      8  N   UNL     1       1.023  -0.166  -0.323  0.00  0.00    -0.237 N 
ATOM      9  C   UNL     1       0.189  -0.790  -1.173  0.00  0.00    +0.254 C 
ATOM     10  O   UNL     1      -0.321  -0.293  -2.157  0.00  0.00    -0.270 OA
ATOM     11  C   UNL     1      -0.005  -2.178  -0.711  0.00  0.00    +0.050 A 
ATOM     12  C   UNL     1      -0.739  -3.259  -1.177  0.00  0.00    +0.015 A 
ATOM     13  C   UNL     1      -0.705  -4.460  -0.493  0.00  0.00    +0.024 A 
ATOM     14  C   UNL     1       0.060  -4.591   0.660  0.00  0.00    +0.036 A 
ATOM     15  C   UNL     1       0.802  -3.512   1.138  0.00  0.00    +0.037 A 
ATOM     16  C   UNL     1       0.774  -2.307   0.459  0.00  0.00    +0.051 A 
ATOM     17  C   UNL     1       1.418  -0.992   0.663  0.00  0.00    +0.254 C 
ATOM     18  O   UNL     1       2.174  -0.706   1.569  0.00  0.00    -0.270 OA
ENDBRANCH   1  14
BRANCH   4  19
ATOM     19  C   UNL     1      -0.185  -9.394   0.578  0.00  0.00    +0.110 C 
BRANCH  19  20
ATOM     20  C   UNL     1      -0.267 -10.562   1.562  0.00  0.00    +0.052 C 
BRANCH  20  21
ATOM     21  C   UNL     1      -0.367 -11.857   0.797  0.00  0.00    -0.040 C 
ATOM     22  C   UNL     1       0.649 -12.686   0.465  0.00  0.00    -0.001 A 
ATOM     23  C   UNL     1       2.096 -12.632   0.706  0.00  0.00    +0.010 A 
ATOM     24  C   UNL     1       2.877 -13.632   0.239  0.00  0.00    +0.001 A 
ATOM     25  C   UNL     1       2.340 -14.717  -0.467  0.00  0.00    +0.002 A 
ATOM     26  C   UNL     1       1.021 -14.837  -0.728  0.00  0.00    +0.026 A 
ATOM     27  C   UNL     1       0.107 -13.842  -0.284  0.00  0.00    +0.043 A 
ATOM     28  N   UNL     1      -1.193 -13.733  -0.410  0.00  0.00    -0.380 N 
ATOM     29  C   UNL     1      -1.625 -12.496   0.251  0.00  0.00    +0.144 C 
ATOM     30  H   UNL     1      -1.774 -14.366  -0.861  0.00  0.00    +0.160 HD
ENDBRANCH  20  21
ENDBRANCH  19  20
ENDBRANCH   4  19
TORSDOF 4
