REMARK  Name = ZINC21771195
REMARK  14 active torsions:
REMARK  status: ('A' for Active; 'I' for Inactive)
REMARK    1  A    between atoms: C_1  and  C_2
REMARK    2  A    between atoms: C_2  and  O_3
REMARK    3  A    between atoms: O_3  and  C_4
REMARK    4  A    between atoms: N_6  and  N_7
REMARK    5  A    between atoms: C_8  and  C_10
REMARK    6  A    between atoms: C_10  and  C_12
REMARK    7  A    between atoms: C_10  and  N_15
REMARK    8  A    between atoms: C_12  and  C_13
REMARK    9  A    between atoms: C_12  and  C_14
REMARK   10  A    between atoms: C_16  and  C_18
REMARK   11  A    between atoms: C_21  and  C_24
REMARK   12  A    between atoms: C_24  and  C_25
REMARK   13  A    between atoms: C_24  and  C_26
REMARK   14  A    between atoms: C_24  and  C_27
REMARK                            x       y       z     vdW  Elec       q    Type
REMARK                         _______ _______ _______ _____ _____    ______ ____
ROOT
ATOM      1  C   UNL     1      -2.103   0.698   1.490  0.00  0.00    +0.163 C 
ENDROOT
BRANCH   1   3
ATOM      2  N   UNL     1      -2.253   1.361   3.868  0.00  0.00    -0.230 N 
ATOM      3  C   UNL     1      -2.849   1.280   2.662  0.00  0.00    +0.250 C 
ATOM      4  O   UNL     1      -3.987   1.676   2.521  0.00  0.00    -0.272 OA
ATOM      5  H   UNL     1      -1.254   0.924   4.018  0.00  0.00    +0.173 HD
BRANCH   2   8
ATOM      6  C   UNL     1      -2.308   2.081   6.137  0.00  0.00    +0.417 C 
ATOM      7  O   UNL     1      -2.873   2.636   7.058  0.00  0.00    -0.225 OA
ATOM      8  N   UNL     1      -2.904   2.001   4.931  0.00  0.00    -0.200 N 
ATOM      9  H   UNL     1      -3.902   2.438   4.781  0.00  0.00    +0.176 HD
BRANCH   6  10
ATOM     10  O   UNL     1      -1.086   1.546   6.320  0.00  0.00    -0.450 OA
BRANCH  10  12
ATOM     11  C   UNL     1       0.875   1.008   7.661  0.00  0.00    +0.048 C 
ATOM     12  C   UNL     1      -0.504   1.670   7.645  0.00  0.00    +0.230 C 
ENDBRANCH  10  12
ENDBRANCH   6  10
ENDBRANCH   2   8
ENDBRANCH   1   3
BRANCH   1  13
ATOM     13  N   UNL     1      -3.051   0.362   0.425  0.00  0.00    -0.300 N 
ATOM     14  C   UNL     1      -2.743  -0.592  -0.476  0.00  0.00    +0.245 C 
ATOM     15  O   UNL     1      -1.678  -1.174  -0.405  0.00  0.00    -0.270 OA
ATOM     16  H   UNL     1      -4.015   0.889   0.361  0.00  0.00    +0.150 HD
BRANCH  14  17
ATOM     17  C   UNL     1      -3.700  -0.931  -1.550  0.00  0.00    +0.037 A 
ATOM     18  C   UNL     1      -4.926  -0.269  -1.631  0.00  0.00    +0.013 A 
ATOM     19  C   UNL     1      -5.813  -0.586  -2.639  0.00  0.00    +0.005 A 
ATOM     20  C   UNL     1      -5.493  -1.566  -3.562  0.00  0.00    -0.042 A 
ATOM     21  C   UNL     1      -4.282  -2.230  -3.485  0.00  0.00    +0.005 A 
ATOM     22  C   UNL     1      -3.384  -1.918  -2.485  0.00  0.00    +0.013 A 
BRANCH  20  23
ATOM     23  C   UNL     1      -6.469  -1.912  -4.657  0.00  0.00    -0.013 C 
ATOM     24  C   UNL     1      -6.860  -3.387  -4.545  0.00  0.00    +0.015 C 
ATOM     25  C   UNL     1      -7.720  -1.042  -4.520  0.00  0.00    +0.015 C 
ATOM     26  C   UNL     1      -5.819  -1.659  -6.019  0.00  0.00    +0.015 C 
ENDBRANCH  20  23
ENDBRANCH  14  17
ENDBRANCH   1  13
BRANCH   1  27
ATOM     27  C   UNL     1      -1.093   1.722   0.969  0.00  0.00    +0.012 C 
ATOM     28  C   UNL     1      -1.837   2.953   0.447  0.00  0.00    +0.009 C 
ATOM     29  C   UNL     1      -0.275   1.101  -0.166  0.00  0.00    +0.009 C 
ENDBRANCH   1  27
TORSDOF 8
