REMARK  Name = ZINC26570278
REMARK  10 active torsions:
REMARK  status: ('A' for Active; 'I' for Inactive)
REMARK    1  A    between atoms: C_1  and  C_2
REMARK    2  A    between atoms: C_3  and  C_21
REMARK    3  A    between atoms: C_4  and  C_16
REMARK    4  A    between atoms: C_6  and  C_14
REMARK    5  A    between atoms: C_7  and  S_9
REMARK    6  A    between atoms: S_9  and  C_10
REMARK    7  A    between atoms: C_10  and  C_11
REMARK    8  A    between atoms: N_23  and  C_24
REMARK    9  A    between atoms: C_27  and  O_30
REMARK   10  A    between atoms: O_30  and  C_31
REMARK                            x       y       z     vdW  Elec       q    Type
REMARK                         _______ _______ _______ _____ _____    ______ ____
ROOT
ATOM      1  C   UNL     1      -0.189   1.048   0.497  0.00  0.00    +0.061 C 
ATOM      2  C   UNL     1      -0.774   1.736   1.704  0.00  0.00    +0.015 C 
ATOM      3  C   UNL     1       0.005   1.974   2.771  0.00  0.00    +0.047 C 
ATOM      4  C   UNL     1      -0.528   2.648   4.003  0.00  0.00    +0.134 C 
ATOM      5  C   UNL     1      -1.835   3.330   3.716  0.00  0.00    +0.072 C 
ATOM      6  C   UNL     1      -2.554   3.037   2.599  0.00  0.00    +0.080 C 
ATOM      7  N   UNL     1      -2.089   2.113   1.692  0.00  0.00    -0.312 N 
ATOM      8  H   UNL     1      -2.780   1.676   0.956  0.00  0.00    +0.152 HD
ENDROOT
BRANCH   4   9
ATOM      9  C   UNL     1       0.471   3.671   4.480  0.00  0.00    +0.118 A 
ATOM     10  C   UNL     1       1.147   3.628   5.642  0.00  0.00    +0.045 A 
ATOM     11  C   UNL     1       1.968   4.778   5.680  0.00  0.00    +0.041 A 
ATOM     12  C   UNL     1       1.744   5.455   4.540  0.00  0.00    +0.195 A 
ATOM     13  O   UNL     1       0.841   4.776   3.813  0.00  0.00    -0.467 OA
ENDBRANCH   4   9
BRANCH   3  14
ATOM     14  C   UNL     1       1.364   1.579   2.734  0.00  0.00    +0.247 C 
ATOM     15  O   UNL     1       1.724   0.581   3.331  0.00  0.00    -0.270 OA
ATOM     16  N   UNL     1       2.259   2.308   2.039  0.00  0.00    -0.282 N 
ATOM     17  H   UNL     1       1.915   3.121   1.383  0.00  0.00    +0.155 HD
BRANCH  16  18
ATOM     18  C   UNL     1       3.627   2.031   2.152  0.00  0.00    +0.034 A 
ATOM     19  C   UNL     1       4.050   0.770   2.550  0.00  0.00    +0.027 A 
ATOM     20  C   UNL     1       5.399   0.496   2.656  0.00  0.00    +0.047 A 
ATOM     21  C   UNL     1       6.332   1.484   2.376  0.00  0.00    +0.120 A 
ATOM     22  C   UNL     1       5.910   2.745   1.982  0.00  0.00    +0.047 A 
ATOM     23  C   UNL     1       4.561   3.019   1.870  0.00  0.00    +0.027 A 
BRANCH  21  24
ATOM     24  O   UNL     1       7.660   1.215   2.486  0.00  0.00    -0.495 OA
ATOM     25  C   UNL     1       8.023  -0.105   2.896  0.00  0.00    +0.277 C 
ENDBRANCH  21  24
ENDBRANCH  16  18
ENDBRANCH   3  14
BRANCH   5  26
ATOM     26  C   UNL     1      -2.335   4.307   4.636  0.00  0.00    +0.098 C 
ATOM     27  N   UNL     1      -2.731   5.082   5.366  0.00  0.00    -0.191 NA
ENDBRANCH   5  26
BRANCH   6  28
ATOM     28  S   UNL     1      -4.088   3.853   2.307  0.00  0.00    -0.100 S 
BRANCH  28  29
ATOM     29  C   UNL     1      -4.558   3.085   0.737  0.00  0.00    +0.171 C 
BRANCH  29  30
ATOM     30  C   UNL     1      -5.880   3.647   0.279  0.00  0.00    +0.221 C 
ATOM     31  O   UNL     1      -6.448   4.483   0.949  0.00  0.00    -0.275 OA
ATOM     32  N   UNL     1      -6.431   3.219  -0.874  0.00  0.00    -0.329 N 
ATOM     33  H   UNL     1      -7.396   3.628  -1.208  0.00  0.00    +0.145 HD
ATOM     34  H   UNL     1      -5.916   2.459  -1.481  0.00  0.00    +0.145 HD
ENDBRANCH  29  30
ENDBRANCH  28  29
ENDBRANCH   6  28
TORSDOF 8
