REMARK  Name = ZINC20917378
REMARK  10 active torsions:
REMARK  status: ('A' for Active; 'I' for Inactive)
REMARK    1  A    between atoms: C_1  and  C_2
REMARK    2  A    between atoms: C_5  and  C_8
REMARK    3  A    between atoms: N_9  and  N_10
REMARK    4  A    between atoms: C_14  and  S_17
REMARK    5  A    between atoms: N_15  and  N_16
REMARK    6  A    between atoms: S_17  and  C_18
REMARK    7  A    between atoms: C_18  and  C_19
REMARK    8  A    between atoms: C_20  and  C_27
REMARK    9  A    between atoms: C_22  and  C_26
REMARK   10  A    between atoms: C_24  and  C_25
REMARK                            x       y       z     vdW  Elec       q    Type
REMARK                         _______ _______ _______ _____ _____    ______ ____
ROOT
ATOM      1  N   UNL     1       8.671  -3.482  -2.824  0.00  0.00    -0.204 N 
ATOM      2  C   UNL     1       7.635  -2.902  -2.107  0.00  0.00    +0.254 A 
ATOM      3  N   UNL     1       7.538  -2.848  -0.800  0.00  0.00    -0.109 NA
ATOM      4  N   UNL     1       6.347  -2.182  -0.482  0.00  0.00    -0.119 NA
ATOM      5  C   UNL     1       5.755  -1.851  -1.605  0.00  0.00    +0.210 A 
ATOM      6  N   UNL     1       6.532  -2.292  -2.638  0.00  0.00    -0.211 N 
ATOM      7  H   UNL     1       8.651  -3.471  -3.924  0.00  0.00    +0.177 HD
ENDROOT
BRANCH   6   8
ATOM      8  N   UNL     1       6.258  -2.146  -3.968  0.00  0.00    -0.294 N 
ATOM      9  H   UNL     1       5.337  -1.636  -4.287  0.00  0.00    +0.163 HD
ATOM     10  H   UNL     1       6.958  -2.539  -4.720  0.00  0.00    +0.163 HD
ENDBRANCH   6   8
BRANCH   1  12
ATOM     11  C   UNL     1      10.711  -4.624  -2.820  0.00  0.00    +0.138 C 
ATOM     12  N   UNL     1       9.742  -4.081  -2.148  0.00  0.00    -0.188 NA
BRANCH  11  17
ATOM     13  C   UNL     1      15.107  -7.084  -0.045  0.00  0.00    +0.044 C 
ATOM     14  C   UNL     1      13.955  -6.440  -0.772  0.00  0.00    -0.050 A 
ATOM     15  C   UNL     1      13.934  -6.428  -2.156  0.00  0.00    +0.004 A 
ATOM     16  C   UNL     1      12.883  -5.840  -2.828  0.00  0.00    +0.010 A 
ATOM     17  C   UNL     1      11.838  -5.255  -2.108  0.00  0.00    -0.005 A 
ATOM     18  C   UNL     1      11.869  -5.265  -0.712  0.00  0.00    +0.010 A 
ATOM     19  C   UNL     1      12.924  -5.862  -0.053  0.00  0.00    +0.004 A 
ENDBRANCH  11  17
ENDBRANCH   1  12
BRANCH   5  20
ATOM     20  S   UNL     1       4.223  -0.994  -1.754  0.00  0.00    -0.080 S 
BRANCH  20  21
ATOM     21  C   UNL     1       3.711  -0.707  -0.037  0.00  0.00    +0.113 C 
BRANCH  21  22
ATOM     22  C   UNL     1       2.396   0.029  -0.021  0.00  0.00    -0.031 A 
ATOM     23  C   UNL     1       1.208  -0.679  -0.014  0.00  0.00    -0.046 A 
ATOM     24  C   UNL     1       0.002  -0.004   0.002  0.00  0.00    +0.007 A 
ATOM     25  C   UNL     1      -0.017   1.378   0.010  0.00  0.00    -0.050 A 
ATOM     26  C   UNL     1       1.171   2.086   0.002  0.00  0.00    +0.007 A 
ATOM     27  C   UNL     1       2.377   1.411  -0.014  0.00  0.00    -0.046 A 
ATOM     28  C   UNL     1       3.672   2.182  -0.021  0.00  0.00    +0.044 C 
ATOM     29  C   UNL     1      -1.332   2.114   0.020  0.00  0.00    +0.044 C 
ATOM     30  C   UNL     1       1.229  -2.186  -0.022  0.00  0.00    +0.044 C 
ENDBRANCH  21  22
ENDBRANCH  20  21
ENDBRANCH   5  20
TORSDOF 6
