REMARK  Name = ZINC15957697
REMARK  6 active torsions:
REMARK  status: ('A' for Active; 'I' for Inactive)
REMARK    1  A    between atoms: C_1  and  C_2
REMARK    2  A    between atoms: C_16  and  C_19
REMARK    3  A    between atoms: C_19  and  C_20
REMARK    4  A    between atoms: C_20  and  C_21
REMARK    5  A    between atoms: N_26  and  C_29
REMARK    6  A    between atoms: C_29  and  C_30
REMARK                            x       y       z     vdW  Elec       q    Type
REMARK                         _______ _______ _______ _____ _____    ______ ____
ROOT
ATOM      1  C   UNL     1      -0.018   1.503   0.010  0.00  0.00    +0.047 C 
ATOM      2  C   UNL     1       0.002  -0.004   0.002  0.00  0.00    -0.011 A 
ATOM      3  C   UNL     1       0.006  -0.686  -1.199  0.00  0.00    +0.046 A 
ATOM      4  C   UNL     1       0.025  -2.070  -1.216  0.00  0.00    +0.021 A 
ATOM      5  C   UNL     1       0.038  -2.772  -0.024  0.00  0.00    +0.009 A 
ATOM      6  C   UNL     1       0.034  -2.096   1.175  0.00  0.00    +0.004 A 
ATOM      7  C   UNL     1       0.023  -0.705   1.205  0.00  0.00    +0.043 A 
ATOM      8  N   UNL     1       0.033  -0.250   2.526  0.00  0.00    -0.283 N 
ATOM      9  C   UNL     1       0.056  -1.264   3.412  0.00  0.00    +0.243 C 
ATOM     10  O   UNL     1       0.072  -1.169   4.621  0.00  0.00    -0.273 OA
ATOM     11  C   UNL     1       0.046  -2.538   2.611  0.00  0.00    +0.136 C 
ATOM     12  C   UNL     1       1.276  -3.396   2.926  0.00  0.00    +0.122 C 
ATOM     13  C   UNL     1       0.766  -4.453   3.945  0.00  0.00    +0.107 C 
ATOM     14  C   UNL     1      -0.728  -4.120   4.146  0.00  0.00    +0.068 C 
ATOM     15  N   UNL     1      -1.125  -3.377   2.929  0.00  0.00    -0.295 NA
ATOM     16  C   UNL     1       1.537  -4.124   5.204  0.00  0.00    +0.227 C 
ATOM     17  O   UNL     1       1.443  -4.715   6.258  0.00  0.00    -0.275 OA
ATOM     18  N   UNL     1       2.340  -3.078   4.973  0.00  0.00    -0.237 N 
ATOM     19  C   UNL     1       2.279  -2.585   3.715  0.00  0.00    +0.229 C 
ATOM     20  O   UNL     1       2.916  -1.648   3.284  0.00  0.00    -0.275 OA
ATOM     21 CL   UNL     1      -0.014   0.197  -2.694  0.00  0.00    -0.083 Cl
ATOM     22  H   UNL     1       0.024   0.687   2.776  0.00  0.00    +0.155 HD
ATOM     23  H   UNL     1      -1.942  -2.808   3.097  0.00  0.00    +0.123 HD
ENDROOT
BRANCH  14  24
ATOM     24  C   UNL     1      -1.544  -5.405   4.298  0.00  0.00    +0.028 C 
BRANCH  24  25
ATOM     25  C   UNL     1      -2.997  -5.051   4.619  0.00  0.00    +0.097 C 
BRANCH  25  26
ATOM     26  C   UNL     1      -3.801  -6.317   4.768  0.00  0.00    +0.211 C 
ATOM     27  O   UNL     1      -3.265  -7.396   4.631  0.00  0.00    -0.276 OA
ATOM     28  N   UNL     1      -5.117  -6.250   5.054  0.00  0.00    -0.329 N 
ATOM     29  H   UNL     1      -5.546  -5.387   5.164  0.00  0.00    +0.145 HD
ATOM     30  H   UNL     1      -5.635  -7.065   5.150  0.00  0.00    +0.145 HD
ENDBRANCH  25  26
ENDBRANCH  24  25
ENDBRANCH  14  24
BRANCH  18  31
ATOM     31  C   UNL     1       3.221  -2.514   5.998  0.00  0.00    +0.151 C 
BRANCH  31  32
ATOM     32  C   UNL     1       4.559  -3.205   5.946  0.00  0.00    -0.030 A 
ATOM     33  C   UNL     1       4.781  -4.341   6.702  0.00  0.00    +0.005 A 
ATOM     34  C   UNL     1       6.008  -4.974   6.654  0.00  0.00    +0.000 A 
ATOM     35  C   UNL     1       7.014  -4.472   5.850  0.00  0.00    +0.000 A 
ATOM     36  C   UNL     1       6.793  -3.336   5.093  0.00  0.00    +0.000 A 
ATOM     37  C   UNL     1       5.563  -2.705   5.138  0.00  0.00    +0.005 A 
ENDBRANCH  31  32
ENDBRANCH  18  31
TORSDOF 5
