REMARK  Name = ZINC15048039
REMARK  14 active torsions:
REMARK  status: ('A' for Active; 'I' for Inactive)
REMARK    1  A    between atoms: C_1  and  C_2
REMARK    2  A    between atoms: C_2  and  O_3
REMARK    3  A    between atoms: O_3  and  C_4
REMARK    4  A    between atoms: C_6  and  C_11
REMARK    5  A    between atoms: C_9  and  O_10
REMARK    6  A    between atoms: N_15  and  C_19
REMARK    7  A    between atoms: C_19  and  C_21
REMARK    8  A    between atoms: C_19  and  C_22
REMARK    9  A    between atoms: N_24  and  C_25
REMARK   10  A    between atoms: C_25  and  C_26
REMARK   11  A    between atoms: C_26  and  C_27
REMARK   12  A    between atoms: C_27  and  C_28
REMARK   13  A    between atoms: C_28  and  C_29
REMARK   14  A    between atoms: C_29  and  C_30
REMARK                            x       y       z     vdW  Elec       q    Type
REMARK                         _______ _______ _______ _____ _____    ______ ____
ROOT
ATOM      1  C   UNL     1       0.612  -4.949  -0.019  0.00  0.00    +0.028 C 
ATOM      2  C   UNL     1       0.449  -6.293   0.078  0.00  0.00    +0.077 C 
ATOM      3  C   UNL     1       1.465  -7.359   0.194  0.00  0.00    +0.259 C 
ATOM      4  O   UNL     1       2.656  -7.107   0.216  0.00  0.00    -0.269 OA
ATOM      5  N   UNL     1       1.016  -8.600   0.273  0.00  0.00    -0.244 N 
ATOM      6  C   UNL     1      -0.304  -8.874   0.248  0.00  0.00    +0.121 C 
ATOM      7  S   UNL     1      -1.075 -10.401   0.338  0.00  0.00    -0.027 S 
ATOM      8  S   UNL     1      -1.054  -7.260   0.108  0.00  0.00    -0.061 S 
ENDROOT
BRANCH   1  11
ATOM      9  C   UNL     1      -1.557  -1.903  -0.302  0.00  0.00    +0.162 A 
ATOM     10  C   UNL     1      -0.465  -2.709  -0.050  0.00  0.00    +0.057 A 
ATOM     11  C   UNL     1      -0.546  -4.087  -0.285  0.00  0.00    -0.020 A 
ATOM     12  C   UNL     1      -1.736  -4.640  -0.775  0.00  0.00    +0.012 A 
ATOM     13  C   UNL     1      -2.821  -3.828  -1.024  0.00  0.00    +0.050 A 
ATOM     14  C   UNL     1      -2.740  -2.462  -0.785  0.00  0.00    +0.158 A 
BRANCH  14  15
ATOM     15  O   UNL     1      -3.815  -1.668  -1.027  0.00  0.00    -0.503 OA
ATOM     16  H   UNL     1      -3.848  -1.313  -1.925  0.00  0.00    +0.292 HD
ENDBRANCH  14  15
BRANCH   9  17
ATOM     17  O   UNL     1      -1.482  -0.565  -0.075  0.00  0.00    -0.489 OA
BRANCH  17  19
ATOM     18  C   UNL     1      -0.345   1.455   0.612  0.00  0.00    +0.048 C 
ATOM     19  C   UNL     1      -0.240  -0.059   0.420  0.00  0.00    +0.226 C 
ENDBRANCH  17  19
ENDBRANCH   9  17
ENDBRANCH   1  11
BRANCH   5  20
ATOM     20  C   UNL     1       1.974  -9.702   0.390  0.00  0.00    +0.165 C 
ATOM     21  C   UNL     1       1.806 -10.652  -0.797  0.00  0.00    +0.038 C 
BRANCH  20  22
ATOM     22  C   UNL     1       1.724 -10.451   1.673  0.00  0.00    +0.234 C 
ATOM     23  O   UNL     1       0.833 -10.100   2.417  0.00  0.00    -0.274 OA
ATOM     24  N   UNL     1       2.490 -11.513   1.994  0.00  0.00    -0.314 N 
ATOM     25  H   UNL     1       3.203 -11.794   1.399  0.00  0.00    +0.149 HD
BRANCH  24  26
ATOM     26  C   UNL     1       2.247 -12.241   3.241  0.00  0.00    +0.104 C 
BRANCH  26  27
ATOM     27  C   UNL     1       3.248 -13.392   3.363  0.00  0.00    +0.019 C 
BRANCH  27  28
ATOM     28  C   UNL     1       2.993 -14.153   4.666  0.00  0.00    +0.002 C 
BRANCH  28  29
ATOM     29  C   UNL     1       3.994 -15.304   4.788  0.00  0.00    +0.011 C 
BRANCH  29  30
ATOM     30  C   UNL     1       3.740 -16.065   6.091  0.00  0.00    +0.125 C 
BRANCH  30  31
ATOM     31  C   UNL     1       4.726 -17.198   6.211  0.00  0.00    +0.356 C 
ATOM     32  O   UNL     1       5.555 -17.381   5.336  0.00  0.00    -0.246 OA
ATOM     33  O   UNL     1       4.694 -17.933   7.184  0.00  0.00    -0.246 OA
ENDBRANCH  30  31
ENDBRANCH  29  30
ENDBRANCH  28  29
ENDBRANCH  27  28
ENDBRANCH  26  27
ENDBRANCH  24  26
ENDBRANCH  20  22
ENDBRANCH   5  20
TORSDOF 12
