REMARK  Name = ZINC37368344
REMARK  7 active torsions:
REMARK  status: ('A' for Active; 'I' for Inactive)
REMARK    1  A    between atoms: C_1  and  C_2
REMARK    2  A    between atoms: C_7  and  N_8
REMARK    3  A    between atoms: N_8  and  C_9
REMARK    4  A    between atoms: C_9  and  C_11
REMARK    5  A    between atoms: C_9  and  C_12
REMARK    6  A    between atoms: N_14  and  C_15
REMARK    7  A    between atoms: C_15  and  C_16
REMARK                            x       y       z     vdW  Elec       q    Type
REMARK                         _______ _______ _______ _____ _____    ______ ____
ROOT
ATOM      1  C   UNL     1       0.047  -0.757   3.679  0.00  0.00    +0.154 C 
ATOM      2  C   UNL     1      -1.381  -1.144   4.068  0.00  0.00    +0.038 C 
ENDROOT
BRANCH   1   3
ATOM      3  C   UNL     1       0.645   0.107   4.758  0.00  0.00    +0.233 C 
ATOM      4  O   UNL     1       1.017   1.232   4.498  0.00  0.00    -0.274 OA
ATOM      5  N   UNL     1       0.767  -0.369   6.013  0.00  0.00    -0.307 N 
ATOM      6  H   UNL     1       0.470  -1.269   6.221  0.00  0.00    +0.149 HD
BRANCH   5   7
ATOM      7  C   UNL     1       1.349   0.471   7.062  0.00  0.00    +0.178 C 
BRANCH   7   8
ATOM      8  C   UNL     1       1.372  -0.291   8.362  0.00  0.00    +0.122 A 
ATOM      9  C   UNL     1       2.378  -1.069   8.800  0.00  0.00    +0.046 A 
ATOM     10  C   UNL     1       1.980  -1.586  10.054  0.00  0.00    +0.041 A 
ATOM     11  C   UNL     1       0.754  -1.093  10.307  0.00  0.00    +0.195 A 
ATOM     12  O   UNL     1       0.394  -0.305   9.281  0.00  0.00    -0.466 OA
ENDBRANCH   7   8
ENDBRANCH   5   7
ENDBRANCH   1   3
BRANCH   1  13
ATOM     13  N   UNL     1       0.025  -0.016   2.415  0.00  0.00    -0.333 N 
ATOM     14  H   UNL     1       0.011   0.954   2.422  0.00  0.00    +0.147 HD
BRANCH  13  21
ATOM     15  C   UNL     1      -0.018   1.503   0.010  0.00  0.00    +0.045 C 
ATOM     16  C   UNL     1       0.002  -0.004   0.002  0.00  0.00    -0.030 A 
ATOM     17  C   UNL     1       0.006  -0.689  -1.198  0.00  0.00    +0.006 A 
ATOM     18  C   UNL     1       0.025  -2.071  -1.207  0.00  0.00    +0.015 A 
ATOM     19  C   UNL     1       0.040  -2.774  -0.014  0.00  0.00    +0.020 A 
ATOM     20  C   UNL     1       0.036  -2.095   1.189  0.00  0.00    +0.038 A 
ATOM     21  C   UNL     1       0.023  -0.706   1.201  0.00  0.00    +0.032 A 
ATOM     22 BR   UNL     1       0.066  -4.664  -0.032  0.00  0.00    -0.050 Br
ENDBRANCH  13  21
ENDBRANCH   1  13
TORSDOF 5
