REMARK  Name = ZINC21737623
REMARK  9 active torsions:
REMARK  status: ('A' for Active; 'I' for Inactive)
REMARK    1  A    between atoms: C_1  and  O_2
REMARK    2  A    between atoms: O_2  and  C_3
REMARK    3  A    between atoms: C_6  and  C_9
REMARK    4  A    between atoms: C_9  and  N_10
REMARK    5  A    between atoms: C_14  and  S_16
REMARK    6  A    between atoms: S_16  and  C_17
REMARK    7  A    between atoms: C_17  and  C_18
REMARK    8  A    between atoms: N_20  and  C_21
REMARK    9  A    between atoms: C_22  and  C_30
REMARK                            x       y       z     vdW  Elec       q    Type
REMARK                         _______ _______ _______ _____ _____    ______ ____
ROOT
ATOM      1  C   UNL     1      -1.331   2.079   0.020  0.00  0.00    +0.172 C 
ENDROOT
BRANCH   1   2
ATOM      2  C   UNL     1      -0.016   1.344   0.009  0.00  0.00    +0.228 C 
ATOM      3  O   UNL     1       1.026   1.964   0.003  0.00  0.00    -0.275 OA
ATOM      4  N   UNL     1       0.002  -0.004   0.002  0.00  0.00    -0.279 N 
ATOM      5  H   UNL     1      -0.943  -0.567   0.008  0.00  0.00    +0.155 HD
BRANCH   4   6
ATOM      6  C   UNL     1       1.212  -0.681  -0.013  0.00  0.00    +0.084 A 
ATOM      7  C   UNL     1       1.434  -2.051  -0.017  0.00  0.00    +0.068 A 
ATOM      8  C   UNL     1       2.813  -2.508  -0.037  0.00  0.00    -0.023 A 
ATOM      9  C   UNL     1       3.743  -1.529  -0.041  0.00  0.00    -0.004 A 
ATOM     10  S   UNL     1       2.814  -0.022  -0.024  0.00  0.00    -0.077 S 
ATOM     11  C   UNL     1       5.231  -1.697  -0.054  0.00  0.00    +0.043 C 
ATOM     12  C   UNL     1       5.557  -3.152   0.314  0.00  0.00    +0.005 C 
ATOM     13  C   UNL     1       4.671  -4.082  -0.519  0.00  0.00    +0.005 C 
ATOM     14  C   UNL     1       3.219  -3.976  -0.049  0.00  0.00    +0.037 C 
BRANCH   7  15
ATOM     15  C   UNL     1       0.318  -3.002  -0.005  0.00  0.00    +0.244 C 
ATOM     16  O   UNL     1      -0.157  -3.396  -1.054  0.00  0.00    -0.270 OA
ATOM     17  N   UNL     1      -0.182  -3.439   1.168  0.00  0.00    -0.325 N 
ATOM     18  H   UNL     1      -1.019  -4.153   1.177  0.00  0.00    +0.145 HD
ATOM     19  H   UNL     1       0.247  -3.083   2.116  0.00  0.00    +0.145 HD
ENDBRANCH   7  15
ENDBRANCH   4   6
ENDBRANCH   1   2
BRANCH   1  20
ATOM     20  S   UNL     1      -1.024   3.867   0.028  0.00  0.00    -0.088 S 
BRANCH  20  25
ATOM     21  N   UNL     1      -5.907   6.993   0.070  0.00  0.00    -0.318 N 
ATOM     22  C   UNL     1      -4.886   6.050   0.059  0.00  0.00    +0.183 A 
ATOM     23  N   UNL     1      -4.964   4.734   0.052  0.00  0.00    -0.125 NA
ATOM     24  N   UNL     1      -3.813   3.979   0.042  0.00  0.00    -0.133 NA
ATOM     25  C   UNL     1      -2.637   4.577   0.039  0.00  0.00    +0.160 A 
ATOM     26  S   UNL     1      -3.116   6.297   0.058  0.00  0.00    -0.025 S 
ATOM     27  H   UNL     1      -5.665   8.066   0.075  0.00  0.00    +0.148 HD
BRANCH  21  28
ATOM     28  C   UNL     1      -7.306   6.557   0.074  0.00  0.00    +0.138 C 
BRANCH  28  32
ATOM     29  C   UNL     1      -9.863   9.981   0.107  0.00  0.00    +0.120 A 
ATOM     30  C   UNL     1      -9.453   9.431  -1.099  0.00  0.00    +0.046 A 
ATOM     31  C   UNL     1      -8.626   8.325  -1.107  0.00  0.00    +0.009 A 
ATOM     32  C   UNL     1      -8.207   7.765   0.086  0.00  0.00    -0.030 A 
ATOM     33  C   UNL     1      -8.619   8.307   1.289  0.00  0.00    +0.009 A 
ATOM     34  C   UNL     1      -9.441   9.417   1.303  0.00  0.00    +0.046 A 
BRANCH  29  36
ATOM     35  C   UNL     1     -11.058  11.582   1.396  0.00  0.00    +0.277 C 
ATOM     36  O   UNL     1     -10.676  11.070   0.118  0.00  0.00    -0.495 OA
ENDBRANCH  29  36
ENDBRANCH  28  32
ENDBRANCH  21  28
ENDBRANCH  20  25
ENDBRANCH   1  20
TORSDOF 8
