REMARK  Name = ZINC05753474
REMARK  6 active torsions:
REMARK  status: ('A' for Active; 'I' for Inactive)
REMARK    1  A    between atoms: C_1  and  N_2
REMARK    2  A    between atoms: C_3  and  C_9
REMARK    3  A    between atoms: C_12  and  C_15
REMARK    4  A    between atoms: C_15  and  N_16
REMARK    5  A    between atoms: N_16  and  C_17
REMARK    6  A    between atoms: C_20  and  C_22
REMARK                            x       y       z     vdW  Elec       q    Type
REMARK                         _______ _______ _______ _____ _____    ______ ____
ROOT
ATOM      1  C   UNL     1       4.860   0.278  -0.043  0.00  0.00    +0.150 C 
ENDROOT
BRANCH   1   5
ATOM      2  C   UNL     1       8.323  -0.615  -0.865  0.00  0.00    +0.128 C 
ATOM      3  N   UNL     1       7.608  -1.390  -1.613  0.00  0.00    -0.085 NA
ATOM      4  O   UNL     1       6.223  -1.282  -1.349  0.00  0.00    -0.388 OA
ATOM      5  C   UNL     1       6.072  -0.655  -0.059  0.00  0.00    +0.227 C 
ATOM      6  C   UNL     1       7.390   0.146   0.058  0.00  0.00    +0.111 C 
BRANCH   2   9
ATOM      7  C   UNL     1      10.230  -2.171  -2.752  0.00  0.00    +0.153 C 
ATOM      8  N   UNL     1      10.637  -1.188  -1.745  0.00  0.00    -0.305 N 
ATOM      9  C   UNL     1       9.788  -0.492  -0.902  0.00  0.00    +0.180 A 
ATOM     10  N   UNL     1      10.508   0.295  -0.149  0.00  0.00    -0.152 NA
ATOM     11  N   UNL     1      11.854   0.112  -0.493  0.00  0.00    -0.254 N 
ATOM     12  H   UNL     1      12.614   0.566  -0.095  0.00  0.00    +0.191 HD
ATOM     13  C   UNL     1      11.902  -0.805  -1.480  0.00  0.00    +0.176 A 
ATOM     14  S   UNL     1      13.315  -1.379  -2.258  0.00  0.00    -0.011 S 
ENDBRANCH   2   9
ENDBRANCH   1   5
BRANCH   1  15
ATOM     15  N   UNL     1       3.630  -0.518  -0.035  0.00  0.00    -0.326 N 
ATOM     16  H   UNL     1       3.679  -1.487  -0.041  0.00  0.00    +0.148 HD
BRANCH  15  17
ATOM     17  C   UNL     1       2.392   0.115  -0.020  0.00  0.00    +0.115 A 
ATOM     18  C   UNL     1       1.227  -0.648  -0.013  0.00  0.00    +0.079 A 
ATOM     19  C   UNL     1       0.002  -0.004   0.002  0.00  0.00    +0.037 A 
ATOM     20  C   UNL     1      -0.017   1.385   0.010  0.00  0.00    +0.072 A 
ATOM     21  C   UNL     1       1.177   2.077   0.002  0.00  0.00    +0.096 A 
ATOM     22 CL   UNL     1       1.310  -2.382  -0.024  0.00  0.00    -0.080 Cl
ATOM     23  N   UNL     1       2.398   1.479  -0.013  0.00  0.00    -0.348 N 
ATOM     24  H   UNL     1       3.271   2.020  -0.019  0.00  0.00    +0.167 HD
BRANCH  20  25
ATOM     25  C   UNL     1      -1.328   2.128   0.020  0.00  0.00    +0.419 C 
ATOM     26  F   UNL     1      -1.727   2.351   1.342  0.00  0.00    -0.166 F 
ATOM     27  F   UNL     1      -1.173   3.355  -0.634  0.00  0.00    -0.166 F 
ATOM     28  F   UNL     1      -2.300   1.368  -0.639  0.00  0.00    -0.166 F 
ENDBRANCH  20  25
ENDBRANCH  15  17
ENDBRANCH   1  15
TORSDOF 5
