REMARK  Name = ZINC33502530
REMARK  11 active torsions:
REMARK  status: ('A' for Active; 'I' for Inactive)
REMARK    1  A    between atoms: C_1  and  C_2
REMARK    2  A    between atoms: C_2  and  C_3
REMARK    3  A    between atoms: N_7  and  C_22
REMARK    4  A    between atoms: C_10  and  C_15
REMARK    5  A    between atoms: C_15  and  C_17
REMARK    6  A    between atoms: C_15  and  N_21
REMARK    7  A    between atoms: C_17  and  C_18
REMARK    8  A    between atoms: C_18  and  C_19
REMARK    9  A    between atoms: C_18  and  C_20
REMARK   10  A    between atoms: C_22  and  C_23
REMARK   11  A    between atoms: C_23  and  O_24
REMARK                            x       y       z     vdW  Elec       q    Type
REMARK                         _______ _______ _______ _____ _____    ______ ____
ROOT
ATOM      1  C   UNL     1      -1.287   7.941  -1.185  0.00  0.00    +0.259 C 
ATOM      2  C   UNL     1      -2.662   7.333  -1.297  0.00  0.00    +0.261 C 
ATOM      3  O   UNL     1      -3.635   8.046  -1.421  0.00  0.00    -0.271 OA
ATOM      4  N   UNL     1      -2.805   5.991  -1.259  0.00  0.00    -0.263 N 
ATOM      5  C   UNL     1      -1.686   5.192  -0.988  0.00  0.00    +0.079 A 
ATOM      6  C   UNL     1      -1.737   3.821  -1.179  0.00  0.00    +0.029 A 
ATOM      7  C   UNL     1      -0.620   3.048  -0.920  0.00  0.00    -0.060 A 
ATOM      8  C   UNL     1       0.549   3.641  -0.481  0.00  0.00    +0.005 A 
ATOM      9  C   UNL     1       0.607   5.009  -0.287  0.00  0.00    +0.048 A 
ATOM     10  C   UNL     1      -0.510   5.789  -0.538  0.00  0.00    +0.143 A 
ATOM     11  O   UNL     1      -0.470   7.133  -0.335  0.00  0.00    -0.478 OA
ENDROOT
BRANCH   1  13
ATOM     12  C   UNL     1       0.688   8.756  -2.482  0.00  0.00    +0.008 C 
ATOM     13  C   UNL     1      -0.651   8.022  -2.575  0.00  0.00    +0.051 C 
ENDBRANCH   1  13
BRANCH   7  14
ATOM     14  C   UNL     1      -0.675   1.556  -1.124  0.00  0.00    -0.044 C 
BRANCH  14  15
ATOM     15  N   UNL     1       0.055   0.886  -0.039  0.00  0.00    +0.383 N 
ATOM     16  H   UNL     1       0.015  -0.203  -0.188  0.00  0.00    -0.089 HD
ATOM     17  H   UNL     1      -0.406   1.142   0.926  0.00  0.00    -0.089 HD
ATOM     18  H   UNL     1       1.104   1.218  -0.044  0.00  0.00    -0.089 HD
ENDBRANCH  14  15
BRANCH  14  19
ATOM     19  C   UNL     1      -0.035   1.200  -2.466  0.00  0.00    -0.009 C 
BRANCH  19  20
ATOM     20  C   UNL     1      -0.873   1.787  -3.603  0.00  0.00    -0.018 C 
ATOM     21  C   UNL     1      -0.159   1.554  -4.937  0.00  0.00    +0.007 C 
ATOM     22  C   UNL     1      -2.242   1.105  -3.632  0.00  0.00    +0.007 C 
ENDBRANCH  19  20
ENDBRANCH  14  19
ENDBRANCH   7  14
BRANCH   4  23
ATOM     23  C   UNL     1      -4.114   5.378  -1.497  0.00  0.00    +0.141 C 
BRANCH  23  24
ATOM     24  C   UNL     1      -4.279   5.093  -2.991  0.00  0.00    +0.175 C 
BRANCH  24  25
ATOM     25  O   UNL     1      -3.322   4.113  -3.398  0.00  0.00    -0.393 OA
ATOM     26  H   UNL     1      -3.289   3.778  -4.445  0.00  0.00    +0.209 HD
ENDBRANCH  24  25
ENDBRANCH  23  24
ENDBRANCH   4  23
TORSDOF 8
