REMARK  Name = ZINC58570573
REMARK  5 active torsions:
REMARK  status: ('A' for Active; 'I' for Inactive)
REMARK    1  A    between atoms: C_3  and  C_11
REMARK    2  A    between atoms: C_5  and  N_7
REMARK    3  A    between atoms: C_11  and  N_12
REMARK    4  A    between atoms: C_13  and  C_15
REMARK    5  A    between atoms: C_15  and  C_20
REMARK                            x       y       z     vdW  Elec       q    Type
REMARK                         _______ _______ _______ _____ _____    ______ ____
ROOT
ATOM      1  N   UNL     1       5.220   2.351   1.380  0.00  0.00    -0.310 N 
ATOM      2  C   UNL     1       6.208   3.250   1.557  0.00  0.00    +0.224 C 
ATOM      3  O   UNL     1       6.435   4.078   0.701  0.00  0.00    -0.275 OA
ATOM      4  H   UNL     1       4.993   1.733   2.093  0.00  0.00    +0.149 HD
ENDROOT
BRANCH   2   5
ATOM      5  C   UNL     1       7.031   3.226   2.819  0.00  0.00    +0.072 C 
ATOM      6  C   UNL     1       7.667   1.834   3.010  0.00  0.00    +0.021 C 
ATOM      7  C   UNL     1       9.087   1.979   2.408  0.00  0.00    +0.001 C 
ATOM      8  C   UNL     1       9.495   3.410   2.837  0.00  0.00    +0.001 C 
ATOM      9  C   UNL     1       8.193   4.229   2.709  0.00  0.00    +0.021 C 
BRANCH   5  10
ATOM     10  C   UNL     1       6.166   3.567   4.005  0.00  0.00    -0.029 A 
ATOM     11  C   UNL     1       6.718   3.610   5.272  0.00  0.00    +0.008 A 
ATOM     12  C   UNL     1       5.928   3.921   6.363  0.00  0.00    +0.050 A 
ATOM     13  C   UNL     1       4.579   4.190   6.189  0.00  0.00    +0.162 A 
ATOM     14  C   UNL     1       4.024   4.149   4.915  0.00  0.00    +0.162 A 
ATOM     15  C   UNL     1       4.824   3.840   3.825  0.00  0.00    +0.054 A 
ATOM     16  O   UNL     1       2.704   4.417   4.721  0.00  0.00    -0.485 OA
ATOM     17  C   UNL     1       1.859   4.361   5.876  0.00  0.00    +0.270 C 
ATOM     18  C   UNL     1       2.553   5.120   7.016  0.00  0.00    +0.270 C 
ATOM     19  O   UNL     1       3.812   4.490   7.273  0.00  0.00    -0.485 OA
ENDBRANCH   5  10
ENDBRANCH   2   5
BRANCH   1  20
ATOM     20  C   UNL     1       4.488   2.307   0.112  0.00  0.00    +0.139 C 
BRANCH  20  23
ATOM     21  C   UNL     1       1.210   0.519   0.685  0.00  0.00    +0.002 A 
ATOM     22  C   UNL     1       2.172   1.512   0.629  0.00  0.00    +0.005 A 
ATOM     23  C   UNL     1       3.444   1.222   0.172  0.00  0.00    -0.029 A 
ATOM     24  C   UNL     1       3.758  -0.062  -0.231  0.00  0.00    +0.028 A 
ATOM     25  C   UNL     1       2.795  -1.060  -0.176  0.00  0.00    +0.035 A 
ATOM     26  C   UNL     1       1.519  -0.766   0.284  0.00  0.00    +0.023 A 
BRANCH  25  27
ATOM     27  N   UNL     1       3.111  -2.361  -0.584  0.00  0.00    -0.270 N 
ATOM     28  C   UNL     1       4.348  -2.852  -0.374  0.00  0.00    +0.301 C 
ATOM     29  O   UNL     1       5.162  -2.201   0.252  0.00  0.00    -0.253 OA
ATOM     30  N   UNL     1       4.684  -4.065  -0.858  0.00  0.00    -0.313 N 
ATOM     31  H   UNL     1       2.438  -2.910  -1.018  0.00  0.00    +0.156 HD
ATOM     32  H   UNL     1       4.034  -4.584  -1.357  0.00  0.00    +0.146 HD
ATOM     33  H   UNL     1       5.574  -4.418  -0.707  0.00  0.00    +0.146 HD
ENDBRANCH  25  27
ENDBRANCH  20  23
ENDBRANCH   1  20
TORSDOF 5
