REMARK  Name = ZINC58102426
REMARK  6 active torsions:
REMARK  status: ('A' for Active; 'I' for Inactive)
REMARK    1  A    between atoms: C_1  and  C_2
REMARK    2  A    between atoms: C_2  and  C_4
REMARK    3  A    between atoms: C_2  and  N_10
REMARK    4  A    between atoms: C_4  and  N_5
REMARK    5  A    between atoms: N_13  and  C_14
REMARK    6  A    between atoms: C_19  and  C_20
REMARK                            x       y       z     vdW  Elec       q    Type
REMARK                         _______ _______ _______ _____ _____    ______ ____
ROOT
ATOM      1  N   UNL     1       1.066   0.791   1.773  0.00  0.00    -0.295 N 
ATOM      2  C   UNL     1       0.393   0.454   2.891  0.00  0.00    +0.304 C 
ATOM      3  O   UNL     1      -0.558   1.119   3.252  0.00  0.00    -0.252 OA
ATOM      4  N   UNL     1       0.774  -0.622   3.608  0.00  0.00    -0.269 N 
ATOM      5  H   UNL     1       1.825   0.260   1.485  0.00  0.00    +0.151 HD
ATOM      6  H   UNL     1       1.497  -1.185   3.291  0.00  0.00    +0.156 HD
ENDROOT
BRANCH   4   7
ATOM      7  C   UNL     1       0.130  -0.924   4.806  0.00  0.00    +0.048 A 
ATOM      8  C   UNL     1      -1.218  -0.633   4.965  0.00  0.00    +0.044 A 
ATOM      9  C   UNL     1      -1.854  -0.934   6.154  0.00  0.00    +0.043 A 
ATOM     10  C   UNL     1      -1.154  -1.526   7.195  0.00  0.00    +0.021 A 
ATOM     11  C   UNL     1       0.184  -1.821   7.053  0.00  0.00    +0.016 A 
ATOM     12  C   UNL     1       0.839  -1.529   5.854  0.00  0.00    +0.058 A 
ATOM     13 CL   UNL     1      -3.540  -0.568   6.347  0.00  0.00    -0.083 Cl
BRANCH  12  14
ATOM     14  C   UNL     1       2.270  -1.849   5.694  0.00  0.00    +0.248 C 
ATOM     15  O   UNL     1       3.049  -0.986   5.338  0.00  0.00    -0.270 OA
ATOM     16  N   UNL     1       2.713  -3.097   5.943  0.00  0.00    -0.297 N 
ATOM     17  C   UNL     1       1.798  -4.131   6.443  0.00  0.00    +0.108 C 
ATOM     18  C   UNL     1       1.886  -5.354   5.525  0.00  0.00    +0.019 C 
ATOM     19  C   UNL     1       3.345  -5.804   5.420  0.00  0.00    +0.003 C 
ATOM     20  C   UNL     1       4.184  -4.679   4.809  0.00  0.00    +0.019 C 
ATOM     21  C   UNL     1       4.121  -3.450   5.714  0.00  0.00    +0.108 C 
ENDBRANCH  12  14
ENDBRANCH   4   7
BRANCH   1  23
ATOM     22  C   UNL     1       1.291   3.219   1.582  0.00  0.00    +0.029 C 
ATOM     23  C   UNL     1       0.651   1.960   0.993  0.00  0.00    +0.091 C 
BRANCH  23  24
ATOM     24  C   UNL     1       1.102   1.791  -0.459  0.00  0.00    +0.144 C 
BRANCH  24  25
ATOM     25  N   UNL     1       0.399   0.655  -1.059  0.00  0.00    -0.337 N 
ATOM     26  C   UNL     1       0.812  -0.650  -1.058  0.00  0.00    +0.104 A 
ATOM     27  C   UNL     1      -0.127  -1.357  -1.714  0.00  0.00    +0.101 A 
ATOM     28  N   UNL     1      -1.088  -0.508  -2.106  0.00  0.00    -0.352 N 
ATOM     29  C   UNL     1      -0.782   0.699  -1.713  0.00  0.00    +0.173 A 
ATOM     30  H   UNL     1      -1.886  -0.752  -2.600  0.00  0.00    +0.166 HD
ENDBRANCH  24  25
ENDBRANCH  23  24
ENDBRANCH   1  23
TORSDOF 5
