REMARK  Name = ZINC09765676
REMARK  13 active torsions:
REMARK  status: ('A' for Active; 'I' for Inactive)
REMARK    1  A    between atoms: C_1  and  C_2
REMARK    2  A    between atoms: C_2  and  O_3
REMARK    3  A    between atoms: O_3  and  C_4
REMARK    4  A    between atoms: C_4  and  C_5
REMARK    5  A    between atoms: C_5  and  N_6
REMARK    6  A    between atoms: C_8  and  C_38
REMARK    7  A    between atoms: C_10  and  C_37
REMARK    8  A    between atoms: N_15  and  C_16
REMARK    9  A    between atoms: C_16  and  C_18
REMARK   10  A    between atoms: C_21  and  S_24
REMARK   11  A    between atoms: S_24  and  N_27
REMARK   12  A    between atoms: C_29  and  C_36
REMARK   13  A    between atoms: C_32  and  C_35
REMARK                            x       y       z     vdW  Elec       q    Type
REMARK                         _______ _______ _______ _____ _____    ______ ____
ROOT
ATOM      1  C   UNL     1      -2.704  -0.933   6.547  0.00  0.00    +0.269 C 
ATOM      2  O   UNL     1      -2.032  -1.198   7.529  0.00  0.00    -0.268 OA
ENDROOT
BRANCH   1  12
ATOM      3  N   UNL     1      -0.551   1.593   5.130  0.00  0.00    -0.319 N 
ATOM      4  C   UNL     1       0.656   2.144   5.516  0.00  0.00    +0.061 A 
ATOM      5  C   UNL     1       1.403   3.143   4.872  0.00  0.00    -0.026 A 
ATOM      6  C   UNL     1       2.596   3.579   5.399  0.00  0.00    +0.008 A 
ATOM      7  C   UNL     1       3.096   3.051   6.577  0.00  0.00    -0.049 A 
ATOM      8  C   UNL     1       2.381   2.065   7.233  0.00  0.00    +0.020 A 
ATOM      9  C   UNL     1       1.188   1.627   6.707  0.00  0.00    +0.039 A 
ATOM     10  S   UNL     1      -0.017   0.422   7.202  0.00  0.00    -0.052 S 
ATOM     11  C   UNL     1      -1.135   0.629   5.892  0.00  0.00    +0.167 A 
ATOM     12  N   UNL     1      -2.284  -0.004   5.682  0.00  0.00    -0.152 NA
ATOM     13  C   UNL     1       4.405   3.543   7.138  0.00  0.00    +0.044 C 
ATOM     14  C   UNL     1       0.892   3.744   3.588  0.00  0.00    +0.046 C 
BRANCH   3  15
ATOM     15  C   UNL     1      -1.206   2.051   3.903  0.00  0.00    +0.152 C 
BRANCH  15  16
ATOM     16  C   UNL     1      -0.706   1.222   2.718  0.00  0.00    +0.181 C 
BRANCH  16  17
ATOM     17  O   UNL     1      -1.345   1.670   1.520  0.00  0.00    -0.378 OA
BRANCH  17  19
ATOM     18  C   UNL     1      -1.688   1.518  -0.867  0.00  0.00    +0.034 C 
ATOM     19  C   UNL     1      -0.946   0.957   0.348  0.00  0.00    +0.156 C 
ENDBRANCH  17  19
ENDBRANCH  16  17
ENDBRANCH  15  16
ENDBRANCH   3  15
ENDBRANCH   1  12
BRANCH   1  20
ATOM     20  C   UNL     1      -3.985  -1.639   6.313  0.00  0.00    +0.039 A 
ATOM     21  C   UNL     1      -4.758  -1.333   5.193  0.00  0.00    +0.015 A 
ATOM     22  C   UNL     1      -5.948  -1.997   4.977  0.00  0.00    +0.029 A 
ATOM     23  C   UNL     1      -6.380  -2.958   5.875  0.00  0.00    +0.106 A 
ATOM     24  C   UNL     1      -5.620  -3.262   6.990  0.00  0.00    +0.029 A 
ATOM     25  C   UNL     1      -4.425  -2.608   7.214  0.00  0.00    +0.015 A 
BRANCH  23  26
ATOM     26  S   UNL     1      -7.903  -3.797   5.596  0.00  0.00    +0.061 S 
ATOM     27  O   UNL     1      -8.159  -3.722   4.200  0.00  0.00    -0.153 OA
ATOM     28  O   UNL     1      -7.818  -5.035   6.289  0.00  0.00    -0.153 OA
BRANCH  26  29
ATOM     29  N   UNL     1      -9.091  -2.917   6.343  0.00  0.00    -0.172 NA
ATOM     30  C   UNL     1      -9.466  -3.184   7.740  0.00  0.00    +0.140 C 
ATOM     31  C   UNL     1      -9.450  -1.849   8.503  0.00  0.00    +0.131 C 
ATOM     32  O   UNL     1     -10.255  -0.899   7.801  0.00  0.00    -0.371 OA
ATOM     33  C   UNL     1      -9.779  -0.584   6.490  0.00  0.00    +0.131 C 
ATOM     34  C   UNL     1      -9.807  -1.850   5.626  0.00  0.00    +0.140 C 
ATOM     35  C   UNL     1      -8.345  -0.058   6.580  0.00  0.00    +0.039 C 
ATOM     36  C   UNL     1     -10.018  -2.060   9.909  0.00  0.00    +0.039 C 
ENDBRANCH  26  29
ENDBRANCH  23  26
ENDBRANCH   1  20
TORSDOF 8
