REMARK  Name = ZINC20470981
REMARK  5 active torsions:
REMARK  status: ('A' for Active; 'I' for Inactive)
REMARK    1  A    between atoms: C_1  and  C_2
REMARK    2  A    between atoms: C_5  and  N_9
REMARK    3  A    between atoms: N_9  and  S_10
REMARK    4  A    between atoms: S_10  and  C_13
REMARK    5  A    between atoms: C_18  and  N_19
REMARK                            x       y       z     vdW  Elec       q    Type
REMARK                         _______ _______ _______ _____ _____    ______ ____
ROOT
ATOM      1  S   UNL     1      -2.320   0.556  -0.300  0.00  0.00    +0.074 S 
ATOM      2  O   UNL     1      -1.988  -0.823  -0.378  0.00  0.00    -0.150 OA
ATOM      3  O   UNL     1      -1.357   1.583  -0.494  0.00  0.00    -0.150 OA
ENDROOT
BRANCH   1   4
ATOM      4  C   UNL     1      -3.599   0.835  -1.479  0.00  0.00    +0.129 A 
ATOM      5  C   UNL     1      -3.487   1.868  -2.389  0.00  0.00    +0.032 A 
ATOM      6  C   UNL     1      -4.487   2.084  -3.319  0.00  0.00    +0.022 A 
ATOM      7  C   UNL     1      -5.606   1.270  -3.337  0.00  0.00    +0.043 A 
ATOM      8  C   UNL     1      -5.727   0.238  -2.425  0.00  0.00    +0.044 A 
ATOM      9  C   UNL     1      -4.723   0.020  -1.490  0.00  0.00    +0.053 A 
ATOM     10 CL   UNL     1      -6.860   1.545  -4.506  0.00  0.00    -0.083 Cl
BRANCH   9  11
ATOM     11  N   UNL     1      -4.842  -1.022  -0.567  0.00  0.00    -0.356 N 
ATOM     12  H   UNL     1      -5.733  -1.667  -0.577  0.00  0.00    +0.142 HD
ATOM     13  H   UNL     1      -4.044  -1.197   0.170  0.00  0.00    +0.142 HD
ENDBRANCH   9  11
ENDBRANCH   1   4
BRANCH   1  14
ATOM     14  N   UNL     1      -2.975   0.801   1.201  0.00  0.00    -0.215 N 
ATOM     15  H   UNL     1      -3.098  -0.046   1.892  0.00  0.00    +0.174 HD
BRANCH  14  20
ATOM     16  C   UNL     1      -4.591   6.005   2.777  0.00  0.00    +0.044 C 
ATOM     17  C   UNL     1      -4.161   4.622   2.359  0.00  0.00    -0.049 A 
ATOM     18  C   UNL     1      -4.312   4.221   1.044  0.00  0.00    +0.005 A 
ATOM     19  C   UNL     1      -3.920   2.954   0.657  0.00  0.00    +0.026 A 
ATOM     20  C   UNL     1      -3.373   2.083   1.590  0.00  0.00    +0.066 A 
ATOM     21  C   UNL     1      -3.228   2.487   2.912  0.00  0.00    +0.064 A 
ATOM     22  C   UNL     1      -3.618   3.757   3.291  0.00  0.00    +0.025 A 
ATOM     23 CL   UNL     1      -2.552   1.399   4.084  0.00  0.00    -0.082 Cl
ENDBRANCH  14  20
ENDBRANCH   1  14
TORSDOF 4
