REMARK  Name = ZINC62937200
REMARK  5 active torsions:
REMARK  status: ('A' for Active; 'I' for Inactive)
REMARK    1  A    between atoms: C_1  and  C_2
REMARK    2  A    between atoms: C_2  and  C_3
REMARK    3  A    between atoms: C_3  and  C_15
REMARK    4  A    between atoms: N_6  and  C_8
REMARK    5  A    between atoms: C_8  and  C_9
REMARK                            x       y       z     vdW  Elec       q    Type
REMARK                         _______ _______ _______ _____ _____    ______ ____
ROOT
ATOM      1  C   UNL     1       0.742  -0.511   1.242  0.00  0.00    +0.056 C 
ATOM      2  C   UNL     1      -0.024  -0.117   2.521  0.00  0.00    -0.002 C 
ATOM      3  C   UNL     1      -0.390  -1.455   3.198  0.00  0.00    -0.077 C 
ATOM      4  N   UNL     1      -0.386  -2.447   2.092  0.00  0.00    +0.386 N 
ATOM      5  C   UNL     1       0.775  -2.054   1.253  0.00  0.00    -0.060 C 
ATOM      6  H   UNL     1      -1.242  -2.386   1.561  0.00  0.00    -0.081 HD
ENDROOT
BRANCH   1   7
ATOM      7  C   UNL     1       2.143   0.043   1.276  0.00  0.00    +0.360 C 
ATOM      8  O   UNL     1       2.322   1.248   1.299  0.00  0.00    -0.246 OA
ATOM      9  O   UNL     1       3.098  -0.716   1.281  0.00  0.00    -0.246 OA
ENDBRANCH   1   7
BRANCH   1  11
ATOM     10  C   UNL     1      -0.019   1.526   0.010  0.00  0.00    +0.005 C 
ATOM     11  C   UNL     1       0.002  -0.004   0.002  0.00  0.00    +0.013 C 
ENDBRANCH   1  11
BRANCH   4  12
ATOM     12  C   UNL     1      -0.202  -3.805   2.621  0.00  0.00    +0.019 C 
BRANCH  12  13
ATOM     13  C   UNL     1      -1.405  -4.192   3.443  0.00  0.00    +0.204 C 
ATOM     14  O   UNL     1      -2.324  -3.413   3.576  0.00  0.00    -0.277 OA
ATOM     15  N   UNL     1      -1.458  -5.403   4.031  0.00  0.00    -0.242 N 
ATOM     16  C   UNL     1      -2.533  -5.749   4.767  0.00  0.00    +0.303 C 
ATOM     17  O   UNL     1      -3.455  -4.968   4.900  0.00  0.00    -0.253 OA
ATOM     18  N   UNL     1      -2.586  -6.960   5.354  0.00  0.00    -0.313 N 
ATOM     19  H   UNL     1      -0.722  -6.027   3.925  0.00  0.00    +0.159 HD
ATOM     20  H   UNL     1      -1.851  -7.584   5.248  0.00  0.00    +0.146 HD
ATOM     21  H   UNL     1      -3.360  -7.209   5.884  0.00  0.00    +0.146 HD
ENDBRANCH  12  13
ENDBRANCH   4  12
TORSDOF 4
