REMARK  Name = ZINC08985561
REMARK  6 active torsions:
REMARK  status: ('A' for Active; 'I' for Inactive)
REMARK    1  A    between atoms: C_1  and  C_2
REMARK    2  A    between atoms: C_2  and  C_4
REMARK    3  A    between atoms: C_2  and  S_7
REMARK    4  A    between atoms: S_7  and  C_8
REMARK    5  A    between atoms: C_11  and  C_14
REMARK    6  A    between atoms: N_12  and  N_13
REMARK                            x       y       z     vdW  Elec       q    Type
REMARK                         _______ _______ _______ _____ _____    ______ ____
ROOT
ATOM      1  C   UNL     1       1.243  -0.433  -0.012  0.00  0.00    +0.209 A 
ATOM      2  N   UNL     1       0.002  -0.004   0.002  0.00  0.00    -0.121 NA
ATOM      3  N   UNL     1      -0.015   1.281   0.009  0.00  0.00    -0.132 NA
ATOM      4  C   UNL     1       1.202   1.745   0.000  0.00  0.00    +0.154 A 
ATOM      5  N   UNL     1       2.047   0.670  -0.014  0.00  0.00    -0.228 N 
ENDROOT
BRANCH   4   6
ATOM      6  C   UNL     1       1.605   3.197   0.004  0.00  0.00    +0.059 C 
ATOM      7  C   UNL     1       1.058   3.875   1.262  0.00  0.00    +0.011 C 
ATOM      8  C   UNL     1       1.466   5.349   1.265  0.00  0.00    +0.001 C 
ATOM      9  C   UNL     1       0.895   6.040   0.025  0.00  0.00    +0.000 C 
ATOM     10  C   UNL     1       1.442   5.362  -1.233  0.00  0.00    +0.001 C 
ATOM     11  C   UNL     1       1.033   3.888  -1.237  0.00  0.00    +0.011 C 
ENDBRANCH   4   6
BRANCH   5  12
ATOM     12  N   UNL     1       3.413   0.695  -0.027  0.00  0.00    -0.295 N 
ATOM     13  H   UNL     1       3.766   0.706  -0.972  0.00  0.00    +0.163 HD
ATOM     14  H   UNL     1       3.766   1.480   0.500  0.00  0.00    +0.163 HD
ENDBRANCH   5  12
BRANCH   1  15
ATOM     15  S   UNL     1       1.770  -2.114  -0.026  0.00  0.00    -0.072 S 
BRANCH  15  17
ATOM     16  C   UNL     1      -0.558  -2.648   1.300  0.00  0.00    +0.029 C 
ATOM     17  C   UNL     1       0.163  -2.948  -0.015  0.00  0.00    +0.137 C 
BRANCH  17  18
ATOM     18  C   UNL     1       0.367  -4.435  -0.148  0.00  0.00    +0.224 C 
ATOM     19  O   UNL     1       1.413  -4.937   0.204  0.00  0.00    -0.275 OA
ATOM     20  N   UNL     1      -0.612  -5.206  -0.659  0.00  0.00    -0.328 N 
ATOM     21  H   UNL     1      -1.449  -4.805  -0.941  0.00  0.00    +0.145 HD
ATOM     22  H   UNL     1      -0.481  -6.164  -0.745  0.00  0.00    +0.145 HD
ENDBRANCH  17  18
ENDBRANCH  15  17
ENDBRANCH   1  15
TORSDOF 5
