REMARK  Name = ZINC54731074
REMARK  7 active torsions:
REMARK  status: ('A' for Active; 'I' for Inactive)
REMARK    1  A    between atoms: C_1  and  C_2
REMARK    2  A    between atoms: C_2  and  C_4
REMARK    3  A    between atoms: C_2  and  N_20
REMARK    4  A    between atoms: N_6  and  C_7
REMARK    5  A    between atoms: C_10  and  S_13
REMARK    6  A    between atoms: S_13  and  C_14
REMARK    7  A    between atoms: N_18  and  C_19
REMARK                            x       y       z     vdW  Elec       q    Type
REMARK                         _______ _______ _______ _____ _____    ______ ____
ROOT
ATOM      1  C   UNL     1      -1.592   0.009   2.196  0.00  0.00    +0.237 C 
ATOM      2  O   UNL     1      -2.148  -0.215   3.251  0.00  0.00    -0.273 OA
ATOM      3  N   UNL     1      -2.236  -0.217   1.034  0.00  0.00    -0.284 N 
ATOM      4  H   UNL     1      -1.818   0.025   0.193  0.00  0.00    +0.155 HD
ENDROOT
BRANCH   3   5
ATOM      5  C   UNL     1      -3.510  -0.799   1.040  0.00  0.00    +0.034 A 
ATOM      6  C   UNL     1      -3.879  -1.674   0.026  0.00  0.00    +0.024 A 
ATOM      7  C   UNL     1      -5.134  -2.248   0.033  0.00  0.00    +0.017 A 
ATOM      8  C   UNL     1      -6.029  -1.951   1.053  0.00  0.00    +0.016 A 
ATOM      9  C   UNL     1      -5.660  -1.076   2.067  0.00  0.00    +0.017 A 
ATOM     10  C   UNL     1      -4.403  -0.506   2.063  0.00  0.00    +0.024 A 
BRANCH   8  11
ATOM     11  S   UNL     1      -7.632  -2.683   1.061  0.00  0.00    -0.050 S 
BRANCH  11  12
ATOM     12  C   UNL     1      -7.450  -4.096   2.097  0.00  0.00    +0.196 A 
ATOM     13  N   UNL     1      -6.335  -4.530   2.637  0.00  0.00    -0.122 NA
ATOM     14  N   UNL     1      -6.568  -5.585   3.334  0.00  0.00    -0.137 NA
ATOM     15  C   UNL     1      -7.835  -5.885   3.280  0.00  0.00    +0.225 A 
ATOM     16  N   UNL     1      -8.443  -4.944   2.496  0.00  0.00    -0.311 N 
ATOM     17  C   UNL     1      -9.865  -4.865   2.152  0.00  0.00    +0.152 C 
ENDBRANCH  11  12
ENDBRANCH   8  11
ENDBRANCH   3   5
BRANCH   1  19
ATOM     18  C   UNL     1       0.727  -0.445   1.444  0.00  0.00    +0.038 C 
ATOM     19  C   UNL     1      -0.182   0.538   2.185  0.00  0.00    +0.158 C 
BRANCH  19  20
ATOM     20  N   UNL     1       0.291   0.697   3.563  0.00  0.00    -0.289 N 
ATOM     21  C   UNL     1       1.265   1.585   3.843  0.00  0.00    +0.298 C 
ATOM     22  O   UNL     1       1.751   2.255   2.953  0.00  0.00    -0.253 OA
ATOM     23  N   UNL     1       1.700   1.731   5.111  0.00  0.00    -0.313 N 
ATOM     24  H   UNL     1      -0.097   0.162   4.273  0.00  0.00    +0.151 HD
ATOM     25  H   UNL     1       1.312   1.196   5.821  0.00  0.00    +0.146 HD
ATOM     26  H   UNL     1       2.401   2.370   5.313  0.00  0.00    +0.146 HD
ENDBRANCH  19  20
ENDBRANCH   1  19
TORSDOF 5
