REMARK  Name = ZINC23636097
REMARK  8 active torsions:
REMARK  status: ('A' for Active; 'I' for Inactive)
REMARK    1  A    between atoms: C_1  and  C_2
REMARK    2  A    between atoms: C_5  and  C_7
REMARK    3  A    between atoms: C_8  and  C_18
REMARK    4  A    between atoms: N_10  and  C_12
REMARK    5  A    between atoms: C_18  and  O_20
REMARK    6  A    between atoms: O_20  and  C_21
REMARK    7  A    between atoms: C_21  and  C_23
REMARK    8  A    between atoms: C_21  and  C_24
REMARK                            x       y       z     vdW  Elec       q    Type
REMARK                         _______ _______ _______ _____ _____    ______ ____
ROOT
ATOM      1  C   UNL     1      -2.480   1.085   4.377  0.00  0.00    +0.142 A 
ATOM      2  C   UNL     1      -3.316  -0.117   4.494  0.00  0.00    +0.108 A 
ATOM      3  C   UNL     1      -3.739  -0.171   5.806  0.00  0.00    +0.130 A 
ATOM      4  N   UNL     1      -3.229   0.894   6.449  0.00  0.00    -0.238 N 
ATOM      5  N   UNL     1      -2.461   1.655   5.563  0.00  0.00    -0.162 NA
ENDROOT
BRANCH   1  10
ATOM      6  C   UNL     1      -0.013   1.086   0.008  0.00  0.00    +0.086 C 
ATOM      7  C   UNL     1      -0.718   1.572   1.248  0.00  0.00    +0.103 A 
ATOM      8  C   UNL     1      -0.916   2.862   1.585  0.00  0.00    +0.045 A 
ATOM      9  C   UNL     1      -1.613   2.867   2.809  0.00  0.00    +0.052 A 
ATOM     10  C   UNL     1      -1.798   1.565   3.160  0.00  0.00    +0.156 A 
ATOM     11  O   UNL     1      -1.249   0.791   2.203  0.00  0.00    -0.458 OA
ENDBRANCH   1  10
BRANCH   4  12
ATOM     12  C   UNL     1      -3.437   1.196   7.801  0.00  0.00    +0.065 A 
ATOM     13  C   UNL     1      -4.228   0.367   8.585  0.00  0.00    +0.028 A 
ATOM     14  C   UNL     1      -4.426   0.664   9.919  0.00  0.00    +0.002 A 
ATOM     15  C   UNL     1      -3.847   1.792  10.471  0.00  0.00    +0.000 A 
ATOM     16  C   UNL     1      -3.063   2.623   9.691  0.00  0.00    +0.002 A 
ATOM     17  C   UNL     1      -2.857   2.328   8.358  0.00  0.00    +0.028 A 
ENDBRANCH   4  12
BRANCH   2  18
ATOM     18  C   UNL     1      -3.636  -1.075   3.425  0.00  0.00    +0.344 C 
ATOM     19  O   UNL     1      -3.191  -0.908   2.306  0.00  0.00    -0.245 OA
BRANCH  18  20
ATOM     20  O   UNL     1      -4.423  -2.138   3.686  0.00  0.00    -0.450 OA
BRANCH  20  21
ATOM     21  C   UNL     1      -4.697  -3.042   2.583  0.00  0.00    +0.239 C 
ATOM     22  C   UNL     1      -3.628  -4.136   2.543  0.00  0.00    +0.060 C 
BRANCH  21  23
ATOM     23  C   UNL     1      -6.053  -3.671   2.774  0.00  0.00    +0.151 A 
ATOM     24  N   UNL     1      -7.154  -2.913   2.534  0.00  0.00    -0.307 N 
ATOM     25  H   UNL     1      -7.043  -1.867   2.213  0.00  0.00    +0.170 HD
ATOM     26  C   UNL     1      -8.395  -3.433   2.685  0.00  0.00    +0.259 A 
ATOM     27  O   UNL     1      -9.390  -2.766   2.469  0.00  0.00    -0.267 OA
ATOM     28  C   UNL     1      -8.493  -4.832   3.126  0.00  0.00    +0.065 A 
ATOM     29  C   UNL     1      -9.722  -5.460   3.318  0.00  0.00    +0.015 A 
ATOM     30  C   UNL     1      -9.756  -6.773   3.733  0.00  0.00    +0.001 A 
ATOM     31  C   UNL     1      -8.578  -7.473   3.961  0.00  0.00    +0.002 A 
ATOM     32  C   UNL     1      -7.354  -6.871   3.777  0.00  0.00    +0.028 A 
ATOM     33  C   UNL     1      -7.293  -5.540   3.357  0.00  0.00    +0.078 A 
ATOM     34  N   UNL     1      -6.108  -4.908   3.164  0.00  0.00    -0.230 NA
ENDBRANCH  21  23
ENDBRANCH  20  21
ENDBRANCH  18  20
ENDBRANCH   2  18
TORSDOF 6
