REMARK  Name = ZINC61091877
REMARK  8 active torsions:
REMARK  status: ('A' for Active; 'I' for Inactive)
REMARK    1  A    between atoms: C_1  and  C_2
REMARK    2  A    between atoms: C_4  and  C_8
REMARK    3  A    between atoms: C_5  and  C_7
REMARK    4  A    between atoms: C_8  and  C_10
REMARK    5  A    between atoms: C_8  and  N_11
REMARK    6  A    between atoms: C_12  and  C_14
REMARK    7  A    between atoms: C_14  and  N_15
REMARK    8  A    between atoms: C_17  and  N_22
REMARK                            x       y       z     vdW  Elec       q    Type
REMARK                         _______ _______ _______ _____ _____    ______ ____
ROOT
ATOM      1  N   UNL     1      -2.786  -3.079   0.471  0.00  0.00    -0.307 N 
ATOM      2  C   UNL     1      -3.542  -4.045   1.030  0.00  0.00    +0.233 C 
ATOM      3  O   UNL     1      -3.106  -5.171   1.135  0.00  0.00    -0.274 OA
ATOM      4  H   UNL     1      -3.135  -2.178   0.387  0.00  0.00    +0.149 HD
ENDROOT
BRANCH   1   5
ATOM      5  C   UNL     1      -1.437  -3.390  -0.009  0.00  0.00    +0.103 C 
ATOM      6  C   UNL     1      -1.518  -3.946  -1.432  0.00  0.00    +0.033 C 
BRANCH   5  10
ATOM      7  C   UNL     1      -0.018   1.503   0.010  0.00  0.00    +0.086 C 
ATOM      8  C   UNL     1       0.002  -0.004   0.002  0.00  0.00    +0.103 A 
ATOM      9  C   UNL     1      -1.078  -0.805   0.003  0.00  0.00    +0.050 A 
ATOM     10  C   UNL     1      -0.601  -2.136  -0.007  0.00  0.00    +0.013 A 
ATOM     11  C   UNL     1       0.742  -2.069  -0.013  0.00  0.00    +0.107 A 
ATOM     12  O   UNL     1       1.102  -0.775  -0.013  0.00  0.00    -0.465 OA
ATOM     13  C   UNL     1       1.684  -3.245  -0.023  0.00  0.00    +0.086 C 
ENDBRANCH   5  10
ENDBRANCH   1   5
BRANCH   2  14
ATOM     14  C   UNL     1      -4.929  -3.724   1.524  0.00  0.00    +0.220 C 
BRANCH  14  15
ATOM     15  N   UNL     1      -5.539  -4.933   2.084  0.00  0.00    -0.305 N 
ATOM     16  C   UNL     1      -6.255  -5.761   1.276  0.00  0.00    +0.112 A 
ATOM     17  C   UNL     1      -6.830  -6.886   1.774  0.00  0.00    +0.041 A 
ATOM     18  C   UNL     1      -6.684  -7.202   3.137  0.00  0.00    +0.029 A 
ATOM     19  C   UNL     1      -5.964  -6.367   3.941  0.00  0.00    +0.072 A 
ATOM     20  C   UNL     1      -5.380  -5.214   3.391  0.00  0.00    +0.252 A 
ATOM     21  O   UNL     1      -4.729  -4.463   4.100  0.00  0.00    -0.268 OA
BRANCH  17  22
ATOM     22  N   UNL     1      -7.567  -7.732   0.932  0.00  0.00    -0.357 N 
ATOM     23  H   UNL     1      -7.667  -7.514  -0.008  0.00  0.00    +0.142 HD
ATOM     24  H   UNL     1      -7.976  -8.536   1.289  0.00  0.00    +0.142 HD
ENDBRANCH  17  22
ENDBRANCH  14  15
ENDBRANCH   2  14
TORSDOF 5
