REMARK  Name = ZINC61594826
REMARK  10 active torsions:
REMARK  status: ('A' for Active; 'I' for Inactive)
REMARK    1  A    between atoms: C_1  and  C_2
REMARK    2  A    between atoms: C_2  and  C_3
REMARK    3  A    between atoms: C_3  and  N_4
REMARK    4  A    between atoms: C_10  and  S_11
REMARK    5  A    between atoms: S_11  and  C_12
REMARK    6  A    between atoms: C_12  and  C_14
REMARK    7  A    between atoms: C_12  and  C_20
REMARK    8  A    between atoms: C_20  and  C_22
REMARK    9  A    between atoms: C_20  and  N_24
REMARK   10  A    between atoms: C_22  and  C_23
REMARK                            x       y       z     vdW  Elec       q    Type
REMARK                         _______ _______ _______ _____ _____    ______ ____
ROOT
ATOM      1  C   UNL     1      -2.409  -3.780  -3.254  0.00  0.00    +0.076 C 
ENDROOT
BRANCH   1   2
ATOM      2  C   UNL     1      -3.491  -3.567  -4.281  0.00  0.00    +0.003 A 
ATOM      3  C   UNL     1      -3.526  -3.959  -5.577  0.00  0.00    +0.014 A 
ATOM      4  C   UNL     1      -4.636  -3.650  -6.342  0.00  0.00    +0.028 A 
ATOM      5  C   UNL     1      -5.657  -2.964  -5.770  0.00  0.00    +0.078 A 
ATOM      6  S   UNL     1      -5.064  -2.741  -4.101  0.00  0.00    -0.081 S 
ATOM      7 CL   UNL     1      -7.155  -2.444  -6.477  0.00  0.00    -0.076 Cl
ENDBRANCH   1   2
BRANCH   1   8
ATOM      8  S   UNL     1      -1.818  -2.172  -2.657  0.00  0.00    -0.079 S 
BRANCH   8  15
ATOM      9  N   UNL     1       0.429  -1.668  -1.067  0.00  0.00    -0.271 N 
ATOM     10  C   UNL     1       1.377  -2.352  -0.398  0.00  0.00    +0.345 A 
ATOM     11  O   UNL     1       2.286  -1.871   0.256  0.00  0.00    -0.245 OA
ATOM     12  N   UNL     1       1.138  -3.667  -0.582  0.00  0.00    -0.226 N 
ATOM     13  H   UNL     1       1.657  -4.402  -0.218  0.00  0.00    +0.194 HD
ATOM     14  N   UNL     1       0.001  -3.776  -1.394  0.00  0.00    -0.145 NA
ATOM     15  C   UNL     1      -0.414  -2.574  -1.671  0.00  0.00    +0.193 A 
BRANCH   9  16
ATOM     16  C   UNL     1       0.312  -0.209  -1.137  0.00  0.00    +0.129 C 
BRANCH  16  18
ATOM     17  C   UNL     1      -0.683   1.811  -0.054  0.00  0.00    +0.005 C 
ATOM     18  C   UNL     1      -0.561   0.288   0.018  0.00  0.00    +0.018 C 
ENDBRANCH  16  18
ENDBRANCH   9  16
ENDBRANCH   8  15
ENDBRANCH   1   8
BRANCH   1  19
ATOM     19  C   UNL     1      -2.970  -4.585  -2.080  0.00  0.00    -0.057 C 
BRANCH  19  20
ATOM     20  N   UNL     1      -3.578  -5.824  -2.583  0.00  0.00    +0.381 N 
ATOM     21  H   UNL     1      -2.907  -6.322  -3.148  0.00  0.00    -0.090 HD
ATOM     22  H   UNL     1      -3.857  -6.402  -1.804  0.00  0.00    -0.090 HD
ATOM     23  H   UNL     1      -4.388  -5.599  -3.141  0.00  0.00    -0.090 HD
ENDBRANCH  19  20
BRANCH  19  24
ATOM     24  C   UNL     1      -4.031  -3.755  -1.353  0.00  0.00    -0.018 C 
ATOM     25  C   UNL     1      -4.503  -4.508  -0.108  0.00  0.00    +0.002 C 
ENDBRANCH  19  24
ENDBRANCH   1  19
TORSDOF 8
