REMARK  Name = ZINC67609854
REMARK  6 active torsions:
REMARK  status: ('A' for Active; 'I' for Inactive)
REMARK    1  A    between atoms: C_1  and  C_2
REMARK    2  A    between atoms: C_4  and  C_7
REMARK    3  A    between atoms: C_7  and  N_8
REMARK    4  A    between atoms: N_11  and  C_12
REMARK    5  A    between atoms: C_12  and  C_13
REMARK    6  A    between atoms: C_16  and  N_19
REMARK                            x       y       z     vdW  Elec       q    Type
REMARK                         _______ _______ _______ _____ _____    ______ ____
ROOT
ATOM      1  C   UNL     1      -3.435  -6.533  -3.171  0.00  0.00    +0.141 C 
ENDROOT
BRANCH   1   5
ATOM      2  N   UNL     1      -1.659  -3.854  -1.384  0.00  0.00    -0.294 N 
ATOM      3  C   UNL     1      -2.424  -4.936  -1.633  0.00  0.00    +0.300 C 
ATOM      4  O   UNL     1      -2.953  -5.531  -0.714  0.00  0.00    -0.253 OA
ATOM      5  N   UNL     1      -2.603  -5.357  -2.901  0.00  0.00    -0.295 N 
ATOM      6  H   UNL     1      -1.238  -3.380  -2.117  0.00  0.00    +0.151 HD
ATOM      7  H   UNL     1      -2.182  -4.882  -3.634  0.00  0.00    +0.151 HD
BRANCH   2   8
ATOM      8  C   UNL     1      -1.465  -3.397  -0.006  0.00  0.00    +0.164 C 
BRANCH   8  12
ATOM      9  C   UNL     1       0.081   1.458   0.016  0.00  0.00    +0.089 C 
ATOM     10  C   UNL     1       0.081  -0.049   0.008  0.00  0.00    +0.135 A 
ATOM     11  C   UNL     1      -1.008  -0.841   0.006  0.00  0.00    +0.072 A 
ATOM     12  C   UNL     1      -0.576  -2.180  -0.002  0.00  0.00    +0.101 A 
ATOM     13  N   UNL     1       0.727  -2.184  -0.005  0.00  0.00    -0.081 NA
ATOM     14  O   UNL     1       1.167  -0.838  -0.004  0.00  0.00    -0.360 OA
ENDBRANCH   8  12
ENDBRANCH   2   8
ENDBRANCH   1   5
BRANCH   1  15
ATOM     15  C   UNL     1      -3.472  -6.790  -4.656  0.00  0.00    -0.030 A 
ATOM     16  C   UNL     1      -4.451  -6.199  -5.434  0.00  0.00    +0.007 A 
ATOM     17  C   UNL     1      -4.488  -6.433  -6.795  0.00  0.00    +0.023 A 
ATOM     18  C   UNL     1      -3.541  -7.264  -7.381  0.00  0.00    +0.030 A 
ATOM     19  C   UNL     1      -2.560  -7.856  -6.596  0.00  0.00    +0.023 A 
ATOM     20  C   UNL     1      -2.525  -7.613  -5.237  0.00  0.00    +0.007 A 
BRANCH  18  21
ATOM     21  N   UNL     1      -3.576  -7.503  -8.757  0.00  0.00    -0.320 N 
ATOM     22  C   UNL     1      -2.520  -8.280  -9.427  0.00  0.00    +0.124 C 
ATOM     23  C   UNL     1      -3.161  -9.522 -10.048  0.00  0.00    +0.123 C 
ATOM     24  N   UNL     1      -4.373  -9.169 -10.774  0.00  0.00    -0.313 N 
ATOM     25  C   UNL     1      -5.088  -8.063 -10.561  0.00  0.00    +0.230 C 
ATOM     26  O   UNL     1      -6.125  -7.918 -11.175  0.00  0.00    -0.274 OA
ATOM     27  C   UNL     1      -4.673  -6.994  -9.594  0.00  0.00    +0.200 C 
ATOM     28  H   UNL     1      -4.682  -9.781 -11.461  0.00  0.00    +0.149 HD
ENDBRANCH  18  21
ENDBRANCH   1  15
TORSDOF 5
