REMARK  Name = ZINC11817025
REMARK  5 active torsions:
REMARK  status: ('A' for Active; 'I' for Inactive)
REMARK    1  A    between atoms: C_5  and  C_7
REMARK    2  A    between atoms: C_7  and  N_59
REMARK    3  A    between atoms: C_13  and  C_15
REMARK    4  A    between atoms: C_15  and  C_16
REMARK    5  A    between atoms: N_18  and  C_19
REMARK                            x       y       z     vdW  Elec       q    Type
REMARK                         _______ _______ _______ _____ _____    ______ ____
ROOT
ATOM      1  C   UNL     1      -0.728   3.388   1.249  0.00  0.00    -0.058 C 
ATOM      2  C   UNL     1      -1.921   3.744   0.361  0.00  0.00    +0.085 C 
ATOM      3  N   UNL     1      -1.807   3.065  -0.926  0.00  0.00    -0.318 N 
ATOM      4  C   UNL     1      -1.012   2.008  -1.123  0.00  0.00    +0.200 C 
ATOM      5  O   UNL     1      -1.000   1.485  -2.217  0.00  0.00    -0.278 OA
ATOM      6  C   UNL     1      -0.131   1.443  -0.045  0.00  0.00    +0.028 C 
ATOM      7  H   UNL     1      -2.333   3.394  -1.672  0.00  0.00    +0.149 HD
ATOM      8  N   UNL     1      -0.597   1.917   1.271  0.00  0.00    +0.391 N 
ATOM      9  H   UNL     1      -1.514   1.502   1.472  0.00  0.00    -0.080 HD
ENDROOT
BRANCH   8  10
ATOM     10  C   UNL     1       0.359   1.508   2.325  0.00  0.00    -0.039 C 
BRANCH  10  15
ATOM     11  C   UNL     1      -1.263   1.882   5.713  0.00  0.00    +0.000 A 
ATOM     12  C   UNL     1      -0.883   3.165   6.063  0.00  0.00    +0.003 A 
ATOM     13  C   UNL     1      -0.102   3.913   5.203  0.00  0.00    +0.038 A 
ATOM     14  C   UNL     1       0.305   3.375   3.994  0.00  0.00    +0.125 A 
ATOM     15  C   UNL     1      -0.079   2.092   3.643  0.00  0.00    -0.029 A 
ATOM     16  C   UNL     1      -0.861   1.346   4.505  0.00  0.00    +0.004 A 
ATOM     17  F   UNL     1       1.074   4.103   3.155  0.00  0.00    -0.205 F 
ENDBRANCH  10  15
ENDBRANCH   8  10
BRANCH   6  18
ATOM     18  C   UNL     1      -0.205  -0.085  -0.078  0.00  0.00    +0.089 C 
BRANCH  18  19
ATOM     19  C   UNL     1      -1.618  -0.526   0.206  0.00  0.00    +0.212 C 
ATOM     20  O   UNL     1      -2.496   0.301   0.335  0.00  0.00    -0.276 OA
ATOM     21  N   UNL     1      -1.905  -1.838   0.318  0.00  0.00    -0.312 N 
ATOM     22  H   UNL     1      -1.202  -2.498   0.215  0.00  0.00    +0.149 HD
BRANCH  21  23
ATOM     23  C   UNL     1      -3.278  -2.266   0.595  0.00  0.00    +0.079 C 
ATOM     24  C   UNL     1      -3.529  -2.233   2.104  0.00  0.00    +0.010 C 
ATOM     25  C   UNL     1      -4.963  -2.680   2.393  0.00  0.00    +0.009 C 
ATOM     26  C   UNL     1      -5.168  -4.104   1.873  0.00  0.00    -0.010 C 
ATOM     27  C   UNL     1      -4.188  -5.048   2.574  0.00  0.00    +0.007 C 
ATOM     28  C   UNL     1      -2.754  -4.601   2.284  0.00  0.00    -0.010 C 
ATOM     29  C   UNL     1      -2.549  -3.177   2.804  0.00  0.00    +0.009 C 
ATOM     30  C   UNL     1      -2.504  -4.634   0.775  0.00  0.00    +0.009 C 
ATOM     31  C   UNL     1      -3.483  -3.690   0.075  0.00  0.00    +0.010 C 
ATOM     32  C   UNL     1      -4.917  -4.137   0.364  0.00  0.00    +0.009 C 
ENDBRANCH  21  23
ENDBRANCH  18  19
ENDBRANCH   6  18
TORSDOF 5
