REMARK  Name = ZINC36531402
REMARK  11 active torsions:
REMARK  status: ('A' for Active; 'I' for Inactive)
REMARK    1  A    between atoms: C_1  and  C_2
REMARK    2  A    between atoms: C_2  and  C_3
REMARK    3  A    between atoms: C_2  and  C_4
REMARK    4  A    between atoms: C_2  and  N_5
REMARK    5  A    between atoms: C_6  and  C_8
REMARK    6  A    between atoms: C_8  and  C_10
REMARK    7  A    between atoms: C_8  and  N_18
REMARK    8  A    between atoms: N_18  and  C_19
REMARK    9  A    between atoms: C_20  and  C_22
REMARK   10  A    between atoms: C_26  and  O_29
REMARK   11  A    between atoms: C_27  and  O_28
REMARK                            x       y       z     vdW  Elec       q    Type
REMARK                         _______ _______ _______ _____ _____    ______ ____
ROOT
ATOM      1  C   UNL     1       2.525  -0.609  -2.357  0.00  0.00    +0.195 C 
ENDROOT
BRANCH   1   2
ATOM      2  C   UNL     1       1.110  -0.199  -2.674  0.00  0.00    +0.018 A 
ATOM      3  C   UNL     1       0.554  -0.519  -3.900  0.00  0.00    +0.048 A 
ATOM      4  C   UNL     1      -0.745  -0.143  -4.189  0.00  0.00    +0.020 A 
ATOM      5  C   UNL     1      -1.488   0.554  -3.255  0.00  0.00    +0.003 A 
ATOM      6  C   UNL     1      -0.933   0.875  -2.030  0.00  0.00    +0.020 A 
ATOM      7  C   UNL     1       0.364   0.493  -1.737  0.00  0.00    +0.048 A 
ATOM      8 CL   UNL     1       1.058   0.888  -0.195  0.00  0.00    -0.083 Cl
ATOM      9 CL   UNL     1       1.487  -1.394  -5.074  0.00  0.00    -0.083 Cl
ENDBRANCH   1   2
BRANCH   1  11
ATOM     10  N   UNL     1       1.875  -2.263  -0.636  0.00  0.00    -0.309 N 
ATOM     11  C   UNL     1       2.586  -1.164  -0.957  0.00  0.00    +0.239 C 
ATOM     12  O   UNL     1       3.275  -0.621  -0.120  0.00  0.00    -0.273 OA
ATOM     13  H   UNL     1       1.367  -2.728  -1.319  0.00  0.00    +0.149 HD
BRANCH  10  15
ATOM     14  C   UNL     1       1.366  -1.653   1.677  0.00  0.00    +0.031 C 
ATOM     15  C   UNL     1       1.871  -2.755   0.744  0.00  0.00    +0.026 C 
ATOM     16  C   UNL     1       3.292  -3.154   1.147  0.00  0.00    +0.031 C 
ATOM     17  C   UNL     1       0.951  -3.973   0.848  0.00  0.00    +0.031 C 
ENDBRANCH  10  15
ENDBRANCH   1  11
BRANCH   1  18
ATOM     18  N   UNL     1       3.406   0.557  -2.460  0.00  0.00    -0.285 N 
ATOM     19  C   UNL     1       3.080   1.787  -1.734  0.00  0.00    +0.133 C 
ATOM     20  C   UNL     1       4.516   0.498  -3.222  0.00  0.00    +0.251 C 
ATOM     21  O   UNL     1       4.734  -0.485  -3.903  0.00  0.00    -0.270 OA
BRANCH  20  22
ATOM     22  C   UNL     1       5.466   1.626  -3.229  0.00  0.00    +0.082 A 
ATOM     23  C   UNL     1       5.921   2.170  -2.023  0.00  0.00    +0.017 A 
ATOM     24  C   UNL     1       6.809   3.223  -2.034  0.00  0.00    +0.005 A 
ATOM     25  C   UNL     1       7.256   3.749  -3.235  0.00  0.00    +0.049 A 
ATOM     26  C   UNL     1       6.815   3.222  -4.437  0.00  0.00    +0.159 A 
ATOM     27  C   UNL     1       5.922   2.154  -4.442  0.00  0.00    +0.171 A 
BRANCH  27  28
ATOM     28  O   UNL     1       5.492   1.631  -5.619  0.00  0.00    -0.503 OA
ATOM     29  H   UNL     1       4.691   2.049  -5.965  0.00  0.00    +0.292 HD
ENDBRANCH  27  28
BRANCH  26  30
ATOM     30  O   UNL     1       7.258   3.745  -5.612  0.00  0.00    -0.503 OA
ATOM     31  H   UNL     1       8.061   3.326  -5.950  0.00  0.00    +0.292 HD
ENDBRANCH  26  30
ENDBRANCH  20  22
ENDBRANCH   1  18
TORSDOF 7
