REMARK  Name = ZINC12501610
REMARK  6 active torsions:
REMARK  status: ('A' for Active; 'I' for Inactive)
REMARK    1  A    between atoms: C_5  and  C_7
REMARK    2  A    between atoms: N_9  and  C_10
REMARK    3  A    between atoms: C_10  and  N_12
REMARK    4  A    between atoms: N_12  and  N_13
REMARK    5  A    between atoms: N_13  and  C_14
REMARK    6  A    between atoms: C_14  and  N_16
REMARK                            x       y       z     vdW  Elec       q    Type
REMARK                         _______ _______ _______ _____ _____    ______ ____
ROOT
ATOM      1  C   UNL     1      -1.187   1.624   0.017  0.00  0.00    +0.251 C 
ATOM      2  O   UNL     1      -1.204   2.839   0.023  0.00  0.00    -0.270 OA
ATOM      3  N   UNL     1      -0.011   0.966   0.007  0.00  0.00    -0.263 N 
ATOM      4  H   UNL     1       0.002  -0.004   0.002  0.00  0.00    +0.157 HD
ENDROOT
BRANCH   1   9
ATOM      5  C   UNL     1      -3.629  -1.228   0.012  0.00  0.00    +0.001 A 
ATOM      6  C   UNL     1      -4.836  -0.550   0.022  0.00  0.00    +0.001 A 
ATOM      7  C   UNL     1      -4.860   0.833   0.030  0.00  0.00    +0.021 A 
ATOM      8  C   UNL     1      -3.678   1.547   0.028  0.00  0.00    +0.053 A 
ATOM      9  C   UNL     1      -2.456   0.868   0.018  0.00  0.00    +0.055 A 
ATOM     10  C   UNL     1      -2.441  -0.528   0.005  0.00  0.00    +0.014 A 
ATOM     11 CL   UNL     1      -3.709   3.283   0.037  0.00  0.00    -0.083 Cl
ENDBRANCH   1   9
BRANCH   3  12
ATOM     12  C   UNL     1       1.147   1.655   0.000  0.00  0.00    +0.153 C 
ATOM     13  S   UNL     1       1.124   3.367   0.009  0.00  0.00    -0.017 S 
BRANCH  12  14
ATOM     14  N   UNL     1       2.323   0.998  -0.015  0.00  0.00    -0.246 N 
ATOM     15  H   UNL     1       3.156   1.494  -0.020  0.00  0.00    +0.172 HD
BRANCH  14  16
ATOM     16  N   UNL     1       2.342  -0.403  -0.022  0.00  0.00    -0.247 N 
ATOM     17  H   UNL     1       1.509  -0.900  -0.017  0.00  0.00    +0.172 HD
BRANCH  16  18
ATOM     18  C   UNL     1       3.518  -1.061  -0.037  0.00  0.00    +0.144 C 
ATOM     19  S   UNL     1       3.541  -2.773  -0.047  0.00  0.00    -0.018 S 
BRANCH  18  20
ATOM     20  N   UNL     1       4.676  -0.371  -0.045  0.00  0.00    -0.340 N 
ATOM     21  H   UNL     1       4.663   0.598  -0.039  0.00  0.00    +0.144 HD
ATOM     22  H   UNL     1       5.523  -0.845  -0.055  0.00  0.00    +0.144 HD
ENDBRANCH  18  20
ENDBRANCH  16  18
ENDBRANCH  14  16
ENDBRANCH  12  14
ENDBRANCH   3  12
TORSDOF 6
