REMARK  Name = ZINC22409861
REMARK  9 active torsions:
REMARK  status: ('A' for Active; 'I' for Inactive)
REMARK    1  A    between atoms: C_1  and  C_2
REMARK    2  A    between atoms: C_4  and  C_9
REMARK    3  A    between atoms: C_5  and  C_8
REMARK    4  A    between atoms: C_9  and  C_11
REMARK    5  A    between atoms: C_11  and  N_12
REMARK    6  A    between atoms: C_15  and  C_19
REMARK    7  A    between atoms: C_15  and  C_20
REMARK    8  A    between atoms: C_23  and  O_26
REMARK    9  A    between atoms: O_26  and  C_27
REMARK                            x       y       z     vdW  Elec       q    Type
REMARK                         _______ _______ _______ _____ _____    ______ ____
ROOT
ATOM      1  N   UNL     1      -0.698   1.558   1.213  0.00  0.00    -0.216 N 
ATOM      2  C   UNL     1      -1.684   0.883   1.837  0.00  0.00    +0.251 C 
ATOM      3  O   UNL     1      -2.154  -0.188   1.518  0.00  0.00    -0.272 OA
ATOM      4  C   UNL     1      -2.084   1.743   3.020  0.00  0.00    +0.135 C 
ATOM      5  N   UNL     1      -1.194   2.912   2.915  0.00  0.00    -0.281 N 
ATOM      6  C   UNL     1      -0.420   2.710   1.834  0.00  0.00    +0.310 C 
ATOM      7  O   UNL     1       0.435   3.489   1.460  0.00  0.00    -0.252 OA
ATOM      8  C   UNL     1      -1.841   0.997   4.334  0.00  0.00    +0.047 C 
ATOM      9  H   UNL     1      -1.262   3.723   3.655  0.00  0.00    +0.152 HD
ENDROOT
BRANCH   4  10
ATOM     10  C   UNL     1      -3.527   2.163   2.906  0.00  0.00    -0.015 A 
ATOM     11  C   UNL     1      -4.434   1.348   2.255  0.00  0.00    +0.010 A 
ATOM     12  C   UNL     1      -5.758   1.728   2.154  0.00  0.00    +0.046 A 
ATOM     13  C   UNL     1      -6.175   2.935   2.697  0.00  0.00    +0.120 A 
ATOM     14  C   UNL     1      -5.262   3.754   3.345  0.00  0.00    +0.046 A 
ATOM     15  C   UNL     1      -3.940   3.366   3.448  0.00  0.00    +0.010 A 
BRANCH  13  16
ATOM     16  O   UNL     1      -7.476   3.314   2.593  0.00  0.00    -0.495 OA
ATOM     17  C   UNL     1      -8.360   2.421   1.913  0.00  0.00    +0.277 C 
ENDBRANCH  13  16
ENDBRANCH   4  10
BRANCH   1  18
ATOM     18  C   UNL     1      -0.013   1.086   0.008  0.00  0.00    +0.197 C 
BRANCH  18  19
ATOM     19  C   UNL     1      -0.742   1.585  -1.213  0.00  0.00    +0.183 C 
ATOM     20  O   UNL     1      -1.736   2.269  -1.088  0.00  0.00    -0.290 OA
BRANCH  19  24
ATOM     21  C   UNL     1       2.048  -0.337  -5.019  0.00  0.00    +0.063 C 
ATOM     22  C   UNL     1       0.996   0.388  -4.220  0.00  0.00    +0.014 A 
ATOM     23  C   UNL     1       0.930   0.434  -2.879  0.00  0.00    +0.034 A 
ATOM     24  C   UNL     1      -0.249   1.245  -2.550  0.00  0.00    +0.039 A 
ATOM     25  C   UNL     1      -0.802   1.617  -3.760  0.00  0.00    +0.024 A 
ATOM     26  N   UNL     1      -0.043   1.102  -4.744  0.00  0.00    -0.362 N 
ATOM     27  H   UNL     1      -0.159   1.185  -5.835  0.00  0.00    +0.165 HD
ATOM     28  C   UNL     1      -2.039   2.458  -3.947  0.00  0.00    +0.064 C 
ENDBRANCH  19  24
ENDBRANCH  18  19
ENDBRANCH   1  18
TORSDOF 5
