REMARK  Name = ZINC28467019
REMARK  10 active torsions:
REMARK  status: ('A' for Active; 'I' for Inactive)
REMARK    1  A    between atoms: C_1  and  C_2
REMARK    2  A    between atoms: C_2  and  C_3
REMARK    3  A    between atoms: C_2  and  O_4
REMARK    4  A    between atoms: O_4  and  C_5
REMARK    5  A    between atoms: C_5  and  C_7
REMARK    6  A    between atoms: C_9  and  C_21
REMARK    7  A    between atoms: C_15  and  C_16
REMARK    8  A    between atoms: C_15  and  O_20
REMARK    9  A    between atoms: C_24  and  N_27
REMARK   10  A    between atoms: C_28  and  C_30
REMARK                            x       y       z     vdW  Elec       q    Type
REMARK                         _______ _______ _______ _____ _____    ______ ____
ROOT
ATOM      1  C   UNL     1       5.761   4.394   1.066  0.00  0.00    +0.181 C 
ATOM      2  C   UNL     1       4.248   4.628   1.132  0.00  0.00    +0.123 C 
ATOM      3  N   UNL     1       3.599   3.877   0.057  0.00  0.00    -0.292 N 
ATOM      4  C   UNL     1       4.234   3.617  -1.096  0.00  0.00    +0.302 C 
ATOM      5  O   UNL     1       3.645   2.999  -1.961  0.00  0.00    -0.253 OA
ATOM      6  N   UNL     1       5.494   4.013  -1.331  0.00  0.00    -0.264 N 
ATOM      7  C   UNL     1       6.253   4.772  -0.336  0.00  0.00    +0.246 C 
ATOM      8  H   UNL     1       2.568   3.513   0.184  0.00  0.00    +0.151 HD
ATOM      9  H   UNL     1       5.956   3.756  -2.296  0.00  0.00    +0.153 HD
ENDROOT
BRANCH   2  10
ATOM     10  C   UNL     1       3.724   4.157   2.464  0.00  0.00    -0.026 A 
ATOM     11  C   UNL     1       3.541   2.806   2.694  0.00  0.00    +0.007 A 
ATOM     12  C   UNL     1       3.059   2.371   3.913  0.00  0.00    +0.023 A 
ATOM     13  C   UNL     1       2.759   3.292   4.908  0.00  0.00    +0.033 A 
ATOM     14  C   UNL     1       2.938   4.648   4.672  0.00  0.00    +0.023 A 
ATOM     15  C   UNL     1       3.425   5.077   3.452  0.00  0.00    +0.007 A 
BRANCH  13  16
ATOM     16  N   UNL     1       2.270   2.854   6.145  0.00  0.00    -0.286 N 
ATOM     17  C   UNL     1       2.719   1.699   6.676  0.00  0.00    +0.214 C 
ATOM     18  O   UNL     1       3.517   1.020   6.065  0.00  0.00    -0.276 OA
ATOM     19  C   UNL     1       2.228   1.251   8.028  0.00  0.00    +0.109 C 
ATOM     20  H   UNL     1       1.521   3.453   6.683  0.00  0.00    +0.155 HD
ENDBRANCH  13  16
ENDBRANCH   2  10
BRANCH   7  21
ATOM     21  C   UNL     1       6.042   6.270  -0.565  0.00  0.00    +0.436 C 
ATOM     22  F   UNL     1       6.761   6.994   0.392  0.00  0.00    -0.166 F 
ATOM     23  F   UNL     1       6.490   6.614  -1.844  0.00  0.00    -0.166 F 
ATOM     24  F   UNL     1       4.680   6.572  -0.451  0.00  0.00    -0.166 F 
ENDBRANCH   7  21
BRANCH   1  25
ATOM     25  C   UNL     1       6.061   2.941   1.332  0.00  0.00    +0.317 C 
ATOM     26  O   UNL     1       5.609   2.088   0.606  0.00  0.00    -0.250 OA
BRANCH  25  27
ATOM     27  O   UNL     1       6.829   2.595   2.377  0.00  0.00    -0.462 OA
BRANCH  27  29
ATOM     28  C   UNL     1       8.336   0.768   1.808  0.00  0.00    +0.052 C 
ATOM     29  C   UNL     1       7.075   1.177   2.573  0.00  0.00    +0.170 C 
ATOM     30  C   UNL     1       7.270   0.895   4.064  0.00  0.00    +0.052 C 
ENDBRANCH  27  29
ENDBRANCH  25  27
ENDBRANCH   1  25
BRANCH   7  31
ATOM     31  O   UNL     1       7.642   4.460  -0.455  0.00  0.00    -0.364 OA
ATOM     32  H   UNL     1       8.172   4.663  -1.397  0.00  0.00    +0.212 HD
ENDBRANCH   7  31
TORSDOF 7
