REMARK  Name = ZINC57101254
REMARK  4 active torsions:
REMARK  status: ('A' for Active; 'I' for Inactive)
REMARK    1  A    between atoms: C_4  and  N_7
REMARK    2  A    between atoms: C_8  and  C_13
REMARK    3  A    between atoms: C_13  and  N_14
REMARK    4  A    between atoms: C_20  and  N_23
REMARK                            x       y       z     vdW  Elec       q    Type
REMARK                         _______ _______ _______ _____ _____    ______ ____
ROOT
ATOM      1  N   UNL     1       5.239  -1.906   0.498  0.00  0.00    -0.213 N 
ATOM      2  C   UNL     1       3.875  -1.891   0.514  0.00  0.00    +0.127 A 
ATOM      3  C   UNL     1       3.504  -0.859  -0.287  0.00  0.00    +0.289 A 
ATOM      4  N   UNL     1       4.636  -0.307  -0.743  0.00  0.00    -0.224 N 
ATOM      5  N   UNL     1       5.642  -0.944  -0.257  0.00  0.00    -0.083 NA
ATOM      6  O   UNL     1       2.233  -0.465  -0.571  0.00  0.00    -0.264 OA
ATOM      7  H   UNL     1       4.689   0.455  -1.341  0.00  0.00    +0.194 HD
ENDROOT
BRANCH   1  11
ATOM      8  C   UNL     1       7.681  -4.589   2.551  0.00  0.00    +0.000 A 
ATOM      9  C   UNL     1       7.964  -4.266   1.237  0.00  0.00    +0.002 A 
ATOM     10  C   UNL     1       7.157  -3.377   0.554  0.00  0.00    +0.028 A 
ATOM     11  C   UNL     1       6.061  -2.809   1.188  0.00  0.00    +0.067 A 
ATOM     12  C   UNL     1       5.779  -3.136   2.508  0.00  0.00    +0.028 A 
ATOM     13  C   UNL     1       6.590  -4.025   3.186  0.00  0.00    +0.002 A 
ENDBRANCH   1  11
BRANCH   2  14
ATOM     14  C   UNL     1       2.966  -2.828   1.266  0.00  0.00    +0.166 C 
BRANCH  14  15
ATOM     15  N   UNL     1       2.448  -3.846   0.349  0.00  0.00    -0.323 N 
ATOM     16  C   UNL     1       1.291  -3.671  -0.533  0.00  0.00    +0.110 C 
ATOM     17  C   UNL     1       1.152  -5.005  -1.284  0.00  0.00    +0.056 C 
ATOM     18  C   UNL     1       2.279  -5.861  -0.751  0.00  0.00    -0.025 A 
ATOM     19  C   UNL     1       2.987  -5.123   0.185  0.00  0.00    +0.035 A 
ATOM     20  C   UNL     1       4.087  -5.707   0.816  0.00  0.00    +0.056 A 
ATOM     21  C   UNL     1       4.462  -6.998   0.508  0.00  0.00    +0.128 A 
ATOM     22  C   UNL     1       3.750  -7.724  -0.430  0.00  0.00    +0.033 A 
ATOM     23  C   UNL     1       2.655  -7.155  -1.053  0.00  0.00    +0.008 A 
BRANCH  21  24
ATOM     24  N   UNL     1       5.629  -7.608   1.182  0.00  0.00    +0.056 N 
ATOM     25  O   UNL     1       6.253  -6.975   2.002  0.00  0.00    -0.126 OA
ATOM     26  O   UNL     1       5.959  -8.740   0.913  0.00  0.00    -0.126 OA
ENDBRANCH  21  24
ENDBRANCH  14  15
ENDBRANCH   2  14
TORSDOF 4
