REMARK  Name = ZINC63361845
REMARK  8 active torsions:
REMARK  status: ('A' for Active; 'I' for Inactive)
REMARK    1  A    between atoms: C_1  and  C_2
REMARK    2  A    between atoms: C_5  and  S_8
REMARK    3  A    between atoms: S_8  and  N_11
REMARK    4  A    between atoms: N_11  and  C_12
REMARK    5  A    between atoms: C_12  and  C_14
REMARK    6  A    between atoms: C_12  and  C_24
REMARK    7  A    between atoms: C_14  and  C_15
REMARK    8  A    between atoms: C_29  and  O_37
REMARK                            x       y       z     vdW  Elec       q    Type
REMARK                         _______ _______ _______ _____ _____    ______ ____
ROOT
ATOM      1  C   UNL     1       2.643  -4.735   1.261  0.00  0.00    +0.166 C 
ENDROOT
BRANCH   1   2
ATOM      2  C   UNL     1       3.584  -5.912   1.216  0.00  0.00    +0.235 C 
ATOM      3  O   UNL     1       3.413  -6.793   0.401  0.00  0.00    -0.274 OA
ATOM      4  N   UNL     1       4.615  -5.984   2.080  0.00  0.00    -0.300 N 
ATOM      5  C   UNL     1       4.769  -4.986   3.148  0.00  0.00    +0.110 C 
ATOM      6  C   UNL     1       4.885  -5.714   4.490  0.00  0.00    +0.054 C 
ATOM      7  C   UNL     1       6.025  -6.734   4.418  0.00  0.00    +0.072 C 
ATOM      8  C   UNL     1       6.150  -7.446   5.767  0.00  0.00    +0.035 C 
ATOM      9  C   UNL     1       4.831  -8.149   6.094  0.00  0.00    +0.003 C 
ATOM     10  C   UNL     1       4.516  -9.176   5.004  0.00  0.00    +0.001 C 
ATOM     11  C   UNL     1       4.398  -8.467   3.653  0.00  0.00    +0.008 C 
ATOM     12  C   UNL     1       5.719  -7.766   3.330  0.00  0.00    +0.038 C 
ATOM     13  C   UNL     1       5.604  -7.066   1.978  0.00  0.00    +0.114 C 
BRANCH   7  14
ATOM     14  O   UNL     1       7.248  -6.062   4.109  0.00  0.00    -0.388 OA
ATOM     15  H   UNL     1       7.505  -5.394   4.759  0.00  0.00    +0.210 HD
ENDBRANCH   7  14
ENDBRANCH   1   2
BRANCH   1  16
ATOM     16  N   UNL     1       1.403  -5.075   0.560  0.00  0.00    -0.178 NA
ATOM     17  H   UNL     1       1.345  -4.972  -0.403  0.00  0.00    +0.149 HD
BRANCH  16  18
ATOM     18  S   UNL     1       0.097  -5.634   1.412  0.00  0.00    +0.059 S 
ATOM     19  O   UNL     1       0.575  -6.683   2.244  0.00  0.00    -0.153 OA
ATOM     20  O   UNL     1      -0.950  -5.826   0.471  0.00  0.00    -0.153 OA
BRANCH  18  25
ATOM     21  C   UNL     1      -1.678  -1.190   5.086  0.00  0.00    +0.044 C 
ATOM     22  C   UNL     1      -1.234  -2.300   4.169  0.00  0.00    -0.050 A 
ATOM     23  C   UNL     1      -1.825  -2.448   2.928  0.00  0.00    +0.005 A 
ATOM     24  C   UNL     1      -1.418  -3.466   2.086  0.00  0.00    +0.029 A 
ATOM     25  C   UNL     1      -0.420  -4.336   2.485  0.00  0.00    +0.105 A 
ATOM     26  C   UNL     1       0.171  -4.187   3.725  0.00  0.00    +0.029 A 
ATOM     27  C   UNL     1      -0.233  -3.166   4.566  0.00  0.00    +0.005 A 
ENDBRANCH  18  25
ENDBRANCH  16  18
ENDBRANCH   1  16
BRANCH   1  28
ATOM     28  C   UNL     1       3.300  -3.531   0.582  0.00  0.00    +0.063 C 
BRANCH  28  29
ATOM     29  C   UNL     1       2.405  -2.326   0.723  0.00  0.00    -0.040 C 
ATOM     30  C   UNL     1       2.465  -1.378   1.685  0.00  0.00    -0.001 A 
ATOM     31  C   UNL     1       3.345  -1.192   2.845  0.00  0.00    +0.010 A 
ATOM     32  C   UNL     1       3.155  -0.119   3.647  0.00  0.00    +0.001 A 
ATOM     33  C   UNL     1       2.141   0.816   3.399  0.00  0.00    +0.002 A 
ATOM     34  C   UNL     1       1.293   0.713   2.354  0.00  0.00    +0.026 A 
ATOM     35  C   UNL     1       1.402  -0.376   1.445  0.00  0.00    +0.043 A 
ATOM     36  N   UNL     1       0.712  -0.692   0.376  0.00  0.00    -0.380 N 
ATOM     37  C   UNL     1       1.264  -1.929  -0.187  0.00  0.00    +0.144 C 
ATOM     38  H   UNL     1      -0.035  -0.190   0.016  0.00  0.00    +0.160 HD
ENDBRANCH  28  29
ENDBRANCH   1  28
TORSDOF 7
