REMARK  Name = ZINC63596826
REMARK  6 active torsions:
REMARK  status: ('A' for Active; 'I' for Inactive)
REMARK    1  A    between atoms: C_1  and  O_2
REMARK    2  A    between atoms: O_2  and  C_3
REMARK    3  A    between atoms: C_3  and  C_5
REMARK    4  A    between atoms: C_16  and  C_21
REMARK    5  A    between atoms: N_23  and  C_24
REMARK    6  A    between atoms: C_24  and  C_25
REMARK                            x       y       z     vdW  Elec       q    Type
REMARK                         _______ _______ _______ _____ _____    ______ ____
ROOT
ATOM      1  C   UNL     1       0.680  -2.090   1.091  0.00  0.00    +0.061 A 
ATOM      2  C   UNL     1       0.097  -2.850   0.071  0.00  0.00    +0.016 A 
ATOM      3  C   UNL     1       0.144  -4.216   0.111  0.00  0.00    +0.016 A 
ATOM      4  C   UNL     1       0.778  -4.850   1.179  0.00  0.00    +0.065 A 
ATOM      5  C   UNL     1       1.363  -4.102   2.204  0.00  0.00    +0.062 A 
ATOM      6  C   UNL     1       1.320  -2.715   2.158  0.00  0.00    +0.042 A 
ATOM      7  N   UNL     1       2.002  -4.750   3.280  0.00  0.00    -0.284 N 
ATOM      8  C   UNL     1       2.033  -6.096   3.296  0.00  0.00    +0.142 A 
ATOM      9  N   UNL     1       1.489  -6.831   2.341  0.00  0.00    -0.193 NA
ATOM     10  C   UNL     1       0.859  -6.320   1.277  0.00  0.00    +0.281 A 
ATOM     11  O   UNL     1       0.372  -7.040   0.423  0.00  0.00    -0.265 OA
ATOM     12  C   UNL     1       2.747  -6.720   4.503  0.00  0.00    +0.205 C 
ATOM     13  S   UNL     1       3.253  -5.208   5.412  0.00  0.00    -0.079 S 
ATOM     14  C   UNL     1       2.575  -4.014   4.282  0.00  0.00    +0.128 C 
ATOM     15  S   UNL     1       2.628  -2.309   4.418  0.00  0.00    -0.025 S 
ENDROOT
BRANCH  12  16
ATOM     16  C   UNL     1       1.801  -7.559   5.323  0.00  0.00    +0.234 C 
ATOM     17  O   UNL     1       0.622  -7.276   5.367  0.00  0.00    -0.274 OA
ATOM     18  N   UNL     1       2.264  -8.624   6.007  0.00  0.00    -0.307 N 
ATOM     19  H   UNL     1       3.206  -8.850   5.972  0.00  0.00    +0.149 HD
BRANCH  18  20
ATOM     20  C   UNL     1       1.344  -9.439   6.804  0.00  0.00    +0.178 C 
BRANCH  20  21
ATOM     21  C   UNL     1       2.107 -10.558   7.464  0.00  0.00    +0.122 A 
ATOM     22  C   UNL     1       2.687 -10.507   8.677  0.00  0.00    +0.046 A 
ATOM     23  C   UNL     1       3.288 -11.768   8.897  0.00  0.00    +0.041 A 
ATOM     24  C   UNL     1       3.040 -12.514   7.805  0.00  0.00    +0.195 A 
ATOM     25  O   UNL     1       2.320 -11.778   6.943  0.00  0.00    -0.466 OA
ENDBRANCH  20  21
ENDBRANCH  18  20
ENDBRANCH  12  16
BRANCH   1  26
ATOM     26  C   UNL     1       0.620  -0.613   1.032  0.00  0.00    +0.339 C 
ATOM     27  O   UNL     1       1.129   0.051   1.913  0.00  0.00    -0.245 OA
BRANCH  26  29
ATOM     28  C   UNL     1      -0.017   1.425   0.010  0.00  0.00    +0.280 C 
ATOM     29  O   UNL     1       0.002  -0.004   0.002  0.00  0.00    -0.464 OA
ENDBRANCH  26  29
ENDBRANCH   1  26
TORSDOF 5
