REMARK  Name = ZINC44731242
REMARK  6 active torsions:
REMARK  status: ('A' for Active; 'I' for Inactive)
REMARK    1  A    between atoms: C_1  and  C_2
REMARK    2  A    between atoms: C_4  and  C_8
REMARK    3  A    between atoms: C_5  and  C_7
REMARK    4  A    between atoms: C_8  and  C_10
REMARK    5  A    between atoms: C_8  and  N_11
REMARK    6  A    between atoms: C_12  and  C_14
REMARK                            x       y       z     vdW  Elec       q    Type
REMARK                         _______ _______ _______ _____ _____    ______ ____
ROOT
ATOM      1  N   UNL     1      -2.752  -3.099  -0.586  0.00  0.00    -0.310 N 
ATOM      2  C   UNL     1      -3.473  -4.086  -1.154  0.00  0.00    +0.199 C 
ATOM      3  O   UNL     1      -3.032  -5.216  -1.188  0.00  0.00    -0.278 OA
ATOM      4  H   UNL     1      -3.105  -2.196  -0.558  0.00  0.00    +0.149 HD
ENDROOT
BRANCH   2   5
ATOM      5  C   UNL     1      -4.825  -3.787  -1.746  0.00  0.00    +0.017 C 
ATOM      6  C   UNL     1      -4.681  -2.776  -2.907  0.00  0.00    -0.005 C 
ATOM      7  C   UNL     1      -5.756  -3.276  -3.922  0.00  0.00    -0.026 C 
ATOM      8  C   UNL     1      -7.112  -2.814  -3.387  0.00  0.00    +0.002 C 
ATOM      9  C   UNL     1      -8.247  -3.584  -4.059  0.00  0.00    +0.000 C 
ATOM     10  C   UNL     1      -8.096  -5.072  -3.724  0.00  0.00    -0.002 C 
ATOM     11  C   UNL     1      -6.776  -5.570  -4.313  0.00  0.00    -0.015 C 
ATOM     12  C   UNL     1      -5.588  -4.801  -3.763  0.00  0.00    -0.068 C 
ATOM     13  N   UNL     1      -5.411  -5.020  -2.318  0.00  0.00    +0.389 N 
ATOM     14  H   UNL     1      -4.787  -5.798  -2.164  0.00  0.00    -0.084 HD
ATOM     15  H   UNL     1      -6.304  -5.206  -1.887  0.00  0.00    -0.084 HD
ENDBRANCH   2   5
BRANCH   1  16
ATOM     16  C   UNL     1      -1.437  -3.390  -0.009  0.00  0.00    +0.103 C 
ATOM     17  C   UNL     1      -1.609  -3.892   1.426  0.00  0.00    +0.033 C 
BRANCH  16  21
ATOM     18  C   UNL     1      -0.018   1.503   0.010  0.00  0.00    +0.086 C 
ATOM     19  C   UNL     1       0.002  -0.004   0.002  0.00  0.00    +0.103 A 
ATOM     20  C   UNL     1      -1.078  -0.805   0.003  0.00  0.00    +0.050 A 
ATOM     21  C   UNL     1      -0.601  -2.136  -0.007  0.00  0.00    +0.013 A 
ATOM     22  C   UNL     1       0.742  -2.069  -0.013  0.00  0.00    +0.107 A 
ATOM     23  O   UNL     1       1.102  -0.775  -0.013  0.00  0.00    -0.465 OA
ATOM     24  C   UNL     1       1.684  -3.245  -0.023  0.00  0.00    +0.086 C 
ENDBRANCH  16  21
ENDBRANCH   1  16
TORSDOF 3
