REMARK  Name = ZINC65526346
REMARK  9 active torsions:
REMARK  status: ('A' for Active; 'I' for Inactive)
REMARK    1  A    between atoms: C_1  and  C_2
REMARK    2  A    between atoms: C_5  and  C_8
REMARK    3  A    between atoms: C_11  and  C_13
REMARK    4  A    between atoms: N_18  and  C_29
REMARK    5  A    between atoms: C_22  and  C_24
REMARK    6  A    between atoms: C_22  and  C_27
REMARK    7  A    between atoms: C_24  and  C_25
REMARK    8  A    between atoms: C_25  and  O_26
REMARK    9  A    between atoms: C_27  and  O_28
REMARK                            x       y       z     vdW  Elec       q    Type
REMARK                         _______ _______ _______ _____ _____    ______ ____
ROOT
ATOM      1  C   UNL     1       0.463  -7.564  -1.675  0.00  0.00    +0.122 C 
ATOM      2  C   UNL     1       1.750  -8.075  -2.334  0.00  0.00    -0.000 C 
ATOM      3  C   UNL     1       2.908  -7.106  -2.049  0.00  0.00    -0.074 C 
ATOM      4  N   UNL     1       3.377  -6.596  -3.355  0.00  0.00    +0.378 N 
ATOM      5  C   UNL     1       2.202  -6.662  -4.258  0.00  0.00    -0.074 C 
ATOM      6  C   UNL     1       1.497  -8.005  -3.863  0.00  0.00    -0.002 C 
ATOM      7  C   UNL     1      -0.027  -7.817  -3.990  0.00  0.00    +0.046 C 
ATOM      8  N   UNL     1      -0.456  -7.144  -2.748  0.00  0.00    -0.299 NA
ATOM      9  C   UNL     1       3.837  -5.208  -3.222  0.00  0.00    -0.096 C 
ATOM     10  H   UNL     1      -1.410  -7.379  -2.519  0.00  0.00    +0.123 HD
ATOM     11  H   UNL     1       4.121  -7.179  -3.709  0.00  0.00    -0.082 HD
ENDROOT
BRANCH   1  15
ATOM     12  C   UNL     1       1.227  -4.344  -0.127  0.00  0.00    +0.135 A 
ATOM     13  C   UNL     1       1.201  -5.124   0.986  0.00  0.00    +0.050 A 
ATOM     14  C   UNL     1       0.911  -6.435   0.556  0.00  0.00    +0.047 A 
ATOM     15  C   UNL     1       0.776  -6.390  -0.784  0.00  0.00    +0.123 A 
ATOM     16  O   UNL     1       0.962  -5.124  -1.193  0.00  0.00    -0.458 OA
BRANCH  12  21
ATOM     17  C   UNL     1       2.264   1.315  -0.260  0.00  0.00    +0.044 C 
ATOM     18  C   UNL     1       1.992  -0.167  -0.225  0.00  0.00    -0.050 A 
ATOM     19  C   UNL     1       1.735  -0.848  -1.402  0.00  0.00    +0.004 A 
ATOM     20  C   UNL     1       1.486  -2.204  -1.377  0.00  0.00    +0.012 A 
ATOM     21  C   UNL     1       1.494  -2.890  -0.161  0.00  0.00    +0.017 A 
ATOM     22  C   UNL     1       1.755  -2.198   1.022  0.00  0.00    +0.012 A 
ATOM     23  C   UNL     1       2.008  -0.842   0.983  0.00  0.00    +0.004 A 
ENDBRANCH  12  21
ENDBRANCH   1  15
BRANCH   7  24
ATOM     24  C   UNL     1      -0.718  -9.176  -4.118  0.00  0.00    +0.052 C 
BRANCH  24  25
ATOM     25  C   UNL     1      -0.262  -9.860  -5.409  0.00  0.00    +0.157 C 
BRANCH  25  26
ATOM     26  O   UNL     1      -0.940 -11.110  -5.550  0.00  0.00    -0.395 OA
ATOM     27  H   UNL     1      -0.699 -11.600  -6.348  0.00  0.00    +0.209 HD
ENDBRANCH  25  26
ENDBRANCH  24  25
ENDBRANCH   7  24
BRANCH   7  28
ATOM     28  C   UNL     1      -0.351  -6.943  -5.203  0.00  0.00    +0.178 C 
BRANCH  28  29
ATOM     29  O   UNL     1      -1.768  -6.796  -5.319  0.00  0.00    -0.393 OA
ATOM     30  H   UNL     1      -2.047  -6.252  -6.069  0.00  0.00    +0.209 HD
ENDBRANCH  28  29
ENDBRANCH   7  28
TORSDOF 7
