REMARK  Name = ZINC31783928
REMARK  10 active torsions:
REMARK  status: ('A' for Active; 'I' for Inactive)
REMARK    1  A    between atoms: C_1  and  O_2
REMARK    2  A    between atoms: O_2  and  C_3
REMARK    3  A    between atoms: C_6  and  C_9
REMARK    4  A    between atoms: N_11  and  C_15
REMARK    5  A    between atoms: C_15  and  N_16
REMARK    6  A    between atoms: C_19  and  O_30
REMARK    7  A    between atoms: C_22  and  O_28
REMARK    8  A    between atoms: C_24  and  O_27
REMARK    9  A    between atoms: O_28  and  C_29
REMARK   10  A    between atoms: O_30  and  C_31
REMARK                            x       y       z     vdW  Elec       q    Type
REMARK                         _______ _______ _______ _____ _____    ______ ____
ROOT
ATOM      1  N   UNL     1       5.704  -2.522  -7.240  0.00  0.00    -0.276 NA
ATOM      2  C   UNL     1       6.237  -3.807  -6.778  0.00  0.00    +0.125 C 
ATOM      3  C   UNL     1       7.694  -3.676  -6.421  0.00  0.00    +0.017 A 
ATOM      4  C   UNL     1       8.459  -4.835  -6.321  0.00  0.00    +0.125 A 
ATOM      5  C   UNL     1       9.802  -4.761  -5.992  0.00  0.00    +0.049 A 
ATOM      6  C   UNL     1      10.387  -3.532  -5.760  0.00  0.00    +0.049 A 
ATOM      7  C   UNL     1       9.629  -2.378  -5.860  0.00  0.00    +0.126 A 
ATOM      8  C   UNL     1       8.279  -2.450  -6.193  0.00  0.00    +0.032 A 
ATOM      9  C   UNL     1       7.495  -1.167  -6.299  0.00  0.00    +0.162 C 
ATOM     10  C   UNL     1       5.997  -1.466  -6.258  0.00  0.00    +0.122 C 
ENDROOT
BRANCH   9  11
ATOM     11  O   UNL     1       7.837  -0.311  -5.208  0.00  0.00    -0.386 OA
ATOM     12  H   UNL     1       7.363   0.678  -5.115  0.00  0.00    +0.210 HD
ENDBRANCH   9  11
BRANCH   7  13
ATOM     13  O   UNL     1      10.205  -1.167  -5.632  0.00  0.00    -0.495 OA
ATOM     14  C   UNL     1      11.593  -1.163  -5.294  0.00  0.00    +0.277 C 
ENDBRANCH   7  13
BRANCH   4  15
ATOM     15  O   UNL     1       7.884  -6.046  -6.548  0.00  0.00    -0.495 OA
ATOM     16  C   UNL     1       8.724  -7.196  -6.430  0.00  0.00    +0.277 C 
ENDBRANCH   4  15
BRANCH   1  17
ATOM     17  C   UNL     1       4.261  -2.613  -7.500  0.00  0.00    +0.235 C 
BRANCH  17  20
ATOM     18  C   UNL     1       2.491  -2.492  -4.364  0.00  0.00    +0.247 A 
ATOM     19  N   UNL     1       3.050  -1.877  -5.366  0.00  0.00    -0.128 NA
ATOM     20  N   UNL     1       3.552  -2.852  -6.240  0.00  0.00    -0.209 N 
ATOM     21  C   UNL     1       3.258  -4.053  -5.698  0.00  0.00    +0.268 A 
ATOM     22  S   UNL     1       3.645  -5.585  -6.358  0.00  0.00    +0.011 S 
ATOM     23  O   UNL     1       2.611  -3.826  -4.542  0.00  0.00    -0.412 OA
BRANCH  18  27
ATOM     24  C   UNL     1       0.606  -0.607  -1.055  0.00  0.00    +0.120 A 
ATOM     25  C   UNL     1       1.162   0.164  -2.067  0.00  0.00    +0.046 A 
ATOM     26  C   UNL     1       1.780  -0.444  -3.139  0.00  0.00    +0.017 A 
ATOM     27  C   UNL     1       1.835  -1.836  -3.212  0.00  0.00    +0.039 A 
ATOM     28  C   UNL     1       1.270  -2.608  -2.196  0.00  0.00    +0.017 A 
ATOM     29  C   UNL     1       0.659  -1.993  -1.124  0.00  0.00    +0.046 A 
BRANCH  24  31
ATOM     30  C   UNL     1      -0.017   1.425   0.010  0.00  0.00    +0.277 C 
ATOM     31  O   UNL     1       0.002  -0.004   0.002  0.00  0.00    -0.495 OA
ENDBRANCH  24  31
ENDBRANCH  18  27
ENDBRANCH  17  20
ENDBRANCH   1  17
TORSDOF 7
