REMARK  Name = ZINC24892510
REMARK  15 active torsions:
REMARK  status: ('A' for Active; 'I' for Inactive)
REMARK    1  A    between atoms: C_1  and  C_2
REMARK    2  A    between atoms: C_2  and  C_3
REMARK    3  A    between atoms: C_3  and  N_4
REMARK    4  A    between atoms: C_5  and  N_35
REMARK    5  A    between atoms: C_6  and  C_13
REMARK    6  A    between atoms: C_13  and  C_15
REMARK    7  A    between atoms: C_15  and  N_16
REMARK    8  A    between atoms: N_16  and  C_17
REMARK    9  A    between atoms: N_16  and  C_26
REMARK   10  A    between atoms: C_17  and  C_18
REMARK   11  A    between atoms: C_21  and  O_24
REMARK   12  A    between atoms: O_24  and  C_25
REMARK   13  A    between atoms: C_26  and  C_28
REMARK   14  A    between atoms: C_26  and  C_29
REMARK   15  A    between atoms: C_29  and  C_30
REMARK                            x       y       z     vdW  Elec       q    Type
REMARK                         _______ _______ _______ _____ _____    ______ ____
ROOT
ATOM      1  N   UNL     1      -1.464   0.452   3.454  0.00  0.00    +0.389 N 
ATOM      2  H   UNL     1      -0.627   1.117   3.714  0.00  0.00    -0.080 HD
ENDROOT
BRANCH   1   3
ATOM      3  C   UNL     1      -2.384   1.201   2.587  0.00  0.00    -0.066 C 
ATOM      4  C   UNL     1      -2.392   2.673   3.004  0.00  0.00    -0.013 C 
BRANCH   3   5
ATOM      5  C   UNL     1      -3.795   0.625   2.721  0.00  0.00    +0.027 C 
BRANCH   5   6
ATOM      6  C   UNL     1      -3.816  -0.782   2.181  0.00  0.00    -0.012 A 
ATOM      7  C   UNL     1      -3.728  -1.956   2.852  0.00  0.00    +0.011 A 
ATOM      8  C   UNL     1      -3.772  -3.140   2.141  0.00  0.00    +0.008 A 
ATOM      9  C   UNL     1      -3.901  -3.092   0.792  0.00  0.00    +0.045 A 
ATOM     10  S   UNL     1      -3.973  -1.334   0.490  0.00  0.00    -0.102 S 
ENDBRANCH   5   6
ENDBRANCH   3   5
ENDBRANCH   1   3
BRANCH   1  11
ATOM     11  C   UNL     1      -0.912  -0.715   2.752  0.00  0.00    +0.003 C 
BRANCH  11  12
ATOM     12  C   UNL     1       0.169  -0.266   1.804  0.00  0.00    +0.155 C 
ATOM     13  O   UNL     1       0.488   0.905   1.757  0.00  0.00    -0.294 OA
BRANCH  12  16
ATOM     14  N   UNL     1       2.496  -1.782  -0.620  0.00  0.00    -0.281 N 
ATOM     15  C   UNL     1       1.903  -0.835   0.166  0.00  0.00    +0.116 A 
ATOM     16  C   UNL     1       0.812  -1.206   0.971  0.00  0.00    +0.118 A 
ATOM     17  C   UNL     1       0.358  -2.601   0.912  0.00  0.00    +0.266 A 
ATOM     18  O   UNL     1      -0.585  -2.977   1.583  0.00  0.00    -0.267 OA
ATOM     19  N   UNL     1       1.009  -3.458   0.098  0.00  0.00    -0.274 N 
ATOM     20  H   UNL     1       0.689  -4.509   0.036  0.00  0.00    +0.173 HD
ATOM     21  C   UNL     1       2.050  -3.047  -0.644  0.00  0.00    +0.331 A 
ATOM     22  O   UNL     1       2.609  -3.851  -1.365  0.00  0.00    -0.246 OA
BRANCH  15  23
ATOM     23  N   UNL     1       2.365   0.445   0.174  0.00  0.00    -0.344 N 
ATOM     24  H   UNL     1       1.881   1.200   0.811  0.00  0.00    +0.144 HD
ATOM     25  H   UNL     1       3.222   0.724  -0.456  0.00  0.00    +0.144 HD
ENDBRANCH  15  23
BRANCH  14  26
ATOM     26  C   UNL     1       3.638  -1.407  -1.458  0.00  0.00    +0.128 C 
BRANCH  26  28
ATOM     27  C   UNL     1       4.326  -0.546  -3.700  0.00  0.00    +0.005 C 
ATOM     28  C   UNL     1       3.134  -0.938  -2.825  0.00  0.00    +0.018 C 
ENDBRANCH  26  28
ENDBRANCH  14  26
ENDBRANCH  12  16
ENDBRANCH  11  12
ENDBRANCH   1  11
BRANCH   1  29
ATOM     29  C   UNL     1      -2.127   0.051   4.702  0.00  0.00    -0.042 C 
BRANCH  29  30
ATOM     30  C   UNL     1      -2.231   1.241   5.620  0.00  0.00    -0.064 A 
ATOM     31  C   UNL     1      -1.141   1.626   6.378  0.00  0.00    +0.005 A 
ATOM     32  C   UNL     1      -1.232   2.721   7.216  0.00  0.00    +0.046 A 
ATOM     33  C   UNL     1      -2.423   3.427   7.306  0.00  0.00    +0.120 A 
ATOM     34  C   UNL     1      -3.518   3.035   6.548  0.00  0.00    +0.046 A 
ATOM     35  C   UNL     1      -3.419   1.943   5.708  0.00  0.00    +0.005 A 
BRANCH  33  36
ATOM     36  O   UNL     1      -2.518   4.501   8.133  0.00  0.00    -0.495 OA
ATOM     37  C   UNL     1      -1.351   4.846   8.883  0.00  0.00    +0.277 C 
ENDBRANCH  33  36
ENDBRANCH  29  30
ENDBRANCH   1  29
TORSDOF 12
