REMARK  Name = ZINC63953295
REMARK  8 active torsions:
REMARK  status: ('A' for Active; 'I' for Inactive)
REMARK    1  A    between atoms: C_1  and  C_2
REMARK    2  A    between atoms: C_2  and  C_3
REMARK    3  A    between atoms: C_3  and  C_4
REMARK    4  A    between atoms: C_4  and  C_5
REMARK    5  A    between atoms: C_4  and  N_24
REMARK    6  A    between atoms: N_7  and  C_8
REMARK    7  A    between atoms: C_10  and  C_20
REMARK    8  A    between atoms: C_13  and  N_14
REMARK                            x       y       z     vdW  Elec       q    Type
REMARK                         _______ _______ _______ _____ _____    ______ ____
ROOT
ATOM      1  C   UNL     1       1.308  -2.745   4.909  0.00  0.00    +0.055 A 
ATOM      2  C   UNL     1       2.458  -3.519   4.925  0.00  0.00    +0.037 A 
ATOM      3  C   UNL     1       2.934  -4.026   6.120  0.00  0.00    +0.057 A 
ATOM      4  C   UNL     1       2.266  -3.763   7.302  0.00  0.00    +0.014 A 
ATOM      5  C   UNL     1       1.119  -2.991   7.296  0.00  0.00    +0.025 A 
ATOM      6  C   UNL     1       0.638  -2.474   6.102  0.00  0.00    +0.051 A 
ENDROOT
BRANCH   6   7
ATOM      7  N   UNL     1      -0.519  -1.688   6.094  0.00  0.00    -0.328 N 
ATOM      8  C   UNL     1      -1.843  -2.306   5.936  0.00  0.00    +0.105 C 
ATOM      9  C   UNL     1      -2.740  -1.851   7.091  0.00  0.00    +0.019 C 
ATOM     10  C   UNL     1      -2.763  -0.322   7.142  0.00  0.00    +0.003 C 
ATOM     11  C   UNL     1      -1.348   0.203   7.394  0.00  0.00    +0.019 C 
ATOM     12  C   UNL     1      -0.435  -0.230   6.249  0.00  0.00    +0.105 C 
ENDBRANCH   6   7
BRANCH   1  15
ATOM     13  C   UNL     1       0.952  -2.945   2.563  0.00  0.00    +0.238 C 
ATOM     14  O   UNL     1       1.557  -3.996   2.574  0.00  0.00    -0.273 OA
ATOM     15  N   UNL     1       0.824  -2.230   3.699  0.00  0.00    -0.282 N 
ATOM     16  H   UNL     1       0.396  -1.360   3.678  0.00  0.00    +0.155 HD
BRANCH  13  17
ATOM     17  C   UNL     1       0.343  -2.438   1.281  0.00  0.00    +0.161 C 
BRANCH  17  18
ATOM     18  N   UNL     1       0.620  -3.388   0.201  0.00  0.00    -0.288 N 
ATOM     19  C   UNL     1      -0.195  -3.446  -0.871  0.00  0.00    +0.298 C 
ATOM     20  O   UNL     1      -1.160  -2.709  -0.942  0.00  0.00    -0.253 OA
ATOM     21  N   UNL     1       0.059  -4.319  -1.865  0.00  0.00    -0.313 N 
ATOM     22  H   UNL     1       1.389  -3.976   0.257  0.00  0.00    +0.151 HD
ATOM     23  H   UNL     1       0.829  -4.907  -1.809  0.00  0.00    +0.146 HD
ATOM     24  H   UNL     1      -0.527  -4.361  -2.637  0.00  0.00    +0.146 HD
ENDBRANCH  17  18
BRANCH  17  25
ATOM     25  C   UNL     1       0.949  -1.078   0.932  0.00  0.00    +0.031 C 
BRANCH  25  27
ATOM     26  C   UNL     1       0.850   0.854  -0.649  0.00  0.00    +0.004 C 
ATOM     27  C   UNL     1       0.244  -0.506  -0.300  0.00  0.00    -0.001 C 
ENDBRANCH  25  27
ENDBRANCH  17  25
ENDBRANCH  13  17
ENDBRANCH   1  15
BRANCH   3  28
ATOM     28  C   UNL     1       4.183  -4.869   6.134  0.00  0.00    +0.417 C 
ATOM     29  F   UNL     1       5.300  -4.044   6.309  0.00  0.00    -0.166 F 
ATOM     30  F   UNL     1       4.114  -5.788   7.186  0.00  0.00    -0.166 F 
ATOM     31  F   UNL     1       4.296  -5.556   4.921  0.00  0.00    -0.166 F 
ENDBRANCH   3  28
TORSDOF 7
