REMARK  Name = ZINC04593901
REMARK  5 active torsions:
REMARK  status: ('A' for Active; 'I' for Inactive)
REMARK    1  A    between atoms: C_1  and  C_2
REMARK    2  A    between atoms: C_4  and  C_23
REMARK    3  A    between atoms: C_16  and  N_44
REMARK    4  A    between atoms: C_17  and  C_21
REMARK    5  A    between atoms: C_18  and  N_20
REMARK                            x       y       z     vdW  Elec       q    Type
REMARK                         _______ _______ _______ _____ _____    ______ ____
ROOT
ATOM      1  C   UNL     1      -4.077   2.026  -0.357  0.00  0.00    +0.044 C 
ATOM      2  C   UNL     1      -3.809   3.481  -0.645  0.00  0.00    -0.036 A 
ATOM      3  C   UNL     1      -4.822   4.364  -0.974  0.00  0.00    +0.027 A 
ATOM      4  C   UNL     1      -4.576   5.699  -1.237  0.00  0.00    +0.040 A 
ATOM      5  N   UNL     1      -3.354   6.216  -1.192  0.00  0.00    -0.245 NA
ATOM      6  C   UNL     1      -2.361   5.414  -0.884  0.00  0.00    +0.113 A 
ATOM      7  C   UNL     1      -2.503   4.030  -0.597  0.00  0.00    +0.053 A 
ATOM      8  C   UNL     1      -1.274   3.321  -0.279  0.00  0.00    +0.151 A 
ATOM      9  C   UNL     1      -0.129   4.048  -0.289  0.00  0.00    +0.046 A 
ATOM     10  S   UNL     1      -0.624   5.694  -0.717  0.00  0.00    -0.069 S 
ATOM     11  C   UNL     1       1.240   3.523   0.005  0.00  0.00    +0.042 C 
ATOM     12  C   UNL     1       2.228   3.992  -1.065  0.00  0.00    -0.001 C 
ATOM     13  C   UNL     1       3.626   3.467  -0.727  0.00  0.00    -0.078 C 
ATOM     14  C   UNL     1       3.122   3.483   1.644  0.00  0.00    -0.078 C 
ATOM     15  C   UNL     1       1.709   4.009   1.378  0.00  0.00    -0.001 C 
ATOM     16  C   UNL     1       5.421   3.597   0.893  0.00  0.00    -0.096 C 
ATOM     17  C   UNL     1       1.173   2.014   0.002  0.00  0.00    +0.097 C 
ATOM     18  C   UNL     1      -0.017   1.369   0.010  0.00  0.00    +0.199 C 
ATOM     19  O   UNL     1      -1.213   1.977   0.019  0.00  0.00    -0.440 OA
ATOM     20  C   UNL     1      -5.734   6.597  -1.588  0.00  0.00    +0.065 C 
ATOM     21  N   UNL     1       4.029   3.995   0.594  0.00  0.00    +0.378 N 
ATOM     22  H   UNL     1       3.972   5.020   0.575  0.00  0.00    -0.082 HD
ENDROOT
BRANCH  18  23
ATOM     23  N   UNL     1       0.002  -0.004   0.002  0.00  0.00    -0.328 N 
ATOM     24  H   UNL     1       0.849  -0.478  -0.009  0.00  0.00    +0.145 HD
ATOM     25  H   UNL     1      -0.831  -0.500   0.007  0.00  0.00    +0.145 HD
ENDBRANCH  18  23
BRANCH  17  26
ATOM     26  C   UNL     1       2.387   1.255  -0.011  0.00  0.00    +0.101 C 
ATOM     27  N   UNL     1       3.350   0.653  -0.020  0.00  0.00    -0.191 NA
ENDBRANCH  17  26
TORSDOF 2
