REMARK  Name = ZINC50438645
REMARK  3 active torsions:
REMARK  status: ('A' for Active; 'I' for Inactive)
REMARK    1  A    between atoms: C_5  and  C_7
REMARK    2  A    between atoms: C_9  and  C_12
REMARK    3  A    between atoms: C_18  and  C_20
REMARK                            x       y       z     vdW  Elec       q    Type
REMARK                         _______ _______ _______ _____ _____    ______ ____
ROOT
ATOM      1  C   UNL     1       1.246  -2.166  -0.022  0.00  0.00    +0.203 A 
ATOM      2  N   UNL     1       0.167  -2.970  -0.021  0.00  0.00    -0.191 NA
ATOM      3  C   UNL     1       0.541  -4.217  -0.030  0.00  0.00    +0.232 A 
ATOM      4  O   UNL     1       1.879  -4.260  -0.037  0.00  0.00    -0.337 OA
ATOM      5  N   UNL     1       2.323  -2.911  -0.037  0.00  0.00    -0.056 NA
ENDROOT
BRANCH   1  10
ATOM      6  C   UNL     1      -0.017   1.376   0.010  0.00  0.00    +0.001 A 
ATOM      7  C   UNL     1       1.170   2.087   0.002  0.00  0.00    +0.001 A 
ATOM      8  C   UNL     1       2.382   1.421  -0.013  0.00  0.00    +0.021 A 
ATOM      9  C   UNL     1       2.413   0.039  -0.021  0.00  0.00    +0.052 A 
ATOM     10  C   UNL     1       1.219  -0.682  -0.013  0.00  0.00    +0.041 A 
ATOM     11  C   UNL     1       0.002  -0.004   0.002  0.00  0.00    +0.013 A 
ATOM     12 CL   UNL     1       3.934  -0.797  -0.041  0.00  0.00    -0.083 Cl
ENDBRANCH   1  10
BRANCH   3  13
ATOM     13  C   UNL     1      -0.378  -5.412  -0.032  0.00  0.00    +0.096 C 
ATOM     14  C   UNL     1      -0.106  -6.271   1.205  0.00  0.00    +0.040 C 
ATOM     15  C   UNL     1      -0.817  -7.588   1.085  0.00  0.00    -0.030 C 
ATOM     16  C   UNL     1      -1.279  -8.064  -0.026  0.00  0.00    -0.030 C 
ATOM     17  C   UNL     1      -1.177  -7.363  -1.349  0.00  0.00    +0.042 C 
ATOM     18  C   UNL     1      -0.120  -6.259  -1.284  0.00  0.00    +0.118 C 
BRANCH  18  19
ATOM     19  C   UNL     1      -0.212  -5.391  -2.511  0.00  0.00    +0.360 C 
ATOM     20  O   UNL     1       0.576  -5.545  -3.429  0.00  0.00    -0.246 OA
ATOM     21  O   UNL     1      -1.076  -4.534  -2.588  0.00  0.00    -0.246 OA
ENDBRANCH  18  19
ENDBRANCH   3  13
TORSDOF 3
