REMARK  Name = ZINC19285306
REMARK  7 active torsions:
REMARK  status: ('A' for Active; 'I' for Inactive)
REMARK    1  A    between atoms: C_1  and  C_2
REMARK    2  A    between atoms: C_4  and  C_9
REMARK    3  A    between atoms: C_9  and  C_10
REMARK    4  A    between atoms: C_10  and  C_12
REMARK    5  A    between atoms: C_10  and  N_19
REMARK    6  A    between atoms: C_20  and  C_22
REMARK    7  A    between atoms: C_22  and  N_23
REMARK                            x       y       z     vdW  Elec       q    Type
REMARK                         _______ _______ _______ _____ _____    ______ ____
ROOT
ATOM      1  C   UNL     1       2.490   1.047  -0.016  0.00  0.00    +0.109 C 
ENDROOT
BRANCH   1   2
ATOM      2  C   UNL     1       1.175   1.783   0.000  0.00  0.00    -0.027 A 
ATOM      3  C   UNL     1      -0.013   1.076   0.008  0.00  0.00    +0.007 A 
ATOM      4  C   UNL     1      -1.219   1.750   0.017  0.00  0.00    +0.020 A 
ATOM      5  C   UNL     1      -1.237   3.134   0.030  0.00  0.00    +0.041 A 
ATOM      6  C   UNL     1      -0.048   3.841   0.023  0.00  0.00    +0.020 A 
ATOM      7  C   UNL     1       1.157   3.165   0.009  0.00  0.00    +0.007 A 
ATOM      8 CL   UNL     1      -2.752   3.982   0.048  0.00  0.00    -0.084 Cl
ENDBRANCH   1   2
BRANCH   1   9
ATOM      9  N   UNL     1       3.442   1.727   0.866  0.00  0.00    -0.307 N 
ATOM     10  C   UNL     1       3.452   1.452   2.186  0.00  0.00    +0.235 C 
ATOM     11  O   UNL     1       2.673   0.642   2.643  0.00  0.00    -0.274 OA
ATOM     12  H   UNL     1       4.148   2.462   0.452  0.00  0.00    +0.149 HD
BRANCH  10  13
ATOM     13  C   UNL     1       4.430   2.152   3.094  0.00  0.00    +0.241 C 
BRANCH  13  14
ATOM     14  N   UNL     1       4.242   1.683   4.469  0.00  0.00    -0.235 N 
ATOM     15  C   UNL     1       3.406   2.226   5.415  0.00  0.00    +0.090 A 
ATOM     16  C   UNL     1       2.515   3.294   5.420  0.00  0.00    +0.029 A 
ATOM     17  C   UNL     1       1.804   3.581   6.551  0.00  0.00    +0.002 A 
ATOM     18  C   UNL     1       1.959   2.812   7.697  0.00  0.00    +0.002 A 
ATOM     19  C   UNL     1       2.822   1.756   7.717  0.00  0.00    +0.032 A 
ATOM     20  C   UNL     1       3.563   1.440   6.570  0.00  0.00    +0.113 A 
ATOM     21  N   UNL     1       4.470   0.482   6.293  0.00  0.00    -0.129 NA
ATOM     22  N   UNL     1       4.883   0.596   5.080  0.00  0.00    -0.064 NA
ENDBRANCH  13  14
ENDBRANCH  10  13
ENDBRANCH   1   9
BRANCH   1  23
ATOM     23  C   UNL     1       3.044   1.024  -1.442  0.00  0.00    +0.082 C 
BRANCH  23  27
ATOM     24  C   UNL     1       7.526   0.054   0.258  0.00  0.00    +0.086 C 
ATOM     25  C   UNL     1       6.402  -0.283  -0.688  0.00  0.00    +0.107 A 
ATOM     26  N   UNL     1       5.307   0.451  -0.670  0.00  0.00    -0.239 NA
ATOM     27  C   UNL     1       4.295   0.184  -1.482  0.00  0.00    +0.050 A 
ATOM     28  C   UNL     1       4.396  -0.879  -2.359  0.00  0.00    +0.093 A 
ATOM     29  C   UNL     1       5.572  -1.627  -2.360  0.00  0.00    +0.252 A 
ATOM     30  N   UNL     1       6.541  -1.302  -1.512  0.00  0.00    -0.311 N 
ATOM     31  O   UNL     1       5.720  -2.676  -3.204  0.00  0.00    -0.268 OA
ATOM     32  H   UNL     1       7.468  -1.895  -1.501  0.00  0.00    +0.170 HD
ENDBRANCH  23  27
ENDBRANCH   1  23
TORSDOF 6
