REMARK  Name = ZINC04167422
REMARK  5 active torsions:
REMARK  status: ('A' for Active; 'I' for Inactive)
REMARK    1  A    between atoms: C_3  and  O_31
REMARK    2  A    between atoms: C_6  and  C_7
REMARK    3  A    between atoms: C_10  and  C_21
REMARK    4  A    between atoms: C_16  and  N_20
REMARK    5  A    between atoms: C_17  and  C_18
REMARK                            x       y       z     vdW  Elec       q    Type
REMARK                         _______ _______ _______ _____ _____    ______ ____
ROOT
ATOM      1  C   UNL     1      -1.428  -0.790   0.030  0.00  0.00    +0.101 C 
ATOM      2  C   UNL     1      -1.489  -1.561  -1.263  0.00  0.00    +0.050 A 
ATOM      3  C   UNL     1      -1.699  -1.097  -2.554  0.00  0.00    +0.077 A 
ATOM      4  N   UNL     1      -1.669  -2.126  -3.367  0.00  0.00    -0.175 NA
ATOM      5  N   UNL     1      -1.437  -3.284  -2.608  0.00  0.00    -0.246 N 
ATOM      6  H   UNL     1      -1.366  -4.188  -2.953  0.00  0.00    +0.192 HD
ATOM      7  C   UNL     1      -1.330  -2.917  -1.321  0.00  0.00    +0.222 A 
ATOM      8  O   UNL     1      -1.109  -3.677  -0.219  0.00  0.00    -0.423 OA
ATOM      9  C   UNL     1      -1.318  -3.106   0.985  0.00  0.00    +0.200 C 
ATOM     10  C   UNL     1      -1.476  -1.776   1.171  0.00  0.00    +0.098 C 
ENDROOT
BRANCH   3  11
ATOM     11  C   UNL     1      -1.923   0.340  -2.953  0.00  0.00    +0.016 C 
ATOM     12  C   UNL     1      -3.048   0.935  -2.104  0.00  0.00    +0.016 C 
ATOM     13  C   UNL     1      -3.276   2.393  -2.509  0.00  0.00    -0.010 C 
ATOM     14  C   UNL     1      -1.990   3.191  -2.284  0.00  0.00    +0.007 C 
ATOM     15  C   UNL     1      -0.865   2.596  -3.132  0.00  0.00    -0.010 C 
ATOM     16  C   UNL     1      -0.637   1.138  -2.728  0.00  0.00    +0.016 C 
ATOM     17  C   UNL     1      -1.253   2.660  -4.611  0.00  0.00    +0.007 C 
ATOM     18  C   UNL     1      -2.538   1.862  -4.836  0.00  0.00    -0.010 C 
ATOM     19  C   UNL     1      -3.663   2.457  -3.987  0.00  0.00    +0.007 C 
ATOM     20  C   UNL     1      -2.311   0.404  -4.431  0.00  0.00    +0.016 C 
ENDBRANCH   3  11
BRANCH   1  26
ATOM     21  C   UNL     1      -0.169   1.327   0.476  0.00  0.00    +0.008 A 
ATOM     22  C   UNL     1       1.006   2.051   0.535  0.00  0.00    +0.046 A 
ATOM     23  C   UNL     1       2.211   1.444   0.209  0.00  0.00    +0.117 A 
ATOM     24  C   UNL     1       2.232   0.111  -0.175  0.00  0.00    +0.046 A 
ATOM     25  C   UNL     1       1.054  -0.609  -0.232  0.00  0.00    +0.008 A 
ATOM     26  C   UNL     1      -0.145  -0.002   0.093  0.00  0.00    -0.034 A 
BRANCH  23  27
ATOM     27  O   UNL     1       3.368   2.155   0.266  0.00  0.00    -0.507 OA
ATOM     28  H   UNL     1       3.809   2.119   1.125  0.00  0.00    +0.292 HD
ENDBRANCH  23  27
ENDBRANCH   1  26
BRANCH   9  29
ATOM     29  N   UNL     1      -1.374  -3.923   2.086  0.00  0.00    -0.328 N 
ATOM     30  H   UNL     1      -1.264  -4.882   1.985  0.00  0.00    +0.145 HD
ATOM     31  H   UNL     1      -1.523  -3.542   2.966  0.00  0.00    +0.145 HD
ENDBRANCH   9  29
BRANCH  10  32
ATOM     32  C   UNL     1      -1.698  -1.285   2.498  0.00  0.00    +0.101 C 
ATOM     33  N   UNL     1      -1.873  -0.896   3.550  0.00  0.00    -0.191 NA
ENDBRANCH  10  32
TORSDOF 5
