REMARK  Name = ZINC36802933
REMARK  6 active torsions:
REMARK  status: ('A' for Active; 'I' for Inactive)
REMARK    1  A    between atoms: C_1  and  C_2
REMARK    2  A    between atoms: C_2  and  N_3
REMARK    3  A    between atoms: C_13  and  S_14
REMARK    4  A    between atoms: S_14  and  C_15
REMARK    5  A    between atoms: C_15  and  C_17
REMARK    6  A    between atoms: C_15  and  C_18
REMARK                            x       y       z     vdW  Elec       q    Type
REMARK                         _______ _______ _______ _____ _____    ______ ____
ROOT
ATOM      1  N   UNL     1       0.688  -0.476  -1.203  0.00  0.00    -0.288 N 
ATOM      2  C   UNL     1      -0.020  -0.698  -2.335  0.00  0.00    +0.262 A 
ATOM      3  O   UNL     1      -1.223  -0.512  -2.374  0.00  0.00    -0.267 OA
ATOM      4  C   UNL     1       0.716  -1.172  -3.515  0.00  0.00    +0.066 A 
ATOM      5  C   UNL     1       0.076  -1.428  -4.727  0.00  0.00    +0.030 A 
ATOM      6  C   UNL     1       0.816  -1.870  -5.803  0.00  0.00    +0.019 A 
ATOM      7  C   UNL     1       2.188  -2.061  -5.686  0.00  0.00    +0.017 A 
ATOM      8  C   UNL     1       2.834  -1.815  -4.508  0.00  0.00    +0.029 A 
ATOM      9  C   UNL     1       2.111  -1.366  -3.399  0.00  0.00    +0.079 A 
ATOM     10  N   UNL     1       2.715  -1.111  -2.215  0.00  0.00    -0.223 NA
ATOM     11  C   UNL     1       2.037  -0.684  -1.177  0.00  0.00    +0.173 A 
ATOM     12 BR   UNL     1      -0.042  -2.222  -7.450  0.00  0.00    -0.050 Br
ENDROOT
BRANCH   1  14
ATOM     13  C   UNL     1      -0.019   1.526   0.010  0.00  0.00    +0.027 C 
ATOM     14  C   UNL     1       0.002  -0.004   0.002  0.00  0.00    +0.124 C 
ENDBRANCH   1  14
BRANCH  11  15
ATOM     15  S   UNL     1       2.907  -0.371   0.323  0.00  0.00    -0.075 S 
BRANCH  15  16
ATOM     16  C   UNL     1       4.631  -0.767  -0.079  0.00  0.00    +0.137 C 
ATOM     17  C   UNL     1       5.148   0.214  -1.133  0.00  0.00    +0.029 C 
BRANCH  16  18
ATOM     18  C   UNL     1       5.474  -0.657   1.166  0.00  0.00    +0.233 C 
ATOM     19  O   UNL     1       5.076  -0.013   2.113  0.00  0.00    -0.274 OA
ATOM     20  N   UNL     1       6.670  -1.275   1.226  0.00  0.00    -0.239 N 
ATOM     21  C   UNL     1       7.425  -1.177   2.338  0.00  0.00    +0.303 C 
ATOM     22  O   UNL     1       7.026  -0.531   3.288  0.00  0.00    -0.253 OA
ATOM     23  N   UNL     1       8.621  -1.795   2.399  0.00  0.00    -0.313 N 
ATOM     24  H   UNL     1       6.989  -1.790   0.468  0.00  0.00    +0.159 HD
ATOM     25  H   UNL     1       8.939  -2.310   1.641  0.00  0.00    +0.146 HD
ATOM     26  H   UNL     1       9.164  -1.724   3.200  0.00  0.00    +0.146 HD
ENDBRANCH  16  18
ENDBRANCH  15  16
ENDBRANCH  11  15
TORSDOF 4
