REMARK  Name = ZINC43540625
REMARK  5 active torsions:
REMARK  status: ('A' for Active; 'I' for Inactive)
REMARK    1  A    between atoms: C_1  and  C_2
REMARK    2  A    between atoms: C_2  and  C_3
REMARK    3  A    between atoms: C_3  and  C_5
REMARK    4  A    between atoms: C_3  and  N_9
REMARK    5  A    between atoms: N_6  and  O_7
REMARK                            x       y       z     vdW  Elec       q    Type
REMARK                         _______ _______ _______ _____ _____    ______ ____
ROOT
ATOM      1  C   UNL     1      -1.525  -0.596  -0.229  0.00  0.00    +0.123 C 
ENDROOT
BRANCH   1   2
ATOM      2  N   UNL     1      -2.228  -0.509  -1.516  0.00  0.00    -0.285 NA
ATOM      3  C   UNL     1      -1.684  -1.486  -2.484  0.00  0.00    +0.113 C 
ATOM      4  C   UNL     1      -2.447  -1.449  -3.805  0.00  0.00    +0.175 C 
ATOM      5  O   UNL     1      -3.868  -1.540  -3.599  0.00  0.00    -0.374 OA
ATOM      6  C   UNL     1      -4.317  -0.514  -2.732  0.00  0.00    +0.135 C 
ATOM      7  C   UNL     1      -3.649  -0.774  -1.353  0.00  0.00    +0.086 C 
ATOM      8  C   UNL     1      -4.421   0.143  -0.412  0.00  0.00    +0.021 C 
ATOM      9  C   UNL     1      -5.838   0.265  -1.027  0.00  0.00    +0.004 C 
ATOM     10  C   UNL     1      -5.807  -0.516  -2.376  0.00  0.00    +0.033 C 
ENDBRANCH   1   2
BRANCH   1  11
ATOM     11  C   UNL     1      -1.487  -2.032   0.227  0.00  0.00    +0.149 C 
ATOM     12  N   UNL     1      -0.394  -2.712   0.127  0.00  0.00    -0.075 NA
ATOM     13  N   UNL     1      -2.618  -2.618   0.750  0.00  0.00    -0.343 N 
ATOM     14  H   UNL     1      -3.410  -2.083   0.915  0.00  0.00    +0.144 HD
ATOM     15  H   UNL     1      -2.623  -3.566   0.953  0.00  0.00    +0.144 HD
BRANCH  12  16
ATOM     16  O   UNL     1      -0.358  -4.062   0.555  0.00  0.00    -0.408 OA
ATOM     17  H   UNL     1       0.502  -4.488   0.441  0.00  0.00    +0.328 HD
ENDBRANCH  12  16
ENDBRANCH   1  11
BRANCH   1  19
ATOM     18  C   UNL     1      -0.132   1.417  -0.733  0.00  0.00    +0.006 C 
ATOM     19  C   UNL     1      -0.096  -0.074  -0.392  0.00  0.00    +0.023 C 
ENDBRANCH   1  19
TORSDOF 4
