REMARK  Name = ZINC60240684
REMARK  7 active torsions:
REMARK  status: ('A' for Active; 'I' for Inactive)
REMARK    1  A    between atoms: C_1  and  C_2
REMARK    2  A    between atoms: N_11  and  C_15
REMARK    3  A    between atoms: C_15  and  C_16
REMARK    4  A    between atoms: N_18  and  C_19
REMARK    5  A    between atoms: C_19  and  C_20
REMARK    6  A    between atoms: N_23  and  S_26
REMARK    7  A    between atoms: S_26  and  C_29
REMARK                            x       y       z     vdW  Elec       q    Type
REMARK                         _______ _______ _______ _____ _____    ______ ____
ROOT
ATOM      1  C   UNL     1       1.267   0.606   5.501  0.00  0.00    +0.231 C 
ATOM      2  O   UNL     1       1.635  -0.530   5.291  0.00  0.00    -0.274 OA
ATOM      3  N   UNL     1       1.182   1.065   6.765  0.00  0.00    -0.314 N 
ATOM      4  H   UNL     1       0.888   1.974   6.933  0.00  0.00    +0.149 HD
ENDROOT
BRANCH   1   5
ATOM      5  C   UNL     1       0.904   1.505   4.347  0.00  0.00    +0.213 C 
BRANCH   5  15
ATOM      6  C   UNL     1      -0.019   1.526   0.010  0.00  0.00    +0.010 C 
ATOM      7  C   UNL     1       0.002  -0.004   0.002  0.00  0.00    +0.018 C 
ATOM      8  C   UNL     1      -1.434  -0.533   0.012  0.00  0.00    +0.006 C 
ATOM      9  C   UNL     1      -1.413  -2.063   0.024  0.00  0.00    +0.000 C 
ATOM     10  C   UNL     1      -0.690  -2.554   1.280  0.00  0.00    +0.003 C 
ATOM     11  C   UNL     1       0.749  -2.033   1.276  0.00  0.00    +0.035 C 
ATOM     12  C   UNL     1       0.741  -0.509   1.237  0.00  0.00    +0.115 C 
ATOM     13  C   UNL     1       0.111   0.049   2.493  0.00  0.00    +0.247 C 
ATOM     14  O   UNL     1      -1.023  -0.123   2.884  0.00  0.00    -0.273 OA
ATOM     15  N   UNL     1       1.078   0.778   3.087  0.00  0.00    -0.215 N 
ATOM     16  C   UNL     1       2.217   0.755   2.383  0.00  0.00    +0.310 C 
ATOM     17  O   UNL     1       3.230   1.337   2.717  0.00  0.00    -0.252 OA
ATOM     18  N   UNL     1       2.113   0.013   1.264  0.00  0.00    -0.285 N 
ATOM     19  H   UNL     1       2.808  -0.145   0.606  0.00  0.00    +0.151 HD
ENDBRANCH   5  15
ENDBRANCH   1   5
BRANCH   3  20
ATOM     20  C   UNL     1       1.535   0.191   7.887  0.00  0.00    +0.107 C 
BRANCH  20  21
ATOM     21  C   UNL     1       1.353   0.951   9.202  0.00  0.00    +0.009 C 
ATOM     22  C   UNL     1       2.348   2.111   9.263  0.00  0.00    +0.022 C 
ATOM     23  C   UNL     1       2.140   2.890  10.565  0.00  0.00    +0.110 C 
ATOM     24  N   UNL     1       2.233   1.956  11.695  0.00  0.00    -0.177 NA
ATOM     25  C   UNL     1       1.383   0.757  11.692  0.00  0.00    +0.110 C 
ATOM     26  C   UNL     1       1.600   0.002  10.377  0.00  0.00    +0.022 C 
BRANCH  24  27
ATOM     27  S   UNL     1       3.276   2.248  12.948  0.00  0.00    +0.061 S 
ATOM     28  O   UNL     1       3.554   0.990  13.547  0.00  0.00    -0.153 OA
ATOM     29  O   UNL     1       4.299   3.091  12.436  0.00  0.00    -0.153 OA
BRANCH  27  30
ATOM     30  C   UNL     1       2.397   3.194  14.147  0.00  0.00    +0.105 A 
ATOM     31  C   UNL     1       2.407   4.574  14.081  0.00  0.00    +0.028 A 
ATOM     32  C   UNL     1       1.718   5.316  15.022  0.00  0.00    +0.002 A 
ATOM     33  C   UNL     1       1.019   4.678  16.029  0.00  0.00    +0.000 A 
ATOM     34  C   UNL     1       1.009   3.297  16.095  0.00  0.00    +0.002 A 
ATOM     35  C   UNL     1       1.695   2.555  15.152  0.00  0.00    +0.028 A 
ENDBRANCH  27  30
ENDBRANCH  24  27
ENDBRANCH  20  21
ENDBRANCH   3  20
TORSDOF 6
