REMARK  Name = ZINC36500886
REMARK  12 active torsions:
REMARK  status: ('A' for Active; 'I' for Inactive)
REMARK    1  A    between atoms: C_1  and  C_2
REMARK    2  A    between atoms: C_2  and  C_3
REMARK    3  A    between atoms: C_2  and  C_4
REMARK    4  A    between atoms: C_2  and  N_5
REMARK    5  A    between atoms: C_6  and  C_8
REMARK    6  A    between atoms: C_8  and  C_10
REMARK    7  A    between atoms: C_8  and  N_17
REMARK    8  A    between atoms: N_17  and  C_18
REMARK    9  A    between atoms: C_18  and  C_19
REMARK   10  A    between atoms: C_24  and  C_26
REMARK   11  A    between atoms: C_30  and  O_33
REMARK   12  A    between atoms: C_31  and  O_32
REMARK                            x       y       z     vdW  Elec       q    Type
REMARK                         _______ _______ _______ _____ _____    ______ ____
ROOT
ATOM      1  N   UNL     1       4.442   0.356  -4.710  0.00  0.00    -0.275 N 
ATOM      2  C   UNL     1       3.459  -0.382  -4.158  0.00  0.00    +0.252 C 
ATOM      3  O   UNL     1       2.306  -0.217  -4.507  0.00  0.00    -0.270 OA
ENDROOT
BRANCH   2   4
ATOM      4  C   UNL     1       3.782  -1.390  -3.130  0.00  0.00    +0.082 A 
ATOM      5  C   UNL     1       4.810  -1.153  -2.213  0.00  0.00    +0.017 A 
ATOM      6  C   UNL     1       5.109  -2.096  -1.254  0.00  0.00    +0.005 A 
ATOM      7  C   UNL     1       4.394  -3.282  -1.192  0.00  0.00    +0.049 A 
ATOM      8  C   UNL     1       3.373  -3.531  -2.093  0.00  0.00    +0.159 A 
ATOM      9  C   UNL     1       3.056  -2.585  -3.064  0.00  0.00    +0.171 A 
BRANCH   9  10
ATOM     10  O   UNL     1       2.052  -2.822  -3.946  0.00  0.00    -0.503 OA
ATOM     11  H   UNL     1       2.336  -3.271  -4.754  0.00  0.00    +0.292 HD
ENDBRANCH   9  10
BRANCH   8  12
ATOM     12  O   UNL     1       2.676  -4.697  -2.027  0.00  0.00    -0.503 OA
ATOM     13  H   UNL     1       1.896  -4.656  -1.456  0.00  0.00    +0.292 HD
ENDBRANCH   8  12
ENDBRANCH   2   4
BRANCH   1  14
ATOM     14  C   UNL     1       5.840  -0.056  -4.560  0.00  0.00    +0.193 C 
BRANCH  14  15
ATOM     15  C   UNL     1       6.638   1.078  -3.970  0.00  0.00    -0.018 A 
ATOM     16  C   UNL     1       5.993   2.105  -3.307  0.00  0.00    +0.007 A 
ATOM     17  C   UNL     1       6.724   3.145  -2.765  0.00  0.00    +0.020 A 
ATOM     18  C   UNL     1       8.102   3.159  -2.886  0.00  0.00    +0.041 A 
ATOM     19  C   UNL     1       8.748   2.130  -3.550  0.00  0.00    +0.020 A 
ATOM     20  C   UNL     1       8.016   1.088  -4.086  0.00  0.00    +0.007 A 
ATOM     21 CL   UNL     1       9.021   4.465  -2.207  0.00  0.00    -0.084 Cl
ENDBRANCH  14  15
BRANCH  14  23
ATOM     22  N   UNL     1       7.660  -0.897  -6.009  0.00  0.00    -0.309 N 
ATOM     23  C   UNL     1       6.404  -0.418  -5.910  0.00  0.00    +0.239 C 
ATOM     24  O   UNL     1       5.729  -0.277  -6.907  0.00  0.00    -0.273 OA
ATOM     25  H   UNL     1       8.200  -1.010  -5.212  0.00  0.00    +0.149 HD
BRANCH  22  27
ATOM     26  C   UNL     1       8.214  -0.011  -8.220  0.00  0.00    +0.031 C 
ATOM     27  C   UNL     1       8.209  -1.249  -7.321  0.00  0.00    +0.026 C 
ATOM     28  C   UNL     1       7.345  -2.339  -7.960  0.00  0.00    +0.031 C 
ATOM     29  C   UNL     1       9.639  -1.764  -7.155  0.00  0.00    +0.031 C 
ENDBRANCH  22  27
ENDBRANCH  14  23
ENDBRANCH   1  14
BRANCH   1  30
ATOM     30  C   UNL     1       4.113   1.571  -5.459  0.00  0.00    +0.183 C 
BRANCH  30  31
ATOM     31  C   UNL     1       3.051   1.259  -6.481  0.00  0.00    +0.122 A 
ATOM     32  C   UNL     1       1.724   1.388  -6.302  0.00  0.00    +0.046 A 
ATOM     33  C   UNL     1       1.107   0.988  -7.509  0.00  0.00    +0.041 A 
ATOM     34  C   UNL     1       2.093   0.638  -8.354  0.00  0.00    +0.195 A 
ATOM     35  O   UNL     1       3.269   0.810  -7.729  0.00  0.00    -0.466 OA
ENDBRANCH  30  31
ENDBRANCH   1  30
TORSDOF 9
