REMARK  Name = ZINC07723793
REMARK  8 active torsions:
REMARK  status: ('A' for Active; 'I' for Inactive)
REMARK    1  A    between atoms: C_1  and  C_2
REMARK    2  A    between atoms: C_2  and  C_3
REMARK    3  A    between atoms: C_3  and  C_4
REMARK    4  A    between atoms: C_4  and  N_5
REMARK    5  A    between atoms: C_6  and  N_31
REMARK    6  A    between atoms: C_7  and  N_14
REMARK    7  A    between atoms: N_14  and  C_15
REMARK    8  A    between atoms: C_20  and  C_22
REMARK                            x       y       z     vdW  Elec       q    Type
REMARK                         _______ _______ _______ _____ _____    ______ ____
ROOT
ATOM      1  N   UNL     1       3.529   2.506   0.167  0.00  0.00    -0.255 N 
ATOM      2  C   UNL     1       2.535   1.602   0.058  0.00  0.00    +0.287 C 
ATOM      3  O   UNL     1       1.387   1.976  -0.094  0.00  0.00    -0.266 OA
ENDROOT
BRANCH   1   6
ATOM      4  N   UNL     1       6.847   1.671   1.506  0.00  0.00    -0.280 N 
ATOM      5  C   UNL     1       5.543   2.106   1.455  0.00  0.00    +0.127 A 
ATOM      6  C   UNL     1       4.869   2.073   0.251  0.00  0.00    +0.140 A 
ATOM      7  C   UNL     1       5.544   1.607  -0.893  0.00  0.00    +0.277 A 
ATOM      8  O   UNL     1       4.974   1.573  -1.970  0.00  0.00    -0.266 OA
ATOM      9  N   UNL     1       6.824   1.199  -0.789  0.00  0.00    -0.273 N 
ATOM     10  H   UNL     1       7.304   0.867  -1.601  0.00  0.00    +0.173 HD
ATOM     11  C   UNL     1       7.463   1.232   0.394  0.00  0.00    +0.331 A 
ATOM     12  O   UNL     1       8.618   0.858   0.459  0.00  0.00    -0.246 OA
BRANCH   5  13
ATOM     13  N   UNL     1       4.916   2.561   2.591  0.00  0.00    -0.343 N 
ATOM     14  H   UNL     1       3.967   2.761   2.574  0.00  0.00    +0.144 HD
ATOM     15  H   UNL     1       5.423   2.682   3.409  0.00  0.00    +0.144 HD
ENDBRANCH   5  13
BRANCH   4  16
ATOM     16  C   UNL     1       7.573   1.695   2.779  0.00  0.00    +0.128 C 
BRANCH  16  17
ATOM     17  C   UNL     1       8.275   3.044   2.941  0.00  0.00    +0.021 C 
BRANCH  17  19
ATOM     18  C   UNL     1       9.736   4.418   4.432  0.00  0.00    +0.004 C 
ATOM     19  C   UNL     1       9.033   3.068   4.270  0.00  0.00    -0.002 C 
ENDBRANCH  17  19
ENDBRANCH  16  17
ENDBRANCH   4  16
ENDBRANCH   1   6
BRANCH   2  20
ATOM     20  C   UNL     1       2.838   0.165   0.121  0.00  0.00    +0.191 A 
ATOM     21  C   UNL     1       1.923  -0.832   0.004  0.00  0.00    +0.063 A 
ATOM     22  C   UNL     1       2.670  -2.083   0.133  0.00  0.00    +0.021 A 
ATOM     23  C   UNL     1       2.317  -3.435   0.107  0.00  0.00    +0.011 A 
ATOM     24  C   UNL     1       3.281  -4.389   0.262  0.00  0.00    +0.001 A 
ATOM     25  C   UNL     1       4.609  -4.025   0.444  0.00  0.00    +0.004 A 
ATOM     26  C   UNL     1       4.978  -2.698   0.466  0.00  0.00    +0.047 A 
ATOM     27  C   UNL     1       4.014  -1.708   0.315  0.00  0.00    +0.136 A 
ATOM     28  O   UNL     1       4.066  -0.362   0.304  0.00  0.00    -0.450 OA
ENDBRANCH   2  20
BRANCH   1  29
ATOM     29  C   UNL     1       3.218   3.937   0.199  0.00  0.00    +0.082 C 
ATOM     30  C   UNL     1       2.277   4.247   1.382  0.00  0.00    +0.023 C 
ATOM     31  C   UNL     1       1.323   5.336   0.832  0.00  0.00    +0.002 C 
ATOM     32  C   UNL     1       1.092   4.882  -0.631  0.00  0.00    +0.002 C 
ATOM     33  C   UNL     1       2.465   4.341  -1.080  0.00  0.00    +0.023 C 
ENDBRANCH   1  29
TORSDOF 7
