REMARK  Name = ZINC31167277
REMARK  11 active torsions:
REMARK  status: ('A' for Active; 'I' for Inactive)
REMARK    1  A    between atoms: C_4  and  C_7
REMARK    2  A    between atoms: C_13  and  O_38
REMARK    3  A    between atoms: C_14  and  C_29
REMARK    4  A    between atoms: C_15  and  O_28
REMARK    5  A    between atoms: C_16  and  C_19
REMARK    6  A    between atoms: C_19  and  C_20
REMARK    7  A    between atoms: C_24  and  O_27
REMARK    8  A    between atoms: C_25  and  O_26
REMARK    9  A    between atoms: C_29  and  C_30
REMARK   10  A    between atoms: C_34  and  O_37
REMARK   11  A    between atoms: C_35  and  O_36
REMARK                            x       y       z     vdW  Elec       q    Type
REMARK                         _______ _______ _______ _____ _____    ______ ____
ROOT
ATOM      1  C   UNL     1       2.236   0.999   0.466  0.00  0.00    +0.211 C 
ATOM      2  C   UNL     1       2.597   1.411  -0.969  0.00  0.00    +0.129 C 
ATOM      3  C   UNL     1       3.983   0.863  -1.257  0.00  0.00    +0.174 C 
ATOM      4  O   UNL     1       4.266   0.379  -2.334  0.00  0.00    -0.292 OA
ATOM      5  C   UNL     1       4.963   0.949  -0.169  0.00  0.00    +0.101 A 
ATOM      6  C   UNL     1       6.324   0.706  -0.410  0.00  0.00    +0.138 A 
ATOM      7  C   UNL     1       7.225   0.778   0.638  0.00  0.00    +0.041 A 
ATOM      8  C   UNL     1       6.782   1.093   1.916  0.00  0.00    +0.131 A 
ATOM      9  C   UNL     1       5.437   1.341   2.159  0.00  0.00    +0.041 A 
ATOM     10  C   UNL     1       4.519   1.275   1.126  0.00  0.00    +0.142 A 
ATOM     11  O   UNL     1       3.210   1.524   1.367  0.00  0.00    -0.483 OA
ENDROOT
BRANCH   1  15
ATOM     12  C   UNL     1      -1.616   2.552   1.468  0.00  0.00    +0.000 A 
ATOM     13  C   UNL     1      -1.482   1.230   1.084  0.00  0.00    +0.000 A 
ATOM     14  C   UNL     1      -0.234   0.727   0.765  0.00  0.00    +0.007 A 
ATOM     15  C   UNL     1       0.877   1.547   0.820  0.00  0.00    -0.007 A 
ATOM     16  C   UNL     1       0.742   2.869   1.200  0.00  0.00    +0.007 A 
ATOM     17  C   UNL     1      -0.504   3.372   1.523  0.00  0.00    +0.000 A 
ENDBRANCH   1  15
BRANCH   8  18
ATOM     18  O   UNL     1       7.672   1.159   2.938  0.00  0.00    -0.506 OA
ATOM     19  H   UNL     1       7.327   1.407   3.953  0.00  0.00    +0.292 HD
ENDBRANCH   8  18
BRANCH   6  20
ATOM     20  O   UNL     1       6.753   0.403  -1.660  0.00  0.00    -0.506 OA
ATOM     21  H   UNL     1       7.821   0.213  -1.844  0.00  0.00    +0.292 HD
ENDBRANCH   6  20
BRANCH   9  22
ATOM     22  C   UNL     1       4.976   1.683   3.553  0.00  0.00    +0.081 C 
BRANCH  22  23
ATOM     23  C   UNL     1       5.165   3.158   3.797  0.00  0.00    +0.002 A 
ATOM     24  C   UNL     1       6.327   3.618   4.388  0.00  0.00    +0.008 A 
ATOM     25  C   UNL     1       6.503   4.970   4.613  0.00  0.00    +0.004 A 
ATOM     26  C   UNL     1       5.518   5.869   4.248  0.00  0.00    +0.049 A 
ATOM     27  C   UNL     1       4.351   5.415   3.655  0.00  0.00    +0.159 A 
ATOM     28  C   UNL     1       4.176   4.054   3.424  0.00  0.00    +0.162 A 
BRANCH  28  29
ATOM     29  O   UNL     1       3.034   3.603   2.838  0.00  0.00    -0.503 OA
ATOM     30  H   UNL     1       2.250   4.316   2.543  0.00  0.00    +0.292 HD
ENDBRANCH  28  29
BRANCH  27  31
ATOM     31  O   UNL     1       3.381   6.298   3.295  0.00  0.00    -0.503 OA
ATOM     32  H   UNL     1       2.455   5.936   2.825  0.00  0.00    +0.292 HD
ENDBRANCH  27  31
ENDBRANCH  22  23
ENDBRANCH   9  22
BRANCH   7  33
ATOM     33  C   UNL     1       8.688   0.515   0.391  0.00  0.00    +0.081 C 
BRANCH  33  34
ATOM     34  C   UNL     1       9.350   1.778  -0.099  0.00  0.00    +0.002 A 
ATOM     35  C   UNL     1       9.439   2.029  -1.456  0.00  0.00    +0.008 A 
ATOM     36  C   UNL     1      10.041   3.188  -1.909  0.00  0.00    +0.004 A 
ATOM     37  C   UNL     1      10.565   4.096  -1.008  0.00  0.00    +0.049 A 
ATOM     38  C   UNL     1      10.483   3.848   0.352  0.00  0.00    +0.159 A 
ATOM     39  C   UNL     1       9.873   2.684   0.809  0.00  0.00    +0.162 A 
BRANCH  39  40
ATOM     40  O   UNL     1       9.790   2.436   2.143  0.00  0.00    -0.503 OA
ATOM     41  H   UNL     1      10.206   3.156   2.863  0.00  0.00    +0.292 HD
ENDBRANCH  39  40
BRANCH  38  42
ATOM     42  O   UNL     1      10.998   4.741   1.240  0.00  0.00    -0.503 OA
ATOM     43  H   UNL     1      10.932   4.543   2.320  0.00  0.00    +0.292 HD
ENDBRANCH  38  42
ENDBRANCH  33  34
ENDBRANCH   7  33
TORSDOF 11
