REMARK  Name = ZINC44923195
REMARK  6 active torsions:
REMARK  status: ('A' for Active; 'I' for Inactive)
REMARK    1  A    between atoms: C_1  and  C_2
REMARK    2  A    between atoms: C_2  and  C_4
REMARK    3  A    between atoms: C_2  and  N_9
REMARK    4  A    between atoms: N_9  and  C_10
REMARK    5  A    between atoms: C_10  and  C_12
REMARK    6  A    between atoms: C_10  and  C_13
REMARK                            x       y       z     vdW  Elec       q    Type
REMARK                         _______ _______ _______ _____ _____    ______ ____
ROOT
ATOM      1  C   UNL     1      -2.050  -0.126  -1.234  0.00  0.00    -0.068 C 
ATOM      2  C   UNL     1      -1.371  -0.820  -2.417  0.00  0.00    -0.013 C 
ENDROOT
BRANCH   1   3
ATOM      3  C   UNL     1      -3.520  -0.547  -1.171  0.00  0.00    -0.041 C 
ATOM      4  C   UNL     1      -4.198   0.147   0.012  0.00  0.00    +0.009 C 
ATOM      5  C   UNL     1      -5.668  -0.273   0.075  0.00  0.00    -0.010 C 
ATOM      6  C   UNL     1      -6.370   0.129  -1.224  0.00  0.00    +0.007 C 
ATOM      7  C   UNL     1      -5.691  -0.565  -2.406  0.00  0.00    -0.010 C 
ATOM      8  C   UNL     1      -4.222  -0.144  -2.470  0.00  0.00    +0.009 C 
ATOM      9  C   UNL     1      -5.781  -2.082  -2.227  0.00  0.00    +0.007 C 
ATOM     10  C   UNL     1      -5.079  -2.484  -0.929  0.00  0.00    -0.010 C 
ATOM     11  C   UNL     1      -5.757  -1.790   0.254  0.00  0.00    +0.007 C 
ATOM     12  C   UNL     1      -3.609  -2.063  -0.992  0.00  0.00    +0.009 C 
ENDBRANCH   1   3
BRANCH   1  13
ATOM     13  N   UNL     1      -1.376  -0.512   0.012  0.00  0.00    +0.388 N 
ATOM     14  H   UNL     1      -1.363  -1.518   0.090  0.00  0.00    -0.084 HD
ATOM     15  H   UNL     1      -1.873  -0.121   0.799  0.00  0.00    -0.084 HD
BRANCH  13  17
ATOM     16  C   UNL     1      -0.019   1.526   0.010  0.00  0.00    -0.006 C 
ATOM     17  C   UNL     1       0.002  -0.004   0.002  0.00  0.00    -0.001 C 
BRANCH  17  18
ATOM     18  C   UNL     1       0.731  -0.503   1.223  0.00  0.00    +0.163 A 
ATOM     19  N   UNL     1       0.269  -0.525   2.461  0.00  0.00    -0.113 NA
ATOM     20  N   UNL     1       1.190  -1.023   3.213  0.00  0.00    -0.021 NA
ATOM     21  N   UNL     1       2.212  -1.314   2.484  0.00  0.00    -0.021 NA
ATOM     22  N   UNL     1       1.951  -1.008   1.259  0.00  0.00    -0.113 NA
ENDBRANCH  17  18
ENDBRANCH  13  17
ENDBRANCH   1  13
TORSDOF 4
