REMARK  Name = ZINC15226872
REMARK  2 active torsions:
REMARK  status: ('A' for Active; 'I' for Inactive)
REMARK    1  A    between atoms: C_6  and  C_7
REMARK    2  A    between atoms: C_10  and  C_12
REMARK                            x       y       z     vdW  Elec       q    Type
REMARK                         _______ _______ _______ _____ _____    ______ ____
ROOT
ATOM      1  C   UNL     1      -1.271  -0.766   0.011  0.00  0.00    +0.090 A 
ATOM      2  C   UNL     1      -1.393  -2.118   0.010  0.00  0.00    +0.124 A 
ATOM      3  N   UNL     1      -2.736  -2.393   0.020  0.00  0.00    -0.264 N 
ATOM      4  C   UNL     1      -3.391  -1.200   0.026  0.00  0.00    +0.222 A 
ATOM      5  N   UNL     1      -2.512  -0.237   0.026  0.00  0.00    -0.224 NA
ATOM      6  C   UNL     1      -3.320  -3.653   0.022  0.00  0.00    +0.241 C 
ATOM      7  N   UNL     1      -4.608  -3.732   0.026  0.00  0.00    -0.135 NA
ATOM      8  N   UNL     1      -5.365  -4.878   0.148  0.00  0.00    -0.265 N 
ATOM      9  C   UNL     1      -5.174  -6.010  -0.449  0.00  0.00    +0.094 C 
ATOM     10  C   UNL     1      -4.020  -6.197  -1.409  0.00  0.00    +0.147 C 
ATOM     11  C   UNL     1      -2.749  -5.924  -0.643  0.00  0.00    +0.147 A 
ATOM     12  N   UNL     1      -2.492  -4.759   0.016  0.00  0.00    -0.253 N 
ATOM     13  C   UNL     1      -1.284  -4.932   0.612  0.00  0.00    +0.232 A 
ATOM     14  N   UNL     1      -0.857  -6.120   0.268  0.00  0.00    -0.137 NA
ATOM     15  N   UNL     1      -1.723  -6.701  -0.475  0.00  0.00    -0.134 NA
ATOM     16  N   UNL     1      -6.032  -7.058  -0.208  0.00  0.00    -0.347 N 
ATOM     17  H   UNL     1      -6.774  -6.945   0.406  0.00  0.00    +0.143 HD
ATOM     18  H   UNL     1      -5.894  -7.909  -0.651  0.00  0.00    +0.143 HD
ATOM     19  H   UNL     1      -6.126  -4.830   0.747  0.00  0.00    +0.190 HD
ENDROOT
BRANCH   1  25
ATOM     20  C   UNL     1      -0.017   1.389   0.010  0.00  0.00    +0.011 A 
ATOM     21  C   UNL     1       1.170   2.093   0.002  0.00  0.00    +0.020 A 
ATOM     22  C   UNL     1       2.378   1.417  -0.013  0.00  0.00    +0.041 A 
ATOM     23  C   UNL     1       2.402   0.033  -0.021  0.00  0.00    +0.020 A 
ATOM     24  C   UNL     1       1.221  -0.680  -0.014  0.00  0.00    +0.011 A 
ATOM     25  C   UNL     1       0.002  -0.004   0.002  0.00  0.00    +0.002 A 
ATOM     26 CL   UNL     1       3.868   2.309  -0.022  0.00  0.00    -0.084 Cl
ENDBRANCH   1  25
BRANCH   4  27
ATOM     27  C   UNL     1      -4.887  -1.021   0.036  0.00  0.00    +0.451 C 
ATOM     28  F   UNL     1      -5.201   0.300  -0.301  0.00  0.00    -0.163 F 
ATOM     29  F   UNL     1      -5.467  -1.890  -0.893  0.00  0.00    -0.163 F 
ATOM     30  F   UNL     1      -5.382  -1.306   1.314  0.00  0.00    -0.163 F 
ENDBRANCH   4  27
TORSDOF 2
