REMARK  Name = ZINC14829202
REMARK  9 active torsions:
REMARK  status: ('A' for Active; 'I' for Inactive)
REMARK    1  A    between atoms: C_1  and  C_2
REMARK    2  A    between atoms: C_2  and  C_4
REMARK    3  A    between atoms: C_10  and  O_34
REMARK    4  A    between atoms: C_16  and  O_33
REMARK    5  A    between atoms: C_21  and  O_31
REMARK    6  A    between atoms: C_22  and  O_29
REMARK    7  A    between atoms: C_25  and  O_28
REMARK    8  A    between atoms: O_29  and  C_30
REMARK    9  A    between atoms: O_31  and  C_32
REMARK                            x       y       z     vdW  Elec       q    Type
REMARK                         _______ _______ _______ _____ _____    ______ ____
ROOT
ATOM      1  C   UNL     1      -0.000  -0.750  -1.307  0.00  0.00    +0.203 C 
ATOM      2  C   UNL     1       1.244  -0.378  -2.152  0.00  0.00    +0.091 C 
ATOM      3  C   UNL     1       0.680  -0.368  -3.547  0.00  0.00    +0.041 A 
ATOM      4  C   UNL     1      -0.717  -0.342  -3.428  0.00  0.00    +0.132 A 
ATOM      5  C   UNL     1      -1.530  -0.333  -4.567  0.00  0.00    +0.092 A 
ATOM      6  C   UNL     1      -0.905  -0.361  -5.805  0.00  0.00    +0.134 A 
ATOM      7  C   UNL     1       0.492  -0.401  -5.918  0.00  0.00    +0.104 A 
ATOM      8  C   UNL     1       1.315  -0.387  -4.770  0.00  0.00    +0.142 A 
ATOM      9  O   UNL     1       2.658  -0.380  -4.873  0.00  0.00    -0.478 OA
ATOM     10  C   UNL     1       3.280  -0.876  -6.059  0.00  0.00    +0.285 C 
ATOM     11  C   UNL     1       4.755  -0.438  -6.044  0.00  0.00    +0.350 C 
ATOM     12  O   UNL     1       4.796   0.976  -5.848  0.00  0.00    -0.459 OA
ATOM     13  C   UNL     1       3.996   1.757  -6.621  0.00  0.00    +0.134 A 
ATOM     14  C   UNL     1       4.261   3.121  -6.686  0.00  0.00    +0.095 A 
ATOM     15  C   UNL     1       3.469   3.952  -7.412  0.00  0.00    +0.165 A 
ATOM     16  C   UNL     1       2.397   3.427  -8.129  0.00  0.00    +0.162 A 
ATOM     17  C   UNL     1       2.136   2.070  -8.079  0.00  0.00    +0.060 A 
ATOM     18  C   UNL     1       2.934   1.229  -7.320  0.00  0.00    +0.041 A 
ATOM     19  C   UNL     1       2.628  -0.243  -7.293  0.00  0.00    +0.200 C 
ATOM     20  C   UNL     1       1.136  -0.471  -7.233  0.00  0.00    +0.210 C 
ATOM     21  O   UNL     1       0.495  -0.706  -8.237  0.00  0.00    -0.288 OA
ATOM     22  O   UNL     1      -1.098  -0.322  -2.135  0.00  0.00    -0.484 OA
ENDROOT
BRANCH   1  24
ATOM     23  C   UNL     1      -0.018   1.503   0.010  0.00  0.00    +0.042 C 
ATOM     24  C   UNL     1       0.002  -0.004   0.002  0.00  0.00    -0.040 C 
ATOM     25  C   UNL     1       0.022  -0.665   1.133  0.00  0.00    +0.011 C 
ENDBRANCH   1  24
BRANCH  19  26
ATOM     26  O   UNL     1       3.153  -0.856  -8.472  0.00  0.00    -0.373 OA
ATOM     27  H   UNL     1       2.776  -0.513  -9.294  0.00  0.00    +0.211 HD
ENDBRANCH  19  26
BRANCH  16  28
ATOM     28  O   UNL     1       1.609   4.247  -8.876  0.00  0.00    -0.491 OA
ATOM     29  C   UNL     1       0.528   3.638  -9.584  0.00  0.00    +0.277 C 
ENDBRANCH  16  28
BRANCH  15  30
ATOM     30  O   UNL     1       3.733   5.285  -7.459  0.00  0.00    -0.491 OA
ATOM     31  C   UNL     1       4.848   5.753  -6.698  0.00  0.00    +0.277 C 
ENDBRANCH  15  30
BRANCH  11  32
ATOM     32  O   UNL     1       5.370  -0.770  -7.291  0.00  0.00    -0.355 OA
ATOM     33  H   UNL     1       6.302  -0.520  -7.348  0.00  0.00    +0.214 HD
ENDBRANCH  11  32
BRANCH   6  34
ATOM     34  O   UNL     1      -1.662  -0.349  -6.931  0.00  0.00    -0.506 OA
ATOM     35  H   UNL     1      -1.906  -1.229  -7.250  0.00  0.00    +0.292 HD
ENDBRANCH   6  34
TORSDOF 6
