REMARK  Name = ZINC32118801
REMARK  6 active torsions:
REMARK  status: ('A' for Active; 'I' for Inactive)
REMARK    1  A    between atoms: C_3  and  C_6
REMARK    2  A    between atoms: N_8  and  N_9
REMARK    3  A    between atoms: N_9  and  C_10
REMARK    4  A    between atoms: C_10  and  N_12
REMARK    5  A    between atoms: C_13  and  C_15
REMARK    6  A    between atoms: C_18  and  N_22
REMARK                            x       y       z     vdW  Elec       q    Type
REMARK                         _______ _______ _______ _____ _____    ______ ____
ROOT
ATOM      1  N   UNL     1       6.710  -1.096  -0.068  0.00  0.00    -0.263 N 
ATOM      2  C   UNL     1       7.688  -2.023  -0.082  0.00  0.00    +0.251 C 
ATOM      3  O   UNL     1       8.853  -1.678  -0.092  0.00  0.00    -0.270 OA
ATOM      4  H   UNL     1       5.780  -1.372  -0.060  0.00  0.00    +0.157 HD
ENDROOT
BRANCH   2   5
ATOM      5  C   UNL     1       7.344  -3.460  -0.086  0.00  0.00    +0.055 A 
ATOM      6  C   UNL     1       6.006  -3.861  -0.081  0.00  0.00    +0.017 A 
ATOM      7  C   UNL     1       5.692  -5.204  -0.085  0.00  0.00    +0.033 A 
ATOM      8  C   UNL     1       6.699  -6.154  -0.095  0.00  0.00    +0.128 A 
ATOM      9  C   UNL     1       8.026  -5.765  -0.099  0.00  0.00    +0.053 A 
ATOM     10  C   UNL     1       8.355  -4.424  -0.101  0.00  0.00    +0.055 A 
ATOM     11 CL   UNL     1      10.022  -3.937  -0.115  0.00  0.00    -0.083 Cl
BRANCH   8  12
ATOM     12  N   UNL     1       6.353  -7.593  -0.099  0.00  0.00    +0.056 N 
ATOM     13  O   UNL     1       5.193  -7.936  -0.095  0.00  0.00    -0.126 OA
ATOM     14  O   UNL     1       7.229  -8.425  -0.107  0.00  0.00    -0.126 OA
ENDBRANCH   8  12
ENDBRANCH   2   5
BRANCH   1  15
ATOM     15  C   UNL     1       7.024   0.214  -0.065  0.00  0.00    +0.153 C 
ATOM     16  S   UNL     1       8.665   0.702  -0.078  0.00  0.00    -0.017 S 
BRANCH  15  17
ATOM     17  N   UNL     1       6.046   1.141  -0.050  0.00  0.00    -0.245 N 
ATOM     18  H   UNL     1       6.272   2.085  -0.048  0.00  0.00    +0.172 HD
BRANCH  17  21
ATOM     19  C   UNL     1       3.725   1.670  -0.025  0.00  0.00    +0.267 C 
ATOM     20  O   UNL     1       4.008   2.853  -0.022  0.00  0.00    -0.268 OA
ATOM     21  N   UNL     1       4.703   0.743  -0.039  0.00  0.00    -0.231 N 
ATOM     22  H   UNL     1       4.477  -0.201  -0.042  0.00  0.00    +0.173 HD
BRANCH  19  25
ATOM     23  C   UNL     1      -0.016   1.352   0.009  0.00  0.00    +0.008 A 
ATOM     24  C   UNL     1       1.175   2.036   0.002  0.00  0.00    +0.021 A 
ATOM     25  C   UNL     1       2.320   1.253  -0.013  0.00  0.00    +0.075 A 
ATOM     26  S   UNL     1       1.636  -0.394  -0.016  0.00  0.00    -0.092 S 
ATOM     27  C   UNL     1       0.002  -0.004   0.002  0.00  0.00    +0.046 A 
ENDBRANCH  19  25
ENDBRANCH  17  21
ENDBRANCH  15  17
ENDBRANCH   1  15
TORSDOF 6
