REMARK  Name = ZINC20439092
REMARK  11 active torsions:
REMARK  status: ('A' for Active; 'I' for Inactive)
REMARK    1  A    between atoms: C_1  and  C_2
REMARK    2  A    between atoms: C_2  and  N_3
REMARK    3  A    between atoms: C_5  and  C_12
REMARK    4  A    between atoms: C_13  and  C_14
REMARK    5  A    between atoms: C_13  and  N_29
REMARK    6  A    between atoms: N_16  and  C_17
REMARK    7  A    between atoms: C_17  and  C_18
REMARK    8  A    between atoms: C_18  and  C_19
REMARK    9  A    between atoms: C_30  and  C_32
REMARK   10  A    between atoms: C_35  and  O_38
REMARK   11  A    between atoms: O_38  and  C_39
REMARK                            x       y       z     vdW  Elec       q    Type
REMARK                         _______ _______ _______ _____ _____    ______ ____
ROOT
ATOM      1  C   UNL     1      -3.228   4.949  -0.078  0.00  0.00    +0.038 C 
ATOM      2  C   UNL     1      -4.511   5.204   0.286  0.00  0.00    +0.097 C 
ENDROOT
BRANCH   1   5
ATOM      3  N   UNL     1      -2.812   1.367  -0.631  0.00  0.00    -0.346 N 
ATOM      4  C   UNL     1      -3.584   2.473  -0.461  0.00  0.00    +0.094 A 
ATOM      5  C   UNL     1      -2.787   3.568  -0.289  0.00  0.00    +0.002 A 
ATOM      6  C   UNL     1      -1.394   3.089  -0.375  0.00  0.00    +0.007 A 
ATOM      7  C   UNL     1      -1.475   1.703  -0.588  0.00  0.00    +0.050 A 
ATOM      8  C   UNL     1      -0.304   0.962  -0.705  0.00  0.00    +0.026 A 
ATOM      9  C   UNL     1       0.919   1.591  -0.624  0.00  0.00    +0.002 A 
ATOM     10  C   UNL     1       0.997   2.961  -0.419  0.00  0.00    +0.001 A 
ATOM     11  C   UNL     1      -0.152   3.712  -0.294  0.00  0.00    +0.010 A 
BRANCH   3  13
ATOM     12  C   UNL     1      -3.321  -0.740   0.502  0.00  0.00    +0.027 C 
ATOM     13  C   UNL     1      -3.328   0.010  -0.831  0.00  0.00    +0.118 C 
ENDBRANCH   3  13
ENDBRANCH   1   5
BRANCH   2  14
ATOM     14  C   UNL     1      -4.976   6.586   0.410  0.00  0.00    +0.258 C 
ATOM     15  O   UNL     1      -6.126   6.814   0.736  0.00  0.00    -0.269 OA
ATOM     16  N   UNL     1      -4.130   7.606   0.162  0.00  0.00    -0.310 N 
ATOM     17  H   UNL     1      -3.091   7.400  -0.133  0.00  0.00    +0.149 HD
BRANCH  16  18
ATOM     18  C   UNL     1      -4.596   8.990   0.285  0.00  0.00    +0.109 C 
BRANCH  18  19
ATOM     19  C   UNL     1      -3.448   9.945  -0.048  0.00  0.00    +0.056 C 
BRANCH  19  20
ATOM     20  C   UNL     1      -3.927  11.369   0.079  0.00  0.00    -0.021 A 
ATOM     21  C   UNL     1      -4.385  12.149  -0.913  0.00  0.00    +0.087 A 
ATOM     22  N   UNL     1      -4.730  13.377  -0.419  0.00  0.00    -0.360 N 
ATOM     23  H   UNL     1      -5.133  14.148  -1.093  0.00  0.00    +0.165 HD
ATOM     24  C   UNL     1      -4.489  13.422   0.935  0.00  0.00    +0.047 A 
ATOM     25  C   UNL     1      -3.975  12.165   1.307  0.00  0.00    +0.003 A 
ATOM     26  C   UNL     1      -3.636  11.918   2.638  0.00  0.00    +0.010 A 
ATOM     27  C   UNL     1      -3.805  12.898   3.575  0.00  0.00    +0.001 A 
ATOM     28  C   UNL     1      -4.311  14.139   3.214  0.00  0.00    +0.002 A 
ATOM     29  C   UNL     1      -4.652  14.405   1.906  0.00  0.00    +0.026 A 
ENDBRANCH  19  20
ENDBRANCH  18  19
ENDBRANCH  16  18
ENDBRANCH   2  14
BRANCH   2  30
ATOM     30  N   UNL     1      -5.390   4.142   0.544  0.00  0.00    -0.277 N 
ATOM     31  C   UNL     1      -6.530   4.024  -0.166  0.00  0.00    +0.248 C 
ATOM     32  O   UNL     1      -6.754   4.785  -1.087  0.00  0.00    -0.270 OA
ATOM     33  H   UNL     1      -5.150   3.406   1.326  0.00  0.00    +0.155 HD
BRANCH  31  34
ATOM     34  C   UNL     1      -7.505   2.970   0.175  0.00  0.00    +0.037 A 
ATOM     35  C   UNL     1      -7.305   2.168   1.302  0.00  0.00    +0.016 A 
ATOM     36  C   UNL     1      -8.221   1.190   1.620  0.00  0.00    +0.046 A 
ATOM     37  C   UNL     1      -9.337   0.992   0.816  0.00  0.00    +0.120 A 
ATOM     38  C   UNL     1      -9.536   1.783  -0.309  0.00  0.00    +0.046 A 
ATOM     39  C   UNL     1      -8.628   2.768  -0.631  0.00  0.00    +0.016 A 
BRANCH  37  40
ATOM     40  O   UNL     1     -10.234   0.023   1.129  0.00  0.00    -0.495 OA
ATOM     41  C   UNL     1      -9.968  -0.754   2.299  0.00  0.00    +0.277 C 
ENDBRANCH  37  40
ENDBRANCH  31  34
ENDBRANCH   2  30
TORSDOF 9
