REMARK  Name = ZINC36268355
REMARK  5 active torsions:
REMARK  status: ('A' for Active; 'I' for Inactive)
REMARK    1  A    between atoms: C_1  and  C_2
REMARK    2  A    between atoms: C_3  and  N_17
REMARK    3  A    between atoms: C_4  and  N_8
REMARK    4  A    between atoms: N_5  and  C_7
REMARK    5  A    between atoms: N_8  and  C_9
REMARK                            x       y       z     vdW  Elec       q    Type
REMARK                         _______ _______ _______ _____ _____    ______ ____
ROOT
ATOM      1  C   UNL     1       0.937  -0.150   2.279  0.00  0.00    +0.070 C 
ATOM      2  C   UNL     1       0.445  -0.708   0.968  0.00  0.00    +0.092 A 
ATOM      3  C   UNL     1       0.655  -2.008   0.501  0.00  0.00    +0.188 A 
ATOM      4  C   UNL     1       0.054  -2.117  -0.715  0.00  0.00    +0.148 A 
ATOM      5  N   UNL     1      -0.514  -0.922  -0.998  0.00  0.00    -0.251 N 
ATOM      6  N   UNL     1      -0.258  -0.059   0.075  0.00  0.00    -0.173 NA
ATOM      7  C   UNL     1      -1.266  -0.590  -2.210  0.00  0.00    +0.174 C 
ENDROOT
BRANCH   3   8
ATOM      8  N   UNL     1       1.400  -3.077   1.205  0.00  0.00    +0.062 N 
ATOM      9  O   UNL     1       0.818  -3.825   1.957  0.00  0.00    -0.126 OA
ATOM     10  O   UNL     1       2.589  -3.203   1.027  0.00  0.00    -0.126 OA
ENDBRANCH   3   8
BRANCH   4  11
ATOM     11  N   UNL     1       0.028  -3.251  -1.522  0.00  0.00    -0.324 N 
ATOM     12  H   UNL     1      -0.074  -3.161  -2.482  0.00  0.00    +0.148 HD
BRANCH  11  13
ATOM     13  C   UNL     1       0.153  -4.581  -0.920  0.00  0.00    +0.075 C 
ATOM     14  C   UNL     1       1.197  -5.528  -1.515  0.00  0.00    -0.005 C 
ATOM     15  C   UNL     1      -0.306  -5.778  -1.754  0.00  0.00    -0.005 C 
ATOM     16  C   UNL     1      -0.614  -7.101  -1.020  0.00  0.00    -0.077 C 
ATOM     17  N   UNL     1       0.694  -7.801  -0.946  0.00  0.00    +0.380 N 
ATOM     18  C   UNL     1       1.698  -6.699  -0.643  0.00  0.00    -0.077 C 
ATOM     19  H   UNL     1       0.689  -8.481  -0.200  0.00  0.00    -0.086 HD
ATOM     20  H   UNL     1       0.907  -8.244  -1.827  0.00  0.00    -0.086 HD
ENDBRANCH  11  13
ENDBRANCH   4  11
TORSDOF 3
