REMARK  Name = ZINC36692957
REMARK  8 active torsions:
REMARK  status: ('A' for Active; 'I' for Inactive)
REMARK    1  A    between atoms: C_1  and  C_2
REMARK    2  A    between atoms: C_6  and  C_28
REMARK    3  A    between atoms: C_7  and  N_8
REMARK    4  A    between atoms: C_9  and  C_11
REMARK    5  A    between atoms: C_11  and  N_12
REMARK    6  A    between atoms: C_17  and  C_24
REMARK    7  A    between atoms: C_20  and  C_22
REMARK    8  A    between atoms: C_20  and  C_23
REMARK                            x       y       z     vdW  Elec       q    Type
REMARK                         _______ _______ _______ _____ _____    ______ ____
ROOT
ATOM      1  N   UNL     1      -0.418  -0.877   5.950  0.00  0.00    -0.215 N 
ATOM      2  C   UNL     1      -1.622  -1.296   6.392  0.00  0.00    +0.247 C 
ATOM      3  O   UNL     1      -2.708  -1.038   5.918  0.00  0.00    -0.273 OA
ATOM      4  C   UNL     1      -1.332  -2.153   7.603  0.00  0.00    +0.113 C 
ATOM      5  C   UNL     1      -1.982  -1.554   8.846  0.00  0.00    +0.038 C 
ATOM      6  C   UNL     1      -1.651  -2.420  10.064  0.00  0.00    -0.011 C 
ATOM      7  C   UNL     1      -2.166  -3.842   9.833  0.00  0.00    +0.009 C 
ATOM      8  C   UNL     1      -1.489  -4.437   8.597  0.00  0.00    -0.032 C 
ATOM      9  C   UNL     1      -1.819  -3.579   7.373  0.00  0.00    +0.041 C 
ATOM     10  C   UNL     1      -1.997  -5.863   8.374  0.00  0.00    +0.011 C 
ATOM     11  C   UNL     1       0.026  -4.463   8.808  0.00  0.00    +0.011 C 
ATOM     12  C   UNL     1      -2.320  -1.830  11.307  0.00  0.00    +0.007 C 
ATOM     13  N   UNL     1       0.131  -2.121   7.720  0.00  0.00    -0.285 N 
ATOM     14  C   UNL     1       0.578  -1.355   6.707  0.00  0.00    +0.310 C 
ATOM     15  O   UNL     1       1.753  -1.120   6.504  0.00  0.00    -0.252 OA
ATOM     16  H   UNL     1       0.670  -2.566   8.393  0.00  0.00    +0.151 HD
ENDROOT
BRANCH   1  17
ATOM     17  C   UNL     1      -0.225  -0.014   4.783  0.00  0.00    +0.214 C 
BRANCH  17  19
ATOM     18  N   UNL     1       0.117  -0.282   2.348  0.00  0.00    -0.284 N 
ATOM     19  C   UNL     1      -0.073  -0.864   3.548  0.00  0.00    +0.235 C 
ATOM     20  O   UNL     1      -0.122  -2.073   3.635  0.00  0.00    -0.274 OA
ATOM     21  H   UNL     1       0.206   0.682   2.285  0.00  0.00    +0.155 HD
BRANCH  18  28
ATOM     22  C   UNL     1       2.196   0.255   0.480  0.00  0.00    +0.045 C 
ATOM     23  C   UNL     1       1.185  -0.840   0.254  0.00  0.00    -0.029 A 
ATOM     24  C   UNL     1       1.255  -1.621  -0.883  0.00  0.00    +0.005 A 
ATOM     25  C   UNL     1       0.327  -2.625  -1.091  0.00  0.00    +0.001 A 
ATOM     26  C   UNL     1      -0.672  -2.851  -0.162  0.00  0.00    +0.005 A 
ATOM     27  C   UNL     1      -0.746  -2.074   0.977  0.00  0.00    -0.029 A 
ATOM     28  C   UNL     1       0.187  -1.068   1.192  0.00  0.00    +0.039 A 
ATOM     29  C   UNL     1      -1.836  -2.320   1.989  0.00  0.00    +0.045 C 
ENDBRANCH  18  28
ENDBRANCH  17  19
ENDBRANCH   1  17
TORSDOF 3
