REMARK  Name = ZINC19581639
REMARK  6 active torsions:
REMARK  status: ('A' for Active; 'I' for Inactive)
REMARK    1  A    between atoms: C_1  and  C_2
REMARK    2  A    between atoms: C_3  and  C_12
REMARK    3  A    between atoms: C_12  and  C_14
REMARK    4  A    between atoms: C_12  and  O_33
REMARK    5  A    between atoms: C_14  and  N_15
REMARK    6  A    between atoms: C_22  and  O_32
REMARK                            x       y       z     vdW  Elec       q    Type
REMARK                         _______ _______ _______ _____ _____    ______ ____
ROOT
ATOM      1  N   UNL     1      -0.810   1.622   1.119  0.00  0.00    +0.382 N 
ATOM      2  C   UNL     1      -2.226   1.258   0.974  0.00  0.00    -0.075 C 
ATOM      3  C   UNL     1      -3.047   1.953   2.063  0.00  0.00    +0.029 C 
ATOM      4  C   UNL     1      -2.526   1.529   3.438  0.00  0.00    +0.110 C 
ATOM      5  C   UNL     1      -1.038   1.871   3.545  0.00  0.00    +0.029 C 
ATOM      6  C   UNL     1      -0.276   1.179   2.413  0.00  0.00    -0.075 C 
ATOM      7  C   UNL     1      -3.303   2.272   4.530  0.00  0.00    +0.084 C 
ATOM      8  C   UNL     1      -2.694   1.909   5.887  0.00  0.00    +0.152 C 
ATOM      9  C   UNL     1      -2.530   0.414   5.986  0.00  0.00    +0.024 A 
ATOM     10  C   UNL     1      -2.358  -0.156   7.237  0.00  0.00    +0.029 A 
ATOM     11  C   UNL     1      -2.196  -1.522   7.364  0.00  0.00    +0.042 A 
ATOM     12  C   UNL     1      -2.203  -2.327   6.238  0.00  0.00    +0.023 A 
ATOM     13  C   UNL     1      -2.375  -1.764   4.990  0.00  0.00    +0.047 A 
ATOM     14  C   UNL     1      -2.542  -0.389   4.859  0.00  0.00    +0.127 A 
ATOM     15  O   UNL     1      -2.715   0.127   3.614  0.00  0.00    -0.485 OA
ATOM     16 CL   UNL     1      -1.984  -2.229   8.935  0.00  0.00    -0.084 Cl
ATOM     17  H   UNL     1      -0.743   2.720   1.087  0.00  0.00    -0.082 HD
ENDROOT
BRANCH   8  18
ATOM     18  O   UNL     1      -3.557   2.363   6.931  0.00  0.00    -0.387 OA
ATOM     19  H   UNL     1      -3.285   2.192   7.983  0.00  0.00    +0.210 HD
ENDBRANCH   8  18
BRANCH   1  20
ATOM     20  C   UNL     1      -0.013   1.086   0.008  0.00  0.00    -0.042 C 
BRANCH  20  21
ATOM     21  C   UNL     1       1.391   1.693   0.048  0.00  0.00    +0.130 C 
BRANCH  21  24
ATOM     22  C   UNL     1       1.110   2.501  -2.935  0.00  0.00    +0.063 C 
ATOM     23  C   UNL     1       2.091   1.496  -2.391  0.00  0.00    +0.019 A 
ATOM     24  C   UNL     1       2.206   1.152  -1.098  0.00  0.00    +0.007 A 
ATOM     25  C   UNL     1       3.268   0.147  -1.014  0.00  0.00    +0.005 A 
ATOM     26  C   UNL     1       3.835  -0.581   0.034  0.00  0.00    +0.010 A 
ATOM     27  C   UNL     1       4.840  -1.469  -0.223  0.00  0.00    +0.001 A 
ATOM     28  C   UNL     1       5.303  -1.655  -1.519  0.00  0.00    +0.002 A 
ATOM     29  C   UNL     1       4.758  -0.948  -2.568  0.00  0.00    +0.026 A 
ATOM     30  C   UNL     1       3.733  -0.038  -2.329  0.00  0.00    +0.047 A 
ATOM     31  N   UNL     1       3.000   0.799  -3.140  0.00  0.00    -0.358 N 
ATOM     32  H   UNL     1       3.054   0.959  -4.227  0.00  0.00    +0.166 HD
ENDBRANCH  21  24
BRANCH  21  33
ATOM     33  O   UNL     1       1.298   3.115  -0.062  0.00  0.00    -0.389 OA
ATOM     34  H   UNL     1       0.738   3.690   0.690  0.00  0.00    +0.210 HD
ENDBRANCH  21  33
ENDBRANCH  20  21
ENDBRANCH   1  20
TORSDOF 5
