REMARK  Name = ZINC44022598
REMARK  6 active torsions:
REMARK  status: ('A' for Active; 'I' for Inactive)
REMARK    1  A    between atoms: C_1  and  C_2
REMARK    2  A    between atoms: C_4  and  C_20
REMARK    3  A    between atoms: C_5  and  N_9
REMARK    4  A    between atoms: C_6  and  C_8
REMARK    5  A    between atoms: N_9  and  C_10
REMARK    6  A    between atoms: N_14  and  C_19
REMARK                            x       y       z     vdW  Elec       q    Type
REMARK                         _______ _______ _______ _____ _____    ______ ____
ROOT
ATOM      1  N   UNL     1       0.393  -4.115  -0.426  0.00  0.00    -0.300 N 
ATOM      2  H   UNL     1       0.160  -4.744   0.275  0.00  0.00    +0.154 HD
ENDROOT
BRANCH   1   3
ATOM      3  C   UNL     1       0.885  -4.572  -1.623  0.00  0.00    +0.109 A 
ATOM      4  C   UNL     1       1.159  -5.901  -1.794  0.00  0.00    +0.112 A 
ATOM      5  C   UNL     1       1.661  -6.340  -3.029  0.00  0.00    +0.258 A 
ATOM      6  O   UNL     1       1.913  -7.520  -3.204  0.00  0.00    -0.267 OA
ATOM      7  N   UNL     1       1.863  -5.449  -4.021  0.00  0.00    -0.264 N 
ATOM      8  C   UNL     1       1.588  -4.146  -3.835  0.00  0.00    +0.330 A 
ATOM      9  O   UNL     1       1.777  -3.359  -4.743  0.00  0.00    -0.246 OA
ATOM     10  N   UNL     1       1.101  -3.700  -2.663  0.00  0.00    -0.296 N 
ATOM     11  H   UNL     1       0.904  -2.757  -2.549  0.00  0.00    +0.172 HD
ATOM     12  C   UNL     1       2.386  -5.905  -5.311  0.00  0.00    +0.157 C 
ENDBRANCH   1   3
BRANCH   1  17
ATOM     13  C   UNL     1      -0.278   1.453   0.425  0.00  0.00    +0.044 C 
ATOM     14  C   UNL     1      -0.100  -0.027   0.199  0.00  0.00    -0.050 A 
ATOM     15  C   UNL     1      -0.860  -0.675  -0.757  0.00  0.00    +0.008 A 
ATOM     16  C   UNL     1      -0.699  -2.030  -0.967  0.00  0.00    -0.029 A 
ATOM     17  C   UNL     1       0.228  -2.743  -0.216  0.00  0.00    +0.038 A 
ATOM     18  C   UNL     1       0.990  -2.088   0.743  0.00  0.00    -0.029 A 
ATOM     19  C   UNL     1       0.827  -0.732   0.944  0.00  0.00    +0.008 A 
ATOM     20  C   UNL     1       1.996  -2.857   1.560  0.00  0.00    +0.045 C 
ATOM     21  C   UNL     1      -1.528  -2.736  -2.009  0.00  0.00    +0.045 C 
ENDBRANCH   1  17
TORSDOF 2
