REMARK  Name = ZINC12502327
REMARK  9 active torsions:
REMARK  status: ('A' for Active; 'I' for Inactive)
REMARK    1  A    between atoms: C_1  and  C_2
REMARK    2  A    between atoms: C_3  and  N_9
REMARK    3  A    between atoms: C_10  and  C_12
REMARK    4  A    between atoms: C_12  and  C_13
REMARK    5  A    between atoms: C_13  and  C_14
REMARK    6  A    between atoms: N_16  and  N_17
REMARK    7  A    between atoms: N_17  and  C_18
REMARK    8  A    between atoms: C_18  and  N_20
REMARK    9  A    between atoms: C_21  and  C_23
REMARK                            x       y       z     vdW  Elec       q    Type
REMARK                         _______ _______ _______ _____ _____    ______ ____
ROOT
ATOM      1  C   UNL     1      -3.572   1.944   0.001  0.00  0.00    +0.230 C 
ATOM      2  O   UNL     1      -3.589   3.156   0.001  0.00  0.00    -0.274 OA
ATOM      3  N   UNL     1      -2.396   1.286  -0.011  0.00  0.00    -0.235 N 
ATOM      4  H   UNL     1      -2.383   0.316  -0.011  0.00  0.00    +0.173 HD
ENDROOT
BRANCH   3   5
ATOM      5  N   UNL     1      -1.193   2.003  -0.024  0.00  0.00    -0.246 N 
ATOM      6  H   UNL     1      -1.206   2.973  -0.024  0.00  0.00    +0.172 HD
BRANCH   5   7
ATOM      7  C   UNL     1      -0.016   1.345  -0.036  0.00  0.00    +0.153 C 
ATOM      8  S   UNL     1       1.454   2.222  -0.059  0.00  0.00    -0.017 S 
BRANCH   7   9
ATOM      9  N   UNL     1       0.002  -0.002  -0.036  0.00  0.00    -0.262 N 
ATOM     10  C   UNL     1       1.179  -0.660  -0.054  0.00  0.00    +0.256 C 
ATOM     11  O   UNL     1       2.224  -0.037  -0.071  0.00  0.00    -0.269 OA
ATOM     12  H   UNL     1      -0.831  -0.499  -0.023  0.00  0.00    +0.157 HD
BRANCH  10  13
ATOM     13  C   UNL     1       1.199  -2.124  -0.054  0.00  0.00    +0.074 A 
ATOM     14  C   UNL     1       2.287  -2.984  -0.077  0.00  0.00    +0.021 A 
ATOM     15  C   UNL     1       2.021  -4.330  -0.068  0.00  0.00    +0.008 A 
ATOM     16  C   UNL     1       0.728  -4.750  -0.048  0.00  0.00    +0.046 A 
ATOM     17  S   UNL     1      -0.170  -3.268  -0.034  0.00  0.00    -0.092 S 
ENDBRANCH  10  13
ENDBRANCH   7   9
ENDBRANCH   5   7
ENDBRANCH   3   5
BRANCH   1  18
ATOM     18  C   UNL     1      -4.867   1.172   0.015  0.00  0.00    +0.106 C 
BRANCH  18  19
ATOM     19  C   UNL     1      -6.043   2.150   0.027  0.00  0.00    +0.105 C 
BRANCH  19  21
ATOM     20  N   UNL     1      -8.514   2.037   0.053  0.00  0.00    -0.285 N 
ATOM     21  C   UNL     1      -7.338   1.379   0.041  0.00  0.00    +0.218 C 
ATOM     22  O   UNL     1      -7.321   0.166   0.041  0.00  0.00    -0.275 OA
ATOM     23  H   UNL     1      -8.529   3.003   0.134  0.00  0.00    +0.155 HD
BRANCH  20  26
ATOM     24  C   UNL     1     -10.870   3.211   1.135  0.00  0.00    +0.047 C 
ATOM     25  C   UNL     1     -10.888   1.861   0.464  0.00  0.00    -0.011 A 
ATOM     26  C   UNL     1      -9.715   1.325  -0.050  0.00  0.00    +0.038 A 
ATOM     27  C   UNL     1      -9.734   0.079  -0.663  0.00  0.00    +0.023 A 
ATOM     28  C   UNL     1     -10.920  -0.622  -0.764  0.00  0.00    +0.003 A 
ATOM     29  C   UNL     1     -12.088  -0.084  -0.256  0.00  0.00    +0.020 A 
ATOM     30  C   UNL     1     -12.073   1.158   0.355  0.00  0.00    +0.046 A 
ATOM     31 CL   UNL     1     -13.542   1.831   0.991  0.00  0.00    -0.083 Cl
ENDBRANCH  20  26
ENDBRANCH  19  21
ENDBRANCH  18  19
ENDBRANCH   1  18
TORSDOF 8
