REMARK  Name = ZINC58450395
REMARK  6 active torsions:
REMARK  status: ('A' for Active; 'I' for Inactive)
REMARK    1  A    between atoms: C_1  and  C_2
REMARK    2  A    between atoms: C_11  and  N_30
REMARK    3  A    between atoms: C_13  and  C_15
REMARK    4  A    between atoms: C_15  and  N_16
REMARK    5  A    between atoms: N_22  and  C_29
REMARK    6  A    between atoms: N_25  and  C_28
REMARK                            x       y       z     vdW  Elec       q    Type
REMARK                         _______ _______ _______ _____ _____    ______ ____
ROOT
ATOM      1  C   UNL     1       0.591   1.266  -0.734  0.00  0.00    +0.008 C 
ATOM      2  C   UNL     1       0.464  -0.251  -0.580  0.00  0.00    -0.009 C 
ATOM      3  C   UNL     1      -1.014  -0.634  -0.460  0.00  0.00    +0.008 C 
ATOM      4  C   UNL     1      -1.166  -2.152  -0.556  0.00  0.00    +0.037 C 
ATOM      5  C   UNL     1      -0.236  -2.807   0.463  0.00  0.00    -0.025 A 
ATOM      6  C   UNL     1       0.801  -2.118   0.989  0.00  0.00    -0.004 A 
ATOM      7  S   UNL     1       1.596  -3.248   2.103  0.00  0.00    -0.073 S 
ATOM      8  C   UNL     1       0.540  -4.640   1.865  0.00  0.00    +0.114 A 
ATOM      9  C   UNL     1      -0.407  -4.177   0.916  0.00  0.00    +0.051 A 
ATOM     10  C   UNL     1      -1.416  -5.098   0.513  0.00  0.00    +0.128 A 
ATOM     11  N   UNL     1      -1.360  -6.304   1.076  0.00  0.00    -0.215 NA
ATOM     12  C   UNL     1      -0.446  -6.664   1.955  0.00  0.00    +0.152 A 
ATOM     13  N   UNL     1       0.521  -5.856   2.373  0.00  0.00    -0.223 NA
ATOM     14  C   UNL     1       1.197  -0.704   0.691  0.00  0.00    +0.046 C 
ENDROOT
BRANCH  10  15
ATOM     15  N   UNL     1      -2.393  -4.761  -0.406  0.00  0.00    -0.343 N 
ATOM     16  H   UNL     1      -2.279  -3.981  -0.971  0.00  0.00    +0.144 HD
ATOM     17  H   UNL     1      -3.193  -5.304  -0.484  0.00  0.00    +0.144 HD
ENDBRANCH  10  15
BRANCH  12  18
ATOM     18  C   UNL     1      -0.502  -8.063   2.513  0.00  0.00    +0.201 C 
BRANCH  18  19
ATOM     19  N   UNL     1       0.292  -8.958   1.667  0.00  0.00    -0.302 N 
ATOM     20  C   UNL     1      -0.158  -9.667   0.570  0.00  0.00    +0.153 A 
ATOM     21  C   UNL     1       0.938 -10.373   0.087  0.00  0.00    +0.169 A 
ATOM     22  N   UNL     1       1.976 -10.082   0.875  0.00  0.00    -0.199 NA
ATOM     23  C   UNL     1       1.603  -9.242   1.809  0.00  0.00    +0.206 A 
ATOM     24 CL   UNL     1       2.639  -8.595   3.043  0.00  0.00    -0.043 Cl
ATOM     25  N   UNL     1       0.774 -11.182  -1.026  0.00  0.00    -0.280 N 
ATOM     26  C   UNL     1      -0.430 -11.274  -1.622  0.00  0.00    +0.333 A 
ATOM     27  O   UNL     1      -0.554 -11.989  -2.598  0.00  0.00    -0.246 OA
ATOM     28  N   UNL     1      -1.497 -10.597  -1.165  0.00  0.00    -0.262 N 
ATOM     29  C   UNL     1      -1.400  -9.794  -0.085  0.00  0.00    +0.282 A 
ATOM     30  O   UNL     1      -2.375  -9.185   0.319  0.00  0.00    -0.265 OA
ATOM     31  C   UNL     1      -2.785 -10.733  -1.850  0.00  0.00    +0.157 C 
ATOM     32  C   UNL     1       1.913 -11.937  -1.555  0.00  0.00    +0.155 C 
ENDBRANCH  18  19
ENDBRANCH  12  18
TORSDOF 3
