REMARK  Name = ZINC48834144
REMARK  7 active torsions:
REMARK  status: ('A' for Active; 'I' for Inactive)
REMARK    1  A    between atoms: C_1  and  C_2
REMARK    2  A    between atoms: C_2  and  C_4
REMARK    3  A    between atoms: C_2  and  S_10
REMARK    4  A    between atoms: S_10  and  C_11
REMARK    5  A    between atoms: C_12  and  C_19
REMARK    6  A    between atoms: C_13  and  N_18
REMARK    7  A    between atoms: C_15  and  N_17
REMARK                            x       y       z     vdW  Elec       q    Type
REMARK                         _______ _______ _______ _____ _____    ______ ____
ROOT
ATOM      1  C   UNL     1       2.533  -0.042   1.241  0.00  0.00    +0.119 A 
ATOM      2  C   UNL     1       3.512  -0.338   2.205  0.00  0.00    +0.104 A 
ATOM      3  C   UNL     1       4.830   0.123   2.000  0.00  0.00    +0.048 A 
ATOM      4  C   UNL     1       5.100   0.851   0.848  0.00  0.00    +0.067 A 
ATOM      5  C   UNL     1       4.076   1.101  -0.057  0.00  0.00    +0.119 A 
ATOM      6  N   UNL     1       2.846   0.652   0.157  0.00  0.00    -0.225 NA
ENDROOT
BRANCH   5   7
ATOM      7  N   UNL     1       4.345   1.828  -1.206  0.00  0.00    -0.343 N 
ATOM      8  H   UNL     1       5.242   2.158  -1.373  0.00  0.00    +0.144 HD
ATOM      9  H   UNL     1       3.636   2.007  -1.843  0.00  0.00    +0.144 HD
ENDBRANCH   5   7
BRANCH   3  10
ATOM     10  N   UNL     1       5.829  -0.144   2.924  0.00  0.00    -0.357 N 
ATOM     11  H   UNL     1       5.626  -0.654   3.724  0.00  0.00    +0.142 HD
ATOM     12  H   UNL     1       6.730   0.179   2.770  0.00  0.00    +0.142 HD
ENDBRANCH   3  10
BRANCH   2  13
ATOM     13  C   UNL     1       3.178  -1.093   3.376  0.00  0.00    +0.104 C 
ATOM     14  N   UNL     1       2.913  -1.692   4.304  0.00  0.00    -0.191 NA
ENDBRANCH   2  13
BRANCH   1  15
ATOM     15  S   UNL     1       0.879  -0.605   1.472  0.00  0.00    -0.097 S 
BRANCH  15  17
ATOM     16  C   UNL     1      -0.019   1.526   0.010  0.00  0.00    +0.024 C 
ATOM     17  C   UNL     1       0.002  -0.004   0.002  0.00  0.00    +0.081 C 
BRANCH  17  18
ATOM     18  C   UNL     1      -1.412  -0.526   0.013  0.00  0.00    -0.016 A 
ATOM     19  C   UNL     1      -1.872  -1.329  -1.020  0.00  0.00    +0.008 A 
ATOM     20  C   UNL     1      -3.179  -1.786  -0.968  0.00  0.00    +0.020 A 
ATOM     21  C   UNL     1      -3.976  -1.428   0.103  0.00  0.00    +0.111 A 
ATOM     22  N   UNL     1      -3.505  -0.662   1.068  0.00  0.00    -0.263 NA
ATOM     23  C   UNL     1      -2.264  -0.214   1.055  0.00  0.00    +0.115 A 
ENDBRANCH  17  18
ENDBRANCH  15  17
ENDBRANCH   1  15
TORSDOF 6
