REMARK  Name = ZINC05444937
REMARK  6 active torsions:
REMARK  status: ('A' for Active; 'I' for Inactive)
REMARK    1  A    between atoms: C_1  and  C_2
REMARK    2  A    between atoms: C_2  and  C_3
REMARK    3  A    between atoms: C_6  and  C_9
REMARK    4  A    between atoms: C_12  and  C_23
REMARK    5  A    between atoms: C_18  and  N_22
REMARK    6  A    between atoms: C_19  and  C_20
REMARK                            x       y       z     vdW  Elec       q    Type
REMARK                         _______ _______ _______ _____ _____    ______ ____
ROOT
ATOM      1  C   UNL     1      -5.419  -2.005   0.043  0.00  0.00    +0.102 C 
ATOM      2  C   UNL     1      -6.325  -1.035  -0.670  0.00  0.00    +0.054 A 
ATOM      3  C   UNL     1      -6.776   0.222  -0.257  0.00  0.00    +0.100 A 
ATOM      4  N   UNL     1      -7.550   0.709  -1.209  0.00  0.00    -0.171 NA
ATOM      5  N   UNL     1      -7.610  -0.228  -2.252  0.00  0.00    -0.246 N 
ATOM      6  H   UNL     1      -8.107  -0.129  -3.079  0.00  0.00    +0.192 HD
ATOM      7  C   UNL     1      -6.854  -1.289  -1.903  0.00  0.00    +0.223 A 
ATOM      8  O   UNL     1      -6.609  -2.437  -2.582  0.00  0.00    -0.423 OA
ATOM      9  C   UNL     1      -6.046  -3.457  -1.902  0.00  0.00    +0.200 C 
ATOM     10  C   UNL     1      -5.479  -3.326  -0.682  0.00  0.00    +0.098 C 
ENDROOT
BRANCH   3  11
ATOM     11  C   UNL     1      -6.444   0.891   1.026  0.00  0.00    +0.006 A 
ATOM     12  C   UNL     1      -6.278   0.135   2.184  0.00  0.00    +0.014 A 
ATOM     13  C   UNL     1      -5.968   0.757   3.377  0.00  0.00    +0.050 A 
ATOM     14  C   UNL     1      -5.821   2.135   3.426  0.00  0.00    +0.166 A 
ATOM     15  C   UNL     1      -5.986   2.896   2.270  0.00  0.00    +0.167 A 
ATOM     16  C   UNL     1      -6.291   2.275   1.072  0.00  0.00    +0.059 A 
ATOM     17  O   UNL     1      -5.791   4.211   2.582  0.00  0.00    -0.453 OA
ATOM     18  C   UNL     1      -5.909   4.287   4.015  0.00  0.00    +0.466 C 
ATOM     19  O   UNL     1      -5.523   2.974   4.461  0.00  0.00    -0.453 OA
ENDBRANCH   3  11
BRANCH   1  23
ATOM     20  C   UNL     1      -1.412  -0.526   0.013  0.00  0.00    -0.048 A 
ATOM     21  C   UNL     1      -2.051  -0.766   1.215  0.00  0.00    +0.004 A 
ATOM     22  C   UNL     1      -3.348  -1.244   1.225  0.00  0.00    +0.005 A 
ATOM     23  C   UNL     1      -4.006  -1.482   0.032  0.00  0.00    -0.035 A 
ATOM     24  C   UNL     1      -3.367  -1.241  -1.170  0.00  0.00    +0.005 A 
ATOM     25  C   UNL     1      -2.072  -0.758  -1.179  0.00  0.00    +0.004 A 
BRANCH  20  27
ATOM     26  C   UNL     1      -0.019   1.526   0.010  0.00  0.00    +0.009 C 
ATOM     27  C   UNL     1       0.002  -0.004   0.002  0.00  0.00    +0.032 C 
ENDBRANCH  20  27
ENDBRANCH   1  23
BRANCH   9  28
ATOM     28  N   UNL     1      -6.048  -4.701  -2.484  0.00  0.00    -0.328 N 
ATOM     29  H   UNL     1      -6.447  -4.826  -3.359  0.00  0.00    +0.145 HD
ATOM     30  H   UNL     1      -5.651  -5.454  -2.019  0.00  0.00    +0.145 HD
ENDBRANCH   9  28
BRANCH  10  31
ATOM     31  C   UNL     1      -4.915  -4.483  -0.054  0.00  0.00    +0.101 C 
ATOM     32  N   UNL     1      -4.467  -5.401   0.444  0.00  0.00    -0.191 NA
ENDBRANCH  10  31
TORSDOF 5
