REMARK  Name = ZINC35423409
REMARK  10 active torsions:
REMARK  status: ('A' for Active; 'I' for Inactive)
REMARK    1  A    between atoms: C_1  and  C_2
REMARK    2  A    between atoms: C_2  and  C_3
REMARK    3  A    between atoms: C_3  and  N_4
REMARK    4  A    between atoms: N_7  and  C_10
REMARK    5  A    between atoms: C_10  and  C_11
REMARK    6  A    between atoms: C_11  and  C_12
REMARK    7  A    between atoms: C_12  and  N_13
REMARK    8  A    between atoms: C_14  and  C_16
REMARK    9  A    between atoms: C_19  and  C_21
REMARK   10  A    between atoms: C_21  and  N_22
REMARK                            x       y       z     vdW  Elec       q    Type
REMARK                         _______ _______ _______ _____ _____    ______ ____
ROOT
ATOM      1  C   UNL     1       2.147 -10.143  -6.709  0.00  0.00    +0.189 A 
ATOM      2  C   UNL     1       2.310 -11.438  -7.110  0.00  0.00    +0.055 A 
ATOM      3  C   UNL     1       2.933 -11.395  -8.368  0.00  0.00    +0.047 A 
ATOM      4  C   UNL     1       3.119 -10.092  -8.675  0.00  0.00    +0.126 A 
ATOM      5  O   UNL     1       2.640  -9.341  -7.675  0.00  0.00    -0.453 OA
ENDROOT
BRANCH   1   7
ATOM      6  N   UNL     1       1.431  -8.387  -5.177  0.00  0.00    -0.309 N 
ATOM      7  C   UNL     1       1.537  -9.702  -5.450  0.00  0.00    +0.279 C 
ATOM      8  O   UNL     1       1.125 -10.524  -4.652  0.00  0.00    -0.267 OA
ATOM      9  H   UNL     1       1.759  -7.732  -5.813  0.00  0.00    +0.149 HD
BRANCH   6  10
ATOM     10  C   UNL     1       0.822  -7.946  -3.920  0.00  0.00    +0.106 C 
BRANCH  10  11
ATOM     11  C   UNL     1       0.826  -6.417  -3.860  0.00  0.00    +0.034 C 
BRANCH  11  12
ATOM     12  C   UNL     1       0.189  -5.957  -2.547  0.00  0.00    +0.086 C 
BRANCH  12  16
ATOM     13  N   UNL     1       0.738  -1.966  -1.265  0.00  0.00    +0.381 N 
ATOM     14  C   UNL     1      -0.636  -2.474  -1.373  0.00  0.00    -0.063 C 
ATOM     15  C   UNL     1      -0.617  -4.004  -1.363  0.00  0.00    +0.066 C 
ATOM     16  N   UNL     1       0.193  -4.489  -2.489  0.00  0.00    -0.306 NA
ATOM     17  C   UNL     1       1.565  -3.969  -2.408  0.00  0.00    +0.066 C 
ATOM     18  C   UNL     1       1.528  -2.439  -2.409  0.00  0.00    -0.063 C 
ATOM     19  H   UNL     1       1.153  -2.302  -0.409  0.00  0.00    -0.082 HD
BRANCH  13  20
ATOM     20  C   UNL     1       0.718  -0.497  -1.257  0.00  0.00    -0.079 C 
BRANCH  20  22
ATOM     21  C   UNL     1      -0.019   1.526   0.010  0.00  0.00    +0.002 C 
ATOM     22  C   UNL     1       0.002  -0.004   0.002  0.00  0.00    -0.022 C 
ENDBRANCH  20  22
ENDBRANCH  13  20
ENDBRANCH  12  16
ENDBRANCH  11  12
ENDBRANCH  10  11
ENDBRANCH   6  10
ENDBRANCH   1   7
BRANCH   4  23
ATOM     23  C   UNL     1       3.757  -9.570  -9.936  0.00  0.00    +0.201 C 
BRANCH  23  24
ATOM     24  N   UNL     1       2.727  -9.368 -10.957  0.00  0.00    -0.283 N 
ATOM     25  C   UNL     1       2.399 -10.408 -11.821  0.00  0.00    +0.161 A 
ATOM     26  C   UNL     1       1.418 -10.231 -12.799  0.00  0.00    +0.090 A 
ATOM     27  C   UNL     1       1.107 -11.284 -13.650  0.00  0.00    +0.031 A 
ATOM     28  C   UNL     1       1.790 -12.481 -13.493  0.00  0.00    +0.022 A 
ATOM     29  C   UNL     1       2.749 -12.587 -12.504  0.00  0.00    +0.113 A 
ATOM     30  N   UNL     1       3.024 -11.572 -11.710  0.00  0.00    -0.236 NA
ATOM     31  N   UNL     1       0.753  -9.008 -12.925  0.00  0.00    -0.309 N 
ATOM     32  C   UNL     1      -0.217  -8.580 -13.771  0.00  0.00    +0.092 A 
ATOM     33  C   UNL     1      -0.522  -7.293 -13.474  0.00  0.00    +0.020 A 
ATOM     34  C   UNL     1       0.285  -6.895 -12.404  0.00  0.00    +0.033 A 
ATOM     35  C   UNL     1       1.075  -7.973 -12.071  0.00  0.00    +0.112 A 
ATOM     36  C   UNL     1       2.101  -8.178 -11.047  0.00  0.00    +0.277 A 
ATOM     37  O   UNL     1       2.391  -7.275 -10.284  0.00  0.00    -0.265 OA
ENDBRANCH  23  24
ENDBRANCH   4  23
TORSDOF 9
