REMARK  Name = ZINC64310847
REMARK  7 active torsions:
REMARK  status: ('A' for Active; 'I' for Inactive)
REMARK    1  A    between atoms: C_1  and  C_2
REMARK    2  A    between atoms: C_2  and  C_3
REMARK    3  A    between atoms: C_3  and  C_4
REMARK    4  A    between atoms: C_4  and  C_5
REMARK    5  A    between atoms: C_4  and  N_21
REMARK    6  A    between atoms: N_11  and  C_14
REMARK    7  A    between atoms: C_14  and  C_15
REMARK                            x       y       z     vdW  Elec       q    Type
REMARK                         _______ _______ _______ _____ _____    ______ ____
ROOT
ATOM      1  C   UNL     1      -2.632  -2.159   0.054  0.00  0.00    +0.236 C 
ATOM      2  O   UNL     1      -3.207  -2.564  -0.934  0.00  0.00    -0.274 OA
ATOM      3  N   UNL     1      -3.204  -2.291   1.267  0.00  0.00    -0.302 N 
ATOM      4  C   UNL     1      -2.484  -1.784   2.453  0.00  0.00    +0.106 C 
ATOM      5  C   UNL     1      -3.445  -1.071   3.421  0.00  0.00    +0.000 C 
ATOM      6  C   UNL     1      -4.444  -0.256   2.630  0.00  0.00    -0.077 C 
ATOM      7  N   UNL     1      -5.647  -1.054   2.404  0.00  0.00    +0.381 N 
ATOM      8  C   UNL     1      -5.617  -1.860   1.244  0.00  0.00    -0.060 C 
ATOM      9  C   UNL     1      -4.505  -2.921   1.361  0.00  0.00    +0.089 C 
ATOM     10  H   UNL     1      -5.787  -1.652   3.204  0.00  0.00    -0.082 HD
ENDROOT
BRANCH   1  11
ATOM     11  C   UNL     1      -1.279  -1.508  -0.075  0.00  0.00    +0.160 C 
BRANCH  11  12
ATOM     12  N   UNL     1      -0.670  -1.895  -1.350  0.00  0.00    -0.288 N 
ATOM     13  C   UNL     1      -1.288  -1.595  -2.510  0.00  0.00    +0.298 C 
ATOM     14  O   UNL     1      -2.350  -1.003  -2.498  0.00  0.00    -0.253 OA
ATOM     15  N   UNL     1      -0.727  -1.951  -3.683  0.00  0.00    -0.313 N 
ATOM     16  H   UNL     1       0.177  -2.367  -1.359  0.00  0.00    +0.151 HD
ATOM     17  H   UNL     1       0.120  -2.423  -3.692  0.00  0.00    +0.146 HD
ATOM     18  H   UNL     1      -1.171  -1.735  -4.518  0.00  0.00    +0.146 HD
ENDBRANCH  11  12
BRANCH  11  19
ATOM     19  C   UNL     1      -1.438   0.013  -0.026  0.00  0.00    +0.031 C 
BRANCH  19  21
ATOM     20  C   UNL     1      -0.216   2.191   0.017  0.00  0.00    +0.004 C 
ATOM     21  C   UNL     1      -0.057   0.670  -0.031  0.00  0.00    -0.001 C 
ENDBRANCH  19  21
ENDBRANCH  11  19
ENDBRANCH   1  11
BRANCH   7  22
ATOM     22  C   UNL     1      -6.795  -0.143   2.306  0.00  0.00    -0.075 C 
BRANCH  22  23
ATOM     23  C   UNL     1      -7.035   0.523   3.662  0.00  0.00    -0.028 C 
ATOM     24  C   UNL     1      -7.460  -0.536   4.682  0.00  0.00    +0.002 C 
ATOM     25  C   UNL     1      -7.700   0.130   6.038  0.00  0.00    +0.000 C 
ATOM     26  C   UNL     1      -8.805   1.180   5.903  0.00  0.00    +0.000 C 
ATOM     27  C   UNL     1      -8.380   2.238   4.883  0.00  0.00    +0.000 C 
ATOM     28  C   UNL     1      -8.140   1.572   3.527  0.00  0.00    +0.002 C 
ENDBRANCH  22  23
ENDBRANCH   7  22
TORSDOF 6
