REMARK  Name = ZINC14545488
REMARK  6 active torsions:
REMARK  status: ('A' for Active; 'I' for Inactive)
REMARK    1  A    between atoms: C_1  and  C_2
REMARK    2  A    between atoms: C_2  and  O_3
REMARK    3  A    between atoms: O_3  and  C_4
REMARK    4  A    between atoms: C_9  and  C_10
REMARK    5  A    between atoms: C_23  and  O_26
REMARK    6  A    between atoms: O_26  and  C_27
REMARK                            x       y       z     vdW  Elec       q    Type
REMARK                         _______ _______ _______ _____ _____    ______ ____
ROOT
ATOM      1  C   UNL     1      -0.784   0.814   2.489  0.00  0.00    +0.109 C 
ATOM      2  C   UNL     1      -0.778   1.468   1.123  0.00  0.00    +0.029 C 
ATOM      3  C   UNL     1      -0.015   0.768  -0.007  0.00  0.00    +0.033 C 
ATOM      4  C   UNL     1      -0.813   1.212  -1.236  0.00  0.00    -0.030 C 
ATOM      5  C   UNL     1      -2.063   1.492  -0.887  0.00  0.00    -0.023 C 
ATOM      6  C   UNL     1      -2.218   1.230   0.565  0.00  0.00    +0.049 C 
ATOM      7  C   UNL     1      -3.125   2.019   1.427  0.00  0.00    -0.016 A 
ATOM      8  C   UNL     1      -4.293   2.573   0.924  0.00  0.00    +0.006 A 
ATOM      9  C   UNL     1      -5.146   3.280   1.749  0.00  0.00    +0.004 A 
ATOM     10  C   UNL     1      -4.839   3.422   3.091  0.00  0.00    +0.047 A 
ATOM     11  C   UNL     1      -3.683   2.865   3.600  0.00  0.00    +0.141 A 
ATOM     12  C   UNL     1      -2.807   2.151   2.773  0.00  0.00    +0.074 A 
ATOM     13  N   UNL     1      -1.650   1.630   3.355  0.00  0.00    -0.334 N 
ATOM     14  H   UNL     1      -1.120   2.354   3.817  0.00  0.00    +0.147 HD
ENDROOT
BRANCH   1  20
ATOM     15  C   UNL     1       0.919  -0.067   4.105  0.00  0.00    +0.125 A 
ATOM     16  C   UNL     1       2.210  -0.102   4.612  0.00  0.00    +0.046 A 
ATOM     17  C   UNL     1       3.187   0.711   4.071  0.00  0.00    +0.004 A 
ATOM     18  C   UNL     1       2.880   1.555   3.019  0.00  0.00    +0.001 A 
ATOM     19  C   UNL     1       1.596   1.588   2.508  0.00  0.00    +0.009 A 
ATOM     20  C   UNL     1       0.616   0.777   3.046  0.00  0.00    +0.015 A 
BRANCH  15  21
ATOM     21  O   UNL     1      -0.045  -0.861   4.640  0.00  0.00    -0.492 OA
BRANCH  21  23
ATOM     22  C   UNL     1      -0.869  -2.518   6.194  0.00  0.00    +0.048 C 
ATOM     23  C   UNL     1       0.340  -1.705   5.727  0.00  0.00    +0.225 C 
ENDBRANCH  21  23
ENDBRANCH  15  21
ENDBRANCH   1  20
BRANCH  11  24
ATOM     24  O   UNL     1      -3.391   3.012   4.921  0.00  0.00    -0.493 OA
ATOM     25  C   UNL     1      -4.323   3.751   5.713  0.00  0.00    +0.277 C 
ENDBRANCH  11  24
TORSDOF 4
