REMARK  Name = ZINC67028344
REMARK  7 active torsions:
REMARK  status: ('A' for Active; 'I' for Inactive)
REMARK    1  A    between atoms: C_1  and  C_2
REMARK    2  A    between atoms: C_3  and  C_16
REMARK    3  A    between atoms: C_4  and  C_11
REMARK    4  A    between atoms: N_9  and  C_10
REMARK    5  A    between atoms: N_18  and  C_19
REMARK    6  A    between atoms: C_24  and  O_25
REMARK    7  A    between atoms: O_25  and  C_26
REMARK                            x       y       z     vdW  Elec       q    Type
REMARK                         _______ _______ _______ _____ _____    ______ ____
ROOT
ATOM      1  C   UNL     1       0.559   1.218   0.633  0.00  0.00    +0.061 C 
ATOM      2  C   UNL     1       0.366  -0.256   0.384  0.00  0.00    +0.019 C 
ATOM      3  C   UNL     1      -0.874  -0.783   0.452  0.00  0.00    +0.058 C 
ATOM      4  C   UNL     1      -1.023  -2.269   0.196  0.00  0.00    +0.160 C 
ATOM      5  N   UNL     1       0.206  -3.020  -0.110  0.00  0.00    -0.314 N 
ATOM      6  C   UNL     1       1.375  -2.351  -0.142  0.00  0.00    +0.137 C 
ATOM      7  S   UNL     1       2.813  -3.211  -0.495  0.00  0.00    -0.018 S 
ATOM      8  N   UNL     1       1.449  -1.034   0.089  0.00  0.00    -0.289 N 
ATOM      9  C   UNL     1       2.765  -0.393   0.025  0.00  0.00    +0.137 C 
ATOM     10  H   UNL     1       0.175  -3.974  -0.283  0.00  0.00    +0.149 HD
ENDROOT
BRANCH   4  11
ATOM     11  C   UNL     1      -1.656  -2.890   1.414  0.00  0.00    +0.097 A 
ATOM     12  C   UNL     1      -2.789  -3.636   1.348  0.00  0.00    +0.094 A 
ATOM     13  S   UNL     1      -3.025  -4.056   2.957  0.00  0.00    +0.028 S 
ATOM     14  N   UNL     1      -1.748  -3.311   3.615  0.00  0.00    -0.110 NA
ATOM     15  N   UNL     1      -1.148  -2.755   2.621  0.00  0.00    -0.144 NA
ENDBRANCH   4  11
BRANCH   3  16
ATOM     16  C   UNL     1      -1.998   0.024   0.754  0.00  0.00    +0.248 C 
ATOM     17  O   UNL     1      -1.854   1.216   0.958  0.00  0.00    -0.270 OA
ATOM     18  N   UNL     1      -3.226  -0.527   0.816  0.00  0.00    -0.279 N 
ATOM     19  H   UNL     1      -3.335  -1.483   0.696  0.00  0.00    +0.155 HD
BRANCH  18  20
ATOM     20  C   UNL     1      -4.345   0.281   1.054  0.00  0.00    +0.076 A 
ATOM     21  C   UNL     1      -4.229   1.415   1.845  0.00  0.00    +0.027 A 
ATOM     22  C   UNL     1      -5.334   2.211   2.078  0.00  0.00    +0.002 A 
ATOM     23  C   UNL     1      -6.557   1.881   1.525  0.00  0.00    +0.004 A 
ATOM     24  C   UNL     1      -6.681   0.752   0.736  0.00  0.00    +0.047 A 
ATOM     25  C   UNL     1      -5.577  -0.048   0.493  0.00  0.00    +0.141 A 
BRANCH  25  26
ATOM     26  O   UNL     1      -5.696  -1.155  -0.288  0.00  0.00    -0.493 OA
ATOM     27  C   UNL     1      -6.989  -1.430  -0.830  0.00  0.00    +0.277 C 
ENDBRANCH  25  26
ENDBRANCH  18  20
ENDBRANCH   3  16
TORSDOF 4
