REMARK  Name = ZINC51534541
REMARK  6 active torsions:
REMARK  status: ('A' for Active; 'I' for Inactive)
REMARK    1  A    between atoms: C_1  and  C_2
REMARK    2  A    between atoms: C_2  and  C_4
REMARK    3  A    between atoms: C_2  and  N_12
REMARK    4  A    between atoms: N_12  and  C_13
REMARK    5  A    between atoms: C_13  and  C_14
REMARK    6  A    between atoms: N_16  and  C_17
REMARK                            x       y       z     vdW  Elec       q    Type
REMARK                         _______ _______ _______ _____ _____    ______ ____
ROOT
ATOM      1  C   UNL     1       2.087  -0.016  -1.188  0.00  0.00    +0.016 C 
ENDROOT
BRANCH   1   2
ATOM      2  C   UNL     1       2.793  -0.502  -2.427  0.00  0.00    +0.197 C 
ATOM      3  O   UNL     1       2.169  -1.078  -3.294  0.00  0.00    -0.278 OA
ATOM      4  N   UNL     1       4.117  -0.297  -2.574  0.00  0.00    -0.306 N 
ATOM      5  H   UNL     1       4.615   0.164  -1.881  0.00  0.00    +0.149 HD
BRANCH   4   6
ATOM      6  C   UNL     1       4.802  -0.769  -3.779  0.00  0.00    +0.159 C 
ATOM      7  C   UNL     1       6.314  -0.785  -3.538  0.00  0.00    +0.032 C 
ATOM      8  C   UNL     1       6.727   0.367  -2.640  0.00  0.00    +0.004 C 
ATOM      9  C   UNL     1       6.543   1.734  -3.273  0.00  0.00    +0.019 C 
ATOM     10  C   UNL     1       5.059   2.045  -3.480  0.00  0.00    +0.104 C 
ATOM     11  N   UNL     1       4.637   1.486  -4.775  0.00  0.00    -0.314 N 
ATOM     12  C   UNL     1       4.505   0.165  -4.933  0.00  0.00    +0.233 C 
ATOM     13  O   UNL     1       4.152  -0.288  -6.001  0.00  0.00    -0.274 OA
ATOM     14  H   UNL     1       4.452   2.080  -5.519  0.00  0.00    +0.149 HD
ENDBRANCH   4   6
ENDBRANCH   1   2
BRANCH   1  15
ATOM     15  N   UNL     1       0.661  -0.360  -1.269  0.00  0.00    +0.389 N 
ATOM     16  H   UNL     1       0.560  -1.361  -1.343  0.00  0.00    -0.084 HD
ATOM     17  H   UNL     1       0.255   0.080  -2.081  0.00  0.00    -0.084 HD
BRANCH  15  19
ATOM     18  C   UNL     1       0.020   1.642  -0.013  0.00  0.00    -0.009 C 
ATOM     19  C   UNL     1      -0.026   0.114  -0.060  0.00  0.00    -0.042 C 
BRANCH  19  20
ATOM     20  C   UNL     1      -1.462  -0.345  -0.086  0.00  0.00    -0.043 A 
ATOM     21  C   UNL     1      -2.045  -0.723  -1.282  0.00  0.00    +0.005 A 
ATOM     22  C   UNL     1      -3.361  -1.144  -1.306  0.00  0.00    +0.020 A 
ATOM     23  C   UNL     1      -4.096  -1.188  -0.134  0.00  0.00    +0.042 A 
ATOM     24  C   UNL     1      -3.513  -0.810   1.062  0.00  0.00    +0.040 A 
ATOM     25  C   UNL     1      -2.193  -0.394   1.087  0.00  0.00    +0.044 A 
ATOM     26 CL   UNL     1      -1.459   0.075   2.588  0.00  0.00    -0.083 Cl
ATOM     27 CL   UNL     1      -5.749  -1.716  -0.166  0.00  0.00    -0.083 Cl
ENDBRANCH  19  20
ENDBRANCH  15  19
ENDBRANCH   1  15
TORSDOF 5
