REMARK  Name = ZINC34757528
REMARK  9 active torsions:
REMARK  status: ('A' for Active; 'I' for Inactive)
REMARK    1  A    between atoms: C_1  and  C_2
REMARK    2  A    between atoms: C_2  and  C_3
REMARK    3  A    between atoms: C_3  and  C_4
REMARK    4  A    between atoms: C_9  and  S_13
REMARK    5  A    between atoms: S_13  and  C_14
REMARK    6  A    between atoms: C_14  and  C_15
REMARK    7  A    between atoms: C_18  and  N_21
REMARK    8  A    between atoms: N_27  and  C_30
REMARK    9  A    between atoms: C_30  and  C_31
REMARK                            x       y       z     vdW  Elec       q    Type
REMARK                         _______ _______ _______ _____ _____    ______ ____
ROOT
ATOM      1  C   UNL     1       0.585  -2.021  -1.000  0.00  0.00    -0.007 A 
ATOM      2  C   UNL     1      -0.275  -2.855  -1.602  0.00  0.00    +0.024 A 
ATOM      3  C   UNL     1       0.001  -4.282  -1.597  0.00  0.00    +0.048 A 
ATOM      4  C   UNL     1      -0.748  -5.354  -2.160  0.00  0.00    +0.134 A 
ATOM      5  N   UNL     1      -0.302  -6.592  -2.033  0.00  0.00    -0.206 NA
ATOM      6  C   UNL     1       0.828  -6.873  -1.395  0.00  0.00    +0.191 A 
ATOM      7  N   UNL     1       1.567  -5.916  -0.851  0.00  0.00    -0.215 NA
ATOM      8  C   UNL     1       1.190  -4.655  -0.934  0.00  0.00    +0.115 A 
ATOM      9  S   UNL     1       1.854  -3.107  -0.378  0.00  0.00    -0.073 S 
ATOM     10  N   UNL     1      -1.931  -5.102  -2.832  0.00  0.00    -0.318 N 
ATOM     11  C   UNL     1      -1.938  -4.847  -4.281  0.00  0.00    +0.088 C 
ATOM     12  C   UNL     1      -2.984  -5.760  -4.929  0.00  0.00    -0.059 C 
ATOM     13  N   UNL     1      -4.282  -5.559  -4.272  0.00  0.00    +0.387 N 
ATOM     14  C   UNL     1      -4.202  -5.984  -2.869  0.00  0.00    -0.059 C 
ATOM     15  C   UNL     1      -3.217  -5.088  -2.119  0.00  0.00    +0.088 C 
ATOM     16  H   UNL     1      -4.530  -4.582  -4.313  0.00  0.00    -0.081 HD
ENDROOT
BRANCH   1  17
ATOM     17  C   UNL     1       0.501  -0.521  -0.883  0.00  0.00    +0.042 C 
BRANCH  17  19
ATOM     18  C   UNL     1      -0.337   1.373   0.514  0.00  0.00    +0.004 C 
ATOM     19  C   UNL     1      -0.253  -0.150   0.396  0.00  0.00    +0.002 C 
ENDBRANCH  17  19
ENDBRANCH   1  17
BRANCH   6  20
ATOM     20  S   UNL     1       1.355  -8.550  -1.268  0.00  0.00    -0.081 S 
BRANCH  20  21
ATOM     21  C   UNL     1       2.909  -8.452  -0.337  0.00  0.00    +0.112 C 
BRANCH  21  22
ATOM     22  C   UNL     1       3.474  -9.837  -0.156  0.00  0.00    -0.037 A 
ATOM     23  C   UNL     1       3.121 -10.588   0.950  0.00  0.00    +0.007 A 
ATOM     24  C   UNL     1       3.639 -11.859   1.116  0.00  0.00    +0.033 A 
ATOM     25  C   UNL     1       4.510 -12.379   0.176  0.00  0.00    +0.126 A 
ATOM     26  C   UNL     1       4.862 -11.628  -0.930  0.00  0.00    +0.033 A 
ATOM     27  C   UNL     1       4.340 -10.359  -1.098  0.00  0.00    +0.007 A 
BRANCH  25  28
ATOM     28  N   UNL     1       5.066 -13.739   0.355  0.00  0.00    +0.056 N 
ATOM     29  O   UNL     1       4.758 -14.396   1.322  0.00  0.00    -0.126 OA
ATOM     30  O   UNL     1       5.827 -14.194  -0.467  0.00  0.00    -0.126 OA
ENDBRANCH  25  28
ENDBRANCH  21  22
ENDBRANCH  20  21
ENDBRANCH   6  20
BRANCH  13  31
ATOM     31  C   UNL     1      -5.307  -6.351  -4.964  0.00  0.00    +0.018 C 
BRANCH  31  32
ATOM     32  C   UNL     1      -6.659  -6.053  -4.370  0.00  0.00    +0.194 C 
ATOM     33  O   UNL     1      -6.759  -5.258  -3.459  0.00  0.00    -0.278 OA
ATOM     34  N   UNL     1      -7.757  -6.669  -4.851  0.00  0.00    -0.331 N 
ATOM     35  H   UNL     1      -7.677  -7.304  -5.579  0.00  0.00    +0.145 HD
ATOM     36  H   UNL     1      -8.627  -6.476  -4.468  0.00  0.00    +0.145 HD
ENDBRANCH  31  32
ENDBRANCH  13  31
TORSDOF 8
