REMARK  Name = ZINC64220395
REMARK  6 active torsions:
REMARK  status: ('A' for Active; 'I' for Inactive)
REMARK    1  A    between atoms: C_1  and  C_2
REMARK    2  A    between atoms: N_4  and  C_5
REMARK    3  A    between atoms: C_5  and  C_7
REMARK    4  A    between atoms: C_5  and  C_17
REMARK    5  A    between atoms: C_7  and  C_8
REMARK    6  A    between atoms: N_19  and  C_20
REMARK                            x       y       z     vdW  Elec       q    Type
REMARK                         _______ _______ _______ _____ _____    ______ ____
ROOT
ATOM      1  C   UNL     1      -1.136  -2.159   0.001  0.00  0.00    +0.163 C 
ENDROOT
BRANCH   1   5
ATOM      2  C   UNL     1      -0.018   1.503   0.010  0.00  0.00    +0.109 C 
ATOM      3  C   UNL     1       0.002  -0.004   0.002  0.00  0.00    +0.211 C 
ATOM      4  O   UNL     1       1.060  -0.596  -0.011  0.00  0.00    -0.276 OA
ATOM      5  N   UNL     1      -1.156  -0.694   0.009  0.00  0.00    -0.304 N 
ATOM      6  H   UNL     1      -2.002  -0.220   0.020  0.00  0.00    +0.149 HD
ENDBRANCH   1   5
BRANCH   1   7
ATOM      7  C   UNL     1      -0.407  -2.658   1.222  0.00  0.00    +0.234 C 
ATOM      8  O   UNL     1       0.350  -1.922   1.819  0.00  0.00    -0.274 OA
ATOM      9  N   UNL     1      -0.597  -3.922   1.651  0.00  0.00    -0.311 N 
ATOM     10  H   UNL     1      -1.202  -4.510   1.173  0.00  0.00    +0.149 HD
BRANCH   9  11
ATOM     11  C   UNL     1       0.112  -4.407   2.837  0.00  0.00    +0.073 C 
ATOM     12  C   UNL     1       1.500  -4.908   2.433  0.00  0.00    +0.022 C 
ATOM     13  C   UNL     1       2.377  -5.039   3.680  0.00  0.00    +0.002 C 
ATOM     14  C   UNL     1       2.190  -3.808   4.568  0.00  0.00    +0.000 C 
ATOM     15  C   UNL     1       1.500  -4.218   5.870  0.00  0.00    +0.000 C 
ATOM     16  C   UNL     1       0.011  -4.452   5.605  0.00  0.00    +0.000 C 
ATOM     17  C   UNL     1      -0.175  -5.794   4.895  0.00  0.00    +0.002 C 
ATOM     18  C   UNL     1      -0.680  -5.553   3.471  0.00  0.00    +0.022 C 
ENDBRANCH   9  11
ENDBRANCH   1   7
BRANCH   1  19
ATOM     19  C   UNL     1      -0.420  -2.652  -1.258  0.00  0.00    +0.065 C 
BRANCH  19  20
ATOM     20  C   UNL     1      -1.215  -2.257  -2.475  0.00  0.00    -0.039 C 
ATOM     21  C   UNL     1      -1.033  -1.160  -3.245  0.00  0.00    -0.001 A 
ATOM     22  C   UNL     1      -0.077  -0.048  -3.181  0.00  0.00    +0.010 A 
ATOM     23  C   UNL     1      -0.143   0.928  -4.115  0.00  0.00    +0.001 A 
ATOM     24  C   UNL     1      -1.099   0.905  -5.139  0.00  0.00    +0.002 A 
ATOM     25  C   UNL     1      -2.010  -0.084  -5.264  0.00  0.00    +0.026 A 
ATOM     26  C   UNL     1      -2.033  -1.162  -4.337  0.00  0.00    +0.043 A 
ATOM     27  N   UNL     1      -2.803  -2.219  -4.246  0.00  0.00    -0.380 N 
ATOM     28  C   UNL     1      -2.374  -3.011  -3.088  0.00  0.00    +0.144 C 
ATOM     29  H   UNL     1      -3.532  -2.442  -4.846  0.00  0.00    +0.160 HD
ENDBRANCH  19  20
ENDBRANCH   1  19
TORSDOF 5
