REMARK  Name = ZINC49688311
REMARK  9 active torsions:
REMARK  status: ('A' for Active; 'I' for Inactive)
REMARK    1  A    between atoms: C_3  and  O_22
REMARK    2  A    between atoms: C_4  and  O_21
REMARK    3  A    between atoms: C_6  and  C_7
REMARK    4  A    between atoms: C_7  and  C_8
REMARK    5  A    between atoms: C_8  and  C_10
REMARK    6  A    between atoms: C_8  and  N_20
REMARK    7  A    between atoms: C_10  and  O_12
REMARK    8  A    between atoms: O_12  and  C_13
REMARK    9  A    between atoms: C_13  and  C_14
REMARK                            x       y       z     vdW  Elec       q    Type
REMARK                         _______ _______ _______ _____ _____    ______ ____
ROOT
ATOM      1  C   UNL     1      -1.746  -1.026  -1.429  0.00  0.00    +0.040 C 
ENDROOT
BRANCH   1   2
ATOM      2  N   UNL     1      -0.777  -1.903  -2.100  0.00  0.00    +0.387 N 
ATOM      3  H   UNL     1      -0.720  -2.782  -1.606  0.00  0.00    -0.089 HD
ATOM      4  H   UNL     1      -1.075  -2.070  -3.050  0.00  0.00    -0.089 HD
ATOM      5  H   UNL     1       0.130  -1.461  -2.105  0.00  0.00    -0.089 HD
ENDBRANCH   1   2
BRANCH   1   6
ATOM      6  C   UNL     1      -3.100  -1.687  -1.422  0.00  0.00    +0.293 C 
ATOM      7  O   UNL     1      -3.191  -2.881  -1.580  0.00  0.00    -0.253 OA
BRANCH   6   8
ATOM      8  O   UNL     1      -4.206  -0.948  -1.240  0.00  0.00    -0.465 OA
BRANCH   8   9
ATOM      9  C   UNL     1      -5.457  -1.640  -1.244  0.00  0.00    +0.238 C 
BRANCH   9  10
ATOM     10  C   UNL     1      -6.593  -0.640  -1.024  0.00  0.00    +0.054 C 
ATOM     11  C   UNL     1      -7.954  -1.375  -0.945  0.00  0.00    +0.037 C 
ATOM     12  C   UNL     1      -8.882  -0.426  -1.746  0.00  0.00    +0.160 C 
ATOM     13  O   UNL     1      -8.035   0.052  -2.813  0.00  0.00    -0.379 OA
ATOM     14  C   UNL     1      -6.735   0.293  -2.242  0.00  0.00    +0.166 C 
ENDBRANCH   9  10
ENDBRANCH   8   9
ENDBRANCH   6   8
ENDBRANCH   1   6
BRANCH   1  15
ATOM     15  C   UNL     1      -1.294  -0.774   0.010  0.00  0.00    +0.030 C 
BRANCH  15  21
ATOM     16  C   UNL     1      -0.017   1.378   0.010  0.00  0.00    +0.007 A 
ATOM     17  C   UNL     1       1.170   2.089   0.002  0.00  0.00    +0.049 A 
ATOM     18  C   UNL     1       2.380   1.415  -0.013  0.00  0.00    +0.158 A 
ATOM     19  C   UNL     1       2.399   0.024  -0.021  0.00  0.00    +0.158 A 
ATOM     20  C   UNL     1       1.207  -0.682  -0.013  0.00  0.00    +0.052 A 
ATOM     21  C   UNL     1       0.002  -0.004   0.002  0.00  0.00    -0.045 A 
BRANCH  19  22
ATOM     22  O   UNL     1       3.585  -0.642  -0.036  0.00  0.00    -0.503 OA
ATOM     23  H   UNL     1       3.937  -0.839   0.843  0.00  0.00    +0.292 HD
ENDBRANCH  19  22
BRANCH  18  24
ATOM     24  O   UNL     1       3.548   2.113  -0.021  0.00  0.00    -0.503 OA
ATOM     25  H   UNL     1       3.894   2.310   0.860  0.00  0.00    +0.292 HD
ENDBRANCH  18  24
ENDBRANCH  15  21
ENDBRANCH   1  15
TORSDOF 9
