REMARK  Name = ZINC09861712
REMARK  5 active torsions:
REMARK  status: ('A' for Active; 'I' for Inactive)
REMARK    1  A    between atoms: C_1  and  C_2
REMARK    2  A    between atoms: C_2  and  C_4
REMARK    3  A    between atoms: C_2  and  N_12
REMARK    4  A    between atoms: C_13  and  C_15
REMARK    5  A    between atoms: C_15  and  N_16
REMARK                            x       y       z     vdW  Elec       q    Type
REMARK                         _______ _______ _______ _____ _____    ______ ____
ROOT
ATOM      1  N   UNL     1      -5.446   3.780  -1.658  0.00  0.00    -0.307 N 
ATOM      2  C   UNL     1      -4.168   4.191  -1.542  0.00  0.00    +0.235 C 
ATOM      3  O   UNL     1      -3.462   4.262  -2.526  0.00  0.00    -0.274 OA
ATOM      4  H   UNL     1      -6.010   3.724  -0.872  0.00  0.00    +0.149 HD
ENDROOT
BRANCH   1   6
ATOM      5  C   UNL     1      -5.691   1.946  -3.257  0.00  0.00    +0.033 C 
ATOM      6  C   UNL     1      -5.984   3.421  -2.973  0.00  0.00    +0.103 C 
BRANCH   6   7
ATOM      7  C   UNL     1      -7.473   3.649  -2.986  0.00  0.00    +0.008 A 
ATOM      8  C   UNL     1      -8.194   3.576  -1.809  0.00  0.00    +0.011 A 
ATOM      9  C   UNL     1      -9.560   3.785  -1.819  0.00  0.00    +0.039 A 
ATOM     10  C   UNL     1     -10.208   4.067  -3.010  0.00  0.00    +0.126 A 
ATOM     11  C   UNL     1      -9.488   4.140  -4.189  0.00  0.00    +0.077 A 
ATOM     12  C   UNL     1      -8.118   3.937  -4.177  0.00  0.00    +0.131 A 
ATOM     13  F   UNL     1      -7.413   4.013  -5.326  0.00  0.00    -0.205 F 
ATOM     14  F   UNL     1     -11.544   4.271  -3.020  0.00  0.00    -0.205 F 
ENDBRANCH   6   7
ENDBRANCH   1   6
BRANCH   2  15
ATOM     15  C   UNL     1      -3.615   4.561  -0.190  0.00  0.00    +0.241 C 
BRANCH  15  16
ATOM     16  N   UNL     1      -2.215   4.970  -0.330  0.00  0.00    -0.235 N 
ATOM     17  C   UNL     1      -1.109   4.158  -0.254  0.00  0.00    +0.090 A 
ATOM     18  C   UNL     1      -0.923   2.796  -0.045  0.00  0.00    +0.029 A 
ATOM     19  C   UNL     1       0.342   2.278  -0.021  0.00  0.00    +0.002 A 
ATOM     20  C   UNL     1       1.445   3.100  -0.213  0.00  0.00    +0.002 A 
ATOM     21  C   UNL     1       1.290   4.439  -0.425  0.00  0.00    +0.032 A 
ATOM     22  C   UNL     1       0.004   4.995  -0.450  0.00  0.00    +0.113 A 
ATOM     23  N   UNL     1      -0.455   6.249  -0.632  0.00  0.00    -0.129 NA
ATOM     24  N   UNL     1      -1.740   6.268  -0.569  0.00  0.00    -0.064 NA
ENDBRANCH  15  16
ENDBRANCH   2  15
TORSDOF 4
