REMARK  Name = ZINC45026277
REMARK  1 active torsions:
REMARK  status: ('A' for Active; 'I' for Inactive)
REMARK    1  A    between atoms: C_6  and  C_7
REMARK                            x       y       z     vdW  Elec       q    Type
REMARK                         _______ _______ _______ _____ _____    ______ ____
ROOT
ATOM      1  C   UNL     1      -1.293  -0.775   0.010  0.00  0.00    +0.105 C 
ATOM      2  C   UNL     1      -1.580  -1.304   1.431  0.00  0.00    +0.029 C 
ATOM      3  C   UNL     1      -2.179  -2.710   1.164  0.00  0.00    +0.021 C 
ATOM      4  C   UNL     1      -1.366  -3.165  -0.073  0.00  0.00    +0.107 C 
ATOM      5  N   UNL     1      -1.187  -1.940  -0.880  0.00  0.00    -0.308 N 
ATOM      6  C   UNL     1      -0.958  -1.895  -2.245  0.00  0.00    +0.128 A 
ATOM      7  C   UNL     1      -0.696  -0.679  -2.880  0.00  0.00    +0.084 A 
ATOM      8  C   UNL     1      -0.473  -0.682  -4.244  0.00  0.00    +0.136 A 
ATOM      9  N   UNL     1      -0.514  -1.831  -4.906  0.00  0.00    -0.203 NA
ATOM     10  C   UNL     1      -0.765  -2.969  -4.277  0.00  0.00    +0.216 A 
ATOM     11  N   UNL     1      -0.979  -3.009  -2.970  0.00  0.00    -0.200 NA
ATOM     12  N   UNL     1      -0.800  -4.147  -5.002  0.00  0.00    -0.327 N 
ATOM     13 CL   UNL     1      -0.143   0.802  -5.082  0.00  0.00    -0.062 Cl
ATOM     14  H   UNL     1      -0.642  -4.132  -5.959  0.00  0.00    +0.145 HD
ATOM     15  H   UNL     1      -0.983  -4.987  -4.554  0.00  0.00    +0.145 HD
ENDROOT
BRANCH   1  21
ATOM     16  C   UNL     1      -0.017   1.378   0.010  0.00  0.00    +0.008 A 
ATOM     17  C   UNL     1       1.170   2.086   0.002  0.00  0.00    +0.038 A 
ATOM     18  C   UNL     1       2.379   1.410  -0.013  0.00  0.00    +0.123 A 
ATOM     19  C   UNL     1       2.396   0.026  -0.021  0.00  0.00    +0.038 A 
ATOM     20  C   UNL     1       1.208  -0.680  -0.013  0.00  0.00    +0.008 A 
ATOM     21  C   UNL     1       0.002  -0.004   0.002  0.00  0.00    -0.027 A 
ATOM     22  F   UNL     1       3.540   2.101  -0.021  0.00  0.00    -0.205 F 
ENDBRANCH   1  21
TORSDOF 1
