REMARK  Name = ZINC65051296
REMARK  6 active torsions:
REMARK  status: ('A' for Active; 'I' for Inactive)
REMARK    1  A    between atoms: C_1  and  O_2
REMARK    2  A    between atoms: O_2  and  C_3
REMARK    3  A    between atoms: C_3  and  C_4
REMARK    4  A    between atoms: C_6  and  C_9
REMARK    5  A    between atoms: N_11  and  C_12
REMARK    6  A    between atoms: C_20  and  C_21
REMARK                            x       y       z     vdW  Elec       q    Type
REMARK                         _______ _______ _______ _____ _____    ______ ____
ROOT
ATOM      1  C   UNL     1      -0.716  -5.711   4.189  0.00  0.00    +0.092 A 
ATOM      2  C   UNL     1      -1.012  -5.518   5.614  0.00  0.00    +0.042 A 
ATOM      3  C   UNL     1      -1.553  -4.471   6.360  0.00  0.00    +0.013 A 
ATOM      4  C   UNL     1      -1.702  -4.607   7.712  0.00  0.00    +0.001 A 
ATOM      5  C   UNL     1      -1.320  -5.781   8.346  0.00  0.00    +0.004 A 
ATOM      6  C   UNL     1      -0.784  -6.827   7.626  0.00  0.00    +0.047 A 
ATOM      7  C   UNL     1      -0.622  -6.710   6.250  0.00  0.00    +0.138 A 
ATOM      8  O   UNL     1      -0.139  -7.542   5.307  0.00  0.00    -0.448 OA
ATOM      9  C   UNL     1      -0.191  -6.970   4.083  0.00  0.00    +0.211 A 
ENDROOT
BRANCH   9  10
ATOM     10  C   UNL     1       0.246  -7.598   2.838  0.00  0.00    +0.279 C 
ATOM     11  O   UNL     1       0.259  -6.957   1.803  0.00  0.00    -0.267 OA
ATOM     12  N   UNL     1       0.637  -8.888   2.836  0.00  0.00    -0.323 N 
ATOM     13  H   UNL     1       0.627  -9.399   3.660  0.00  0.00    +0.145 HD
ATOM     14  H   UNL     1       0.928  -9.306   2.010  0.00  0.00    +0.145 HD
ENDBRANCH   9  10
BRANCH   1  17
ATOM     15  C   UNL     1      -0.777  -3.483   3.383  0.00  0.00    +0.267 C 
ATOM     16  O   UNL     1      -0.548  -3.078   4.507  0.00  0.00    -0.268 OA
ATOM     17  N   UNL     1      -0.930  -4.803   3.160  0.00  0.00    -0.277 N 
ATOM     18  H   UNL     1      -1.189  -5.120   2.280  0.00  0.00    +0.155 HD
BRANCH  15  21
ATOM     19  C   UNL     1      -1.222  -2.026   0.080  0.00  0.00    +0.105 A 
ATOM     20  N   UNL     1      -1.138  -2.931   1.016  0.00  0.00    -0.237 NA
ATOM     21  C   UNL     1      -0.887  -2.530   2.266  0.00  0.00    +0.133 A 
ATOM     22  C   UNL     1      -0.739  -1.180   2.447  0.00  0.00    +0.080 A 
ATOM     23  S   UNL     1      -0.950  -0.582   0.892  0.00  0.00    -0.077 S 
BRANCH  19  24
ATOM     24  C   UNL     1      -1.493  -2.229  -1.389  0.00  0.00    +0.222 C 
BRANCH  24  26
ATOM     25  C   UNL     1      -3.269  -2.355  -2.994  0.00  0.00    +0.194 C 
ATOM     26  O   UNL     1      -2.901  -2.173  -1.625  0.00  0.00    -0.376 OA
ENDBRANCH  24  26
ENDBRANCH  19  24
ENDBRANCH  15  21
ENDBRANCH   1  17
TORSDOF 5
