REMARK  Name = ZINC16629035
REMARK  9 active torsions:
REMARK  status: ('A' for Active; 'I' for Inactive)
REMARK    1  A    between atoms: C_1  and  N_2
REMARK    2  A    between atoms: C_3  and  N_27
REMARK    3  A    between atoms: C_4  and  C_11
REMARK    4  A    between atoms: N_7  and  C_10
REMARK    5  A    between atoms: C_11  and  C_13
REMARK    6  A    between atoms: C_13  and  O_14
REMARK    7  A    between atoms: O_14  and  C_15
REMARK    8  A    between atoms: C_15  and  C_17
REMARK    9  A    between atoms: C_19  and  N_25
REMARK                            x       y       z     vdW  Elec       q    Type
REMARK                         _______ _______ _______ _____ _____    ______ ____
ROOT
ATOM      1  C   UNL     1      -2.572  -4.105   0.134  0.00  0.00    +0.312 C 
ENDROOT
BRANCH   1   2
ATOM      2  C   UNL     1      -2.480  -2.605   0.022  0.00  0.00    +0.209 C 
ATOM      3  O   UNL     1      -3.493  -1.938  -0.055  0.00  0.00    -0.288 OA
BRANCH   2   7
ATOM      4  C   UNL     1       0.265   1.450   0.033  0.00  0.00    +0.155 C 
ATOM      5  N   UNL     1       0.138  -0.010   0.013  0.00  0.00    -0.284 N 
ATOM      6  C   UNL     1      -1.106  -0.574   0.028  0.00  0.00    +0.116 A 
ATOM      7  C   UNL     1      -1.218  -1.975   0.008  0.00  0.00    +0.123 A 
ATOM      8  C   UNL     1       0.022  -2.762  -0.028  0.00  0.00    +0.269 A 
ATOM      9  O   UNL     1      -0.015  -3.978  -0.047  0.00  0.00    -0.267 OA
ATOM     10  N   UNL     1       1.202  -2.108  -0.040  0.00  0.00    -0.263 N 
ATOM     11  C   UNL     1       1.246  -0.766  -0.025  0.00  0.00    +0.333 A 
ATOM     12  O   UNL     1       2.330  -0.216  -0.042  0.00  0.00    -0.246 OA
ATOM     13  C   UNL     1       2.451  -2.872  -0.076  0.00  0.00    +0.157 C 
BRANCH   6  14
ATOM     14  N   UNL     1      -2.219   0.208   0.062  0.00  0.00    -0.344 N 
ATOM     15  H   UNL     1      -2.134   1.170   0.156  0.00  0.00    +0.144 HD
ATOM     16  H   UNL     1      -3.098  -0.196  -0.009  0.00  0.00    +0.144 HD
ENDBRANCH   6  14
ENDBRANCH   2   7
ENDBRANCH   1   2
BRANCH   1  17
ATOM     17  O   UNL     1      -3.946  -4.500   0.128  0.00  0.00    -0.452 OA
BRANCH  17  18
ATOM     18  C   UNL     1      -4.203  -5.819   0.222  0.00  0.00    +0.360 C 
ATOM     19  O   UNL     1      -3.288  -6.612   0.306  0.00  0.00    -0.243 OA
BRANCH  18  20
ATOM     20  C   UNL     1      -5.602  -6.301   0.221  0.00  0.00    +0.169 A 
ATOM     21  C   UNL     1      -5.861  -7.665   0.324  0.00  0.00    +0.095 A 
ATOM     22  C   UNL     1      -7.186  -8.103   0.323  0.00  0.00    +0.067 A 
ATOM     23  C   UNL     1      -8.198  -7.151   0.218  0.00  0.00    +0.100 A 
ATOM     24  C   UNL     1      -7.859  -5.810   0.119  0.00  0.00    +0.150 A 
ATOM     25  N   UNL     1      -6.600  -5.427   0.128  0.00  0.00    -0.226 NA
ATOM     26 CL   UNL     1      -9.115  -4.618  -0.012  0.00  0.00    -0.060 Cl
ATOM     27 CL   UNL     1      -9.864  -7.638   0.210  0.00  0.00    -0.078 Cl
ATOM     28 CL   UNL     1      -4.556  -8.803   0.451  0.00  0.00    -0.079 Cl
BRANCH  22  29
ATOM     29  N   UNL     1      -7.489  -9.459   0.423  0.00  0.00    -0.356 N 
ATOM     30  H   UNL     1      -6.775 -10.112   0.495  0.00  0.00    +0.142 HD
ATOM     31  H   UNL     1      -8.415  -9.751   0.421  0.00  0.00    +0.142 HD
ENDBRANCH  22  29
ENDBRANCH  18  20
ENDBRANCH  17  18
ENDBRANCH   1  17
TORSDOF 7
