REMARK  Name = ZINC37326371
REMARK  4 active torsions:
REMARK  status: ('A' for Active; 'I' for Inactive)
REMARK    1  A    between atoms: C_3  and  O_17
REMARK    2  A    between atoms: C_6  and  N_7
REMARK    3  A    between atoms: N_7  and  C_8
REMARK    4  A    between atoms: O_17  and  C_18
REMARK                            x       y       z     vdW  Elec       q    Type
REMARK                         _______ _______ _______ _____ _____    ______ ____
ROOT
ATOM      1  N   UNL     1      -1.200  -0.721   0.010  0.00  0.00    -0.333 N 
ATOM      2  H   UNL     1      -2.046  -0.247  -0.026  0.00  0.00    +0.147 HD
ENDROOT
BRANCH   1   3
ATOM      3  C   UNL     1      -1.180  -2.185   0.002  0.00  0.00    +0.157 C 
ATOM      4  C   UNL     1      -2.535  -2.716  -0.471  0.00  0.00    +0.032 C 
ATOM      5  C   UNL     1      -3.661  -1.817   0.007  0.00  0.00    +0.004 C 
ATOM      6  C   UNL     1      -3.852  -1.822   1.512  0.00  0.00    +0.019 C 
ATOM      7  C   UNL     1      -2.652  -1.185   2.216  0.00  0.00    +0.104 C 
ATOM      8  N   UNL     1      -1.628  -2.220   2.432  0.00  0.00    -0.314 N 
ATOM      9  C   UNL     1      -0.921  -2.698   1.403  0.00  0.00    +0.233 C 
ATOM     10  O   UNL     1      -0.075  -3.547   1.589  0.00  0.00    -0.274 OA
ATOM     11  H   UNL     1      -1.463  -2.556   3.326  0.00  0.00    +0.149 HD
ENDBRANCH   1   3
BRANCH   1  17
ATOM     12  C   UNL     1      -0.018   1.384   0.077  0.00  0.00    +0.026 A 
ATOM     13  C   UNL     1       1.168   2.090   0.137  0.00  0.00    +0.047 A 
ATOM     14  C   UNL     1       2.377   1.413   0.188  0.00  0.00    +0.127 A 
ATOM     15  C   UNL     1       2.397   0.026   0.181  0.00  0.00    +0.047 A 
ATOM     16  C   UNL     1       1.212  -0.682   0.121  0.00  0.00    +0.026 A 
ATOM     17  C   UNL     1       0.001  -0.004   0.070  0.00  0.00    +0.028 A 
BRANCH  14  18
ATOM     18  O   UNL     1       3.544   2.108   0.246  0.00  0.00    -0.434 OA
BRANCH  18  19
ATOM     19  C   UNL     1       4.752   1.347   0.297  0.00  0.00    +0.541 C 
ATOM     20  F   UNL     1       4.742   0.533   1.436  0.00  0.00    -0.166 F 
ATOM     21  F   UNL     1       4.847   0.547  -0.846  0.00  0.00    -0.166 F 
ENDBRANCH  18  19
ENDBRANCH  14  18
ENDBRANCH   1  17
TORSDOF 4
