REMARK  Name = ZINC40823425
REMARK  8 active torsions:
REMARK  status: ('A' for Active; 'I' for Inactive)
REMARK    1  A    between atoms: C_1  and  C_2
REMARK    2  A    between atoms: C_2  and  C_3
REMARK    3  A    between atoms: C_6  and  N_9
REMARK    4  A    between atoms: C_10  and  C_12
REMARK    5  A    between atoms: C_13  and  C_31
REMARK    6  A    between atoms: N_21  and  N_22
REMARK    7  A    between atoms: C_23  and  C_25
REMARK    8  A    between atoms: C_29  and  C_30
REMARK                            x       y       z     vdW  Elec       q    Type
REMARK                         _______ _______ _______ _____ _____    ______ ____
ROOT
ATOM      1  C   UNL     1      -7.407  -2.506  -1.097  0.00  0.00    +0.193 A 
ATOM      2  C   UNL     1      -8.201  -2.684  -2.196  0.00  0.00    +0.009 A 
ATOM      3  C   UNL     1      -9.459  -3.063  -1.713  0.00  0.00    +0.042 A 
ATOM      4  C   UNL     1      -9.380  -3.098  -0.341  0.00  0.00    +0.115 A 
ATOM      5  O   UNL     1      -8.139  -2.768   0.009  0.00  0.00    -0.454 OA
ATOM      6  C   UNL     1     -10.550  -3.463   0.539  0.00  0.00    +0.075 C 
ATOM      7  C   UNL     1     -11.853  -3.267  -0.241  0.00  0.00    +0.014 C 
ATOM      8  C   UNL     1     -11.802  -4.017  -1.576  0.00  0.00    +0.058 C 
ATOM      9  C   UNL     1     -10.710  -3.391  -2.432  0.00  0.00    +0.070 C 
ATOM     10  N   UNL     1     -10.865  -3.162  -3.700  0.00  0.00    -0.184 NA
ATOM     11  C   UNL     1      -7.801  -2.507  -3.639  0.00  0.00    +0.048 C 
ENDROOT
BRANCH   1  13
ATOM     12  N   UNL     1      -5.320  -1.966   0.042  0.00  0.00    -0.279 N 
ATOM     13  C   UNL     1      -5.996  -2.103  -1.115  0.00  0.00    +0.284 C 
ATOM     14  O   UNL     1      -5.437  -1.892  -2.175  0.00  0.00    -0.266 OA
ATOM     15  H   UNL     1      -5.741  -2.208   0.882  0.00  0.00    +0.155 HD
BRANCH  12  19
ATOM     16  C   UNL     1      -1.418  -0.509   0.014  0.00  0.00    -0.048 A 
ATOM     17  C   UNL     1      -1.796  -1.450   0.954  0.00  0.00    +0.005 A 
ATOM     18  C   UNL     1      -3.089  -1.935   0.966  0.00  0.00    +0.023 A 
ATOM     19  C   UNL     1      -4.010  -1.477   0.033  0.00  0.00    +0.034 A 
ATOM     20  C   UNL     1      -3.627  -0.532  -0.910  0.00  0.00    +0.023 A 
ATOM     21  C   UNL     1      -2.334  -0.047  -0.913  0.00  0.00    +0.005 A 
BRANCH  16  23
ATOM     22  C   UNL     1       0.085   1.250   0.907  0.00  0.00    +0.009 C 
ATOM     23  C   UNL     1      -0.006   0.018   0.004  0.00  0.00    +0.032 C 
ENDBRANCH  16  23
ENDBRANCH  12  19
ENDBRANCH   1  13
BRANCH  10  24
ATOM     24  N   UNL     1     -12.072  -3.494  -4.329  0.00  0.00    -0.203 N 
ATOM     25  C   UNL     1     -12.232  -3.256  -5.646  0.00  0.00    +0.267 C 
ATOM     26  O   UNL     1     -11.330  -2.753  -6.288  0.00  0.00    -0.268 OA
ATOM     27  H   UNL     1     -12.791  -3.895  -3.817  0.00  0.00    +0.178 HD
BRANCH  25  28
ATOM     28  C   UNL     1     -13.502  -3.605  -6.308  0.00  0.00    +0.079 A 
ATOM     29  C   UNL     1     -14.691  -4.208  -5.688  0.00  0.00    +0.054 A 
ATOM     30  C   UNL     1     -15.593  -4.341  -6.673  0.00  0.00    +0.196 A 
ATOM     31  O   UNL     1     -15.065  -3.880  -7.818  0.00  0.00    -0.467 OA
ATOM     32  C   UNL     1     -13.822  -3.430  -7.623  0.00  0.00    +0.114 A 
ATOM     33  C   UNL     1     -12.924  -2.835  -8.677  0.00  0.00    +0.087 C 
ENDBRANCH  25  28
ENDBRANCH  10  24
TORSDOF 5
