REMARK  Name = ZINC16009689
REMARK  6 active torsions:
REMARK  status: ('A' for Active; 'I' for Inactive)
REMARK    1  A    between atoms: C_1  and  C_2
REMARK    2  A    between atoms: C_16  and  C_19
REMARK    3  A    between atoms: C_19  and  C_21
REMARK    4  A    between atoms: C_19  and  O_22
REMARK    5  A    between atoms: N_25  and  C_28
REMARK    6  A    between atoms: C_28  and  C_29
REMARK                            x       y       z     vdW  Elec       q    Type
REMARK                         _______ _______ _______ _____ _____    ______ ____
ROOT
ATOM      1  C   UNL     1       0.108   1.379  -0.323  0.00  0.00    +0.046 C 
ATOM      2  C   UNL     1       0.051  -0.124  -0.232  0.00  0.00    -0.028 A 
ATOM      3  C   UNL     1      -0.077  -0.878  -1.381  0.00  0.00    +0.025 A 
ATOM      4  C   UNL     1      -0.131  -2.258  -1.308  0.00  0.00    +0.042 A 
ATOM      5  C   UNL     1      -0.056  -2.886  -0.076  0.00  0.00    +0.027 A 
ATOM      6  C   UNL     1       0.073  -2.138   1.072  0.00  0.00    +0.005 A 
ATOM      7  C   UNL     1       0.133  -0.748   1.010  0.00  0.00    +0.042 A 
ATOM      8  N   UNL     1       0.267  -0.213   2.293  0.00  0.00    -0.283 N 
ATOM      9  C   UNL     1       0.308  -1.170   3.241  0.00  0.00    +0.243 C 
ATOM     10  O   UNL     1       0.418  -1.001   4.437  0.00  0.00    -0.273 OA
ATOM     11  C   UNL     1       0.181  -2.489   2.529  0.00  0.00    +0.136 C 
ATOM     12  C   UNL     1      -1.041  -3.282   3.008  0.00  0.00    +0.123 C 
ATOM     13  C   UNL     1      -0.582  -4.766   2.970  0.00  0.00    +0.109 C 
ATOM     14  C   UNL     1       0.869  -4.720   2.447  0.00  0.00    +0.096 C 
ATOM     15  N   UNL     1       1.349  -3.349   2.792  0.00  0.00    -0.293 NA
ATOM     16  C   UNL     1      -0.591  -5.173   4.426  0.00  0.00    +0.228 C 
ATOM     17  O   UNL     1      -0.286  -6.266   4.849  0.00  0.00    -0.275 OA
ATOM     18  N   UNL     1      -0.987  -4.136   5.173  0.00  0.00    -0.237 N 
ATOM     19  C   UNL     1      -1.277  -3.013   4.477  0.00  0.00    +0.229 C 
ATOM     20  O   UNL     1      -1.660  -1.962   4.944  0.00  0.00    -0.275 OA
ATOM     21 CL   UNL     1      -0.293  -3.201  -2.757  0.00  0.00    -0.084 Cl
ATOM     22  H   UNL     1       0.324   0.737   2.481  0.00  0.00    +0.155 HD
ATOM     23  H   UNL     1       2.130  -3.086   2.209  0.00  0.00    +0.124 HD
ENDROOT
BRANCH  14  24
ATOM     24  C   UNL     1       1.726  -5.766   3.162  0.00  0.00    +0.129 C 
ATOM     25  C   UNL     1       1.249  -7.167   2.775  0.00  0.00    +0.039 C 
BRANCH  24  26
ATOM     26  O   UNL     1       3.093  -5.605   2.778  0.00  0.00    -0.390 OA
ATOM     27  H   UNL     1       3.250  -5.708   1.829  0.00  0.00    +0.210 HD
ENDBRANCH  24  26
ENDBRANCH  14  24
BRANCH  18  28
ATOM     28  C   UNL     1      -1.105  -4.211   6.632  0.00  0.00    +0.151 C 
BRANCH  28  29
ATOM     29  C   UNL     1       0.204  -3.814   7.263  0.00  0.00    -0.029 A 
ATOM     30  C   UNL     1       1.167  -4.774   7.517  0.00  0.00    +0.008 A 
ATOM     31  C   UNL     1       2.369  -4.411   8.095  0.00  0.00    +0.038 A 
ATOM     32  C   UNL     1       2.608  -3.086   8.420  0.00  0.00    +0.123 A 
ATOM     33  C   UNL     1       1.644  -2.127   8.164  0.00  0.00    +0.038 A 
ATOM     34  C   UNL     1       0.445  -2.491   7.581  0.00  0.00    +0.008 A 
ATOM     35  F   UNL     1       3.783  -2.731   8.985  0.00  0.00    -0.205 F 
ENDBRANCH  28  29
ENDBRANCH  18  28
TORSDOF 4
