REMARK  Name = ZINC08658507
REMARK  6 active torsions:
REMARK  status: ('A' for Active; 'I' for Inactive)
REMARK    1  A    between atoms: C_1  and  C_2
REMARK    2  A    between atoms: N_10  and  C_14
REMARK    3  A    between atoms: C_14  and  C_15
REMARK    4  A    between atoms: N_17  and  C_18
REMARK    5  A    between atoms: C_18  and  C_19
REMARK    6  A    between atoms: N_21  and  C_22
REMARK                            x       y       z     vdW  Elec       q    Type
REMARK                         _______ _______ _______ _____ _____    ______ ____
ROOT
ATOM      1  C   UNL     1      -0.014   1.211   0.046  0.00  0.00    +0.231 C 
ATOM      2  O   UNL     1       0.002  -0.002   0.044  0.00  0.00    -0.274 OA
ATOM      3  N   UNL     1       1.144   1.900   0.027  0.00  0.00    -0.305 N 
ATOM      4  H   UNL     1       1.131   2.870   0.028  0.00  0.00    +0.149 HD
ENDROOT
BRANCH   1   5
ATOM      5  C   UNL     1      -1.329   1.947   0.062  0.00  0.00    +0.213 C 
BRANCH   5  15
ATOM      6  C   UNL     1      -7.319  -3.317   0.707  0.00  0.00    +0.007 C 
ATOM      7  C   UNL     1      -6.230  -2.367   1.209  0.00  0.00    -0.014 C 
ATOM      8  C   UNL     1      -4.869  -2.829   0.684  0.00  0.00    +0.006 C 
ATOM      9  C   UNL     1      -3.778  -1.885   1.196  0.00  0.00    +0.035 C 
ATOM     10  C   UNL     1      -4.068  -0.465   0.723  0.00  0.00    +0.113 C 
ATOM     11  C   UNL     1      -5.433   0.001   1.218  0.00  0.00    +0.035 C 
ATOM     12  C   UNL     1      -6.517  -0.951   0.706  0.00  0.00    +0.006 C 
ATOM     13  C   UNL     1      -2.986   0.479   1.196  0.00  0.00    +0.247 C 
ATOM     14  O   UNL     1      -2.682   0.731   2.342  0.00  0.00    -0.273 OA
ATOM     15  N   UNL     1      -2.430   0.980   0.074  0.00  0.00    -0.215 N 
ATOM     16  C   UNL     1      -3.012   0.489  -1.027  0.00  0.00    +0.310 C 
ATOM     17  O   UNL     1      -2.687   0.796  -2.157  0.00  0.00    -0.252 OA
ATOM     18  N   UNL     1      -3.996  -0.385  -0.741  0.00  0.00    -0.285 N 
ATOM     19  H   UNL     1      -4.551  -0.863  -1.377  0.00  0.00    +0.151 HD
ENDBRANCH   5  15
ENDBRANCH   1   5
BRANCH   3  20
ATOM     20  C   UNL     1       2.422   1.184   0.005  0.00  0.00    +0.200 C 
BRANCH  20  21
ATOM     21  C   UNL     1       3.554   2.179  -0.013  0.00  0.00    +0.234 C 
ATOM     22  O   UNL     1       3.317   3.368  -0.008  0.00  0.00    -0.274 OA
ATOM     23  N   UNL     1       4.831   1.746  -0.035  0.00  0.00    -0.282 N 
ATOM     24  H   UNL     1       5.022   0.797   0.026  0.00  0.00    +0.155 HD
BRANCH  23  25
ATOM     25  C   UNL     1       5.881   2.667  -0.146  0.00  0.00    +0.072 A 
ATOM     26  C   UNL     1       5.777   3.915   0.453  0.00  0.00    +0.029 A 
ATOM     27  C   UNL     1       6.814   4.822   0.347  0.00  0.00    +0.043 A 
ATOM     28  C   UNL     1       7.955   4.491  -0.364  0.00  0.00    +0.161 A 
ATOM     29  C   UNL     1       8.061   3.248  -0.968  0.00  0.00    +0.195 A 
ATOM     30  C   UNL     1       7.026   2.335  -0.860  0.00  0.00    +0.182 A 
ATOM     31  F   UNL     1       7.128   1.123  -1.448  0.00  0.00    -0.200 F 
ATOM     32  F   UNL     1       9.175   2.927  -1.663  0.00  0.00    -0.199 F 
ATOM     33  F   UNL     1       8.966   5.381  -0.470  0.00  0.00    -0.202 F 
ENDBRANCH  23  25
ENDBRANCH  20  21
ENDBRANCH   3  20
TORSDOF 5
