REMARK  Name = ZINC12484048
REMARK  6 active torsions:
REMARK  status: ('A' for Active; 'I' for Inactive)
REMARK    1  A    between atoms: C_4  and  O_29
REMARK    2  A    between atoms: C_5  and  C_7
REMARK    3  A    between atoms: C_7  and  N_8
REMARK    4  A    between atoms: N_8  and  C_9
REMARK    5  A    between atoms: C_18  and  N_23
REMARK    6  A    between atoms: C_20  and  O_22
REMARK                            x       y       z     vdW  Elec       q    Type
REMARK                         _______ _______ _______ _____ _____    ______ ____
ROOT
ATOM      1  C   UNL     1       0.919  -0.504   1.124  0.00  0.00    -0.009 C 
ATOM      2  C   UNL     1       2.280   0.201   0.993  0.00  0.00    +0.136 C 
ATOM      3  C   UNL     1       2.686   0.168  -0.498  0.00  0.00    +0.193 C 
ATOM      4  O   UNL     1       2.137   1.374  -1.059  0.00  0.00    -0.347 OA
ATOM      5  C   UNL     1       1.429   2.044  -0.001  0.00  0.00    +0.270 C 
ATOM      6  O   UNL     1       2.054   1.613   1.228  0.00  0.00    -0.346 OA
ATOM      7  C   UNL     1      -0.019   1.528   0.010  0.00  0.00    +0.140 C 
ATOM      8  C   UNL     1       0.002  -0.004   0.002  0.00  0.00    +0.125 C 
ENDROOT
BRANCH   7   9
ATOM      9  N   UNL     1      -0.702   2.005   1.221  0.00  0.00    -0.288 NA
ATOM     10  C   UNL     1      -2.058   1.446   1.314  0.00  0.00    +0.113 C 
ATOM     11  C   UNL     1      -2.711   1.919   2.616  0.00  0.00    +0.175 C 
ATOM     12  O   UNL     1      -2.710   3.349   2.651  0.00  0.00    -0.377 OA
ATOM     13  C   UNL     1      -1.405   3.926   2.563  0.00  0.00    +0.175 C 
ATOM     14  C   UNL     1      -0.740   3.474   1.260  0.00  0.00    +0.113 C 
ENDBRANCH   7   9
BRANCH   1  15
ATOM     15  N   UNL     1       0.322  -0.187   2.428  0.00  0.00    +0.387 N 
ATOM     16  H   UNL     1      -0.771  -0.267   2.344  0.00  0.00    -0.085 HD
ATOM     17  H   UNL     1       0.595   0.844   2.699  0.00  0.00    -0.085 HD
BRANCH  15  18
ATOM     18  C   UNL     1       0.803  -1.109   3.465  0.00  0.00    -0.042 C 
BRANCH  18  23
ATOM     19  C   UNL     1       0.298   0.310   6.927  0.00  0.00    +0.000 A 
ATOM     20  C   UNL     1      -0.992  -0.099   7.212  0.00  0.00    +0.004 A 
ATOM     21  C   UNL     1      -1.704  -0.835   6.285  0.00  0.00    +0.045 A 
ATOM     22  C   UNL     1      -1.126  -1.160   5.066  0.00  0.00    +0.118 A 
ATOM     23  C   UNL     1       0.170  -0.754   4.786  0.00  0.00    -0.023 A 
ATOM     24  C   UNL     1       0.878  -0.018   5.716  0.00  0.00    +0.005 A 
BRANCH  22  25
ATOM     25  O   UNL     1      -1.827  -1.880   4.151  0.00  0.00    -0.507 OA
ATOM     26  H   UNL     1      -1.368  -2.137   3.185  0.00  0.00    +0.292 HD
ENDBRANCH  22  25
ENDBRANCH  18  23
ENDBRANCH  15  18
ENDBRANCH   1  15
BRANCH   8  27
ATOM     27  O   UNL     1       0.492  -0.468  -1.258  0.00  0.00    -0.392 OA
ATOM     28  H   UNL     1      -0.040  -0.207  -2.184  0.00  0.00    +0.210 HD
ENDBRANCH   8  27
TORSDOF 6
