REMARK  Name = ZINC14585120
REMARK  8 active torsions:
REMARK  status: ('A' for Active; 'I' for Inactive)
REMARK    1  A    between atoms: C_1  and  C_2
REMARK    2  A    between atoms: C_2  and  N_3
REMARK    3  A    between atoms: N_3  and  C_4
REMARK    4  A    between atoms: C_5  and  N_20
REMARK    5  A    between atoms: N_6  and  C_13
REMARK    6  A    between atoms: C_13  and  C_14
REMARK    7  A    between atoms: C_21  and  C_23
REMARK    8  A    between atoms: C_23  and  N_24
REMARK                            x       y       z     vdW  Elec       q    Type
REMARK                         _______ _______ _______ _____ _____    ______ ____
ROOT
ATOM      1  C   UNL     1       0.131  -2.459   2.956  0.00  0.00    +0.140 A 
ATOM      2  C   UNL     1       1.035  -1.960   3.871  0.00  0.00    +0.128 A 
ATOM      3  N   UNL     1       0.942  -2.348   5.188  0.00  0.00    -0.276 N 
ATOM      4  C   UNL     1      -0.019  -3.204   5.578  0.00  0.00    +0.331 A 
ATOM      5  O   UNL     1      -0.085  -3.536   6.746  0.00  0.00    -0.246 OA
ATOM      6  N   UNL     1      -0.909  -3.701   4.700  0.00  0.00    -0.273 N 
ATOM      7  H   UNL     1      -1.611  -4.340   5.016  0.00  0.00    +0.173 HD
ATOM      8  C   UNL     1      -0.865  -3.349   3.401  0.00  0.00    +0.277 A 
ATOM      9  O   UNL     1      -1.679  -3.801   2.614  0.00  0.00    -0.266 OA
ENDROOT
BRANCH   1  10
ATOM     10  N   UNL     1       0.200  -2.079   1.599  0.00  0.00    -0.263 N 
ATOM     11  C   UNL     1      -0.009  -0.793   1.246  0.00  0.00    +0.238 C 
ATOM     12  O   UNL     1      -0.338   0.020   2.085  0.00  0.00    -0.274 OA
BRANCH  10  14
ATOM     13  C   UNL     1       2.012  -3.153   0.355  0.00  0.00    +0.025 C 
ATOM     14  C   UNL     1       0.499  -3.081   0.572  0.00  0.00    +0.110 C 
ENDBRANCH  10  14
BRANCH  11  15
ATOM     15  C   UNL     1       0.167  -0.367  -0.188  0.00  0.00    +0.212 C 
BRANCH  15  16
ATOM     16  N   UNL     1      -0.116   1.065  -0.310  0.00  0.00    -0.233 N 
ATOM     17  C   UNL     1       0.827   2.007  -0.170  0.00  0.00    +0.226 C 
ATOM     18  O   UNL     1       1.986   1.806   0.123  0.00  0.00    -0.275 OA
ATOM     19  C   UNL     1       0.203   3.372  -0.440  0.00  0.00    +0.087 C 
ATOM     20  C   UNL     1       0.861   3.948  -1.677  0.00  0.00    +0.013 C 
ATOM     21  C   UNL     1      -0.063   4.814  -2.503  0.00  0.00    +0.001 C 
ATOM     22  C   UNL     1      -1.288   3.979  -2.900  0.00  0.00    +0.001 C 
ATOM     23  C   UNL     1      -2.083   3.695  -1.630  0.00  0.00    +0.013 C 
ATOM     24  C   UNL     1      -1.270   3.050  -0.555  0.00  0.00    +0.087 C 
ATOM     25  C   UNL     1      -1.342   1.545  -0.578  0.00  0.00    +0.226 C 
ATOM     26  O   UNL     1      -2.333   0.883  -0.798  0.00  0.00    -0.275 OA
ENDBRANCH  15  16
ENDBRANCH  11  15
ENDBRANCH   1  10
BRANCH   2  27
ATOM     27  N   UNL     1       2.017  -1.084   3.473  0.00  0.00    -0.343 N 
ATOM     28  H   UNL     1       2.060  -0.792   2.549  0.00  0.00    +0.144 HD
ATOM     29  H   UNL     1       2.666  -0.758   4.115  0.00  0.00    +0.144 HD
ENDBRANCH   2  27
BRANCH   3  30
ATOM     30  C   UNL     1       1.894  -1.825   6.170  0.00  0.00    +0.163 C 
BRANCH  30  31
ATOM     31  C   UNL     1       1.352  -0.553   6.768  0.00  0.00    -0.028 A 
ATOM     32  C   UNL     1       1.647   0.665   6.186  0.00  0.00    +0.005 A 
ATOM     33  C   UNL     1       1.146   1.832   6.731  0.00  0.00    +0.000 A 
ATOM     34  C   UNL     1       0.357   1.782   7.866  0.00  0.00    +0.000 A 
ATOM     35  C   UNL     1       0.067   0.564   8.452  0.00  0.00    +0.000 A 
ATOM     36  C   UNL     1       0.564  -0.603   7.903  0.00  0.00    +0.005 A 
ENDBRANCH  30  31
ENDBRANCH   3  30
TORSDOF 7
