REMARK  Name = ZINC56739108
REMARK  11 active torsions:
REMARK  status: ('A' for Active; 'I' for Inactive)
REMARK    1  A    between atoms: C_1  and  C_2
REMARK    2  A    between atoms: C_2  and  C_3
REMARK    3  A    between atoms: C_3  and  C_5
REMARK    4  A    between atoms: C_3  and  N_6
REMARK    5  A    between atoms: C_7  and  C_9
REMARK    6  A    between atoms: C_9  and  C_10
REMARK    7  A    between atoms: C_10  and  N_11
REMARK    8  A    between atoms: N_14  and  C_15
REMARK    9  A    between atoms: C_19  and  C_21
REMARK   10  A    between atoms: C_23  and  C_27
REMARK   11  A    between atoms: C_24  and  C_26
REMARK                            x       y       z     vdW  Elec       q    Type
REMARK                         _______ _______ _______ _____ _____    ______ ____
ROOT
ATOM      1  N   UNL     1      -6.323   0.797  -3.554  0.00  0.00    -0.299 N 
ATOM      2  C   UNL     1      -7.666   0.898  -3.591  0.00  0.00    +0.304 C 
ATOM      3  O   UNL     1      -8.320   0.668  -2.592  0.00  0.00    -0.253 OA
ATOM      4  N   UNL     1      -8.285   1.255  -4.734  0.00  0.00    -0.269 N 
ATOM      5  H   UNL     1      -5.801   0.981  -4.351  0.00  0.00    +0.150 HD
ATOM      6  H   UNL     1      -7.761   1.504  -5.512  0.00  0.00    +0.156 HD
ENDROOT
BRANCH   4   7
ATOM      7  C   UNL     1      -9.683   1.267  -4.799  0.00  0.00    +0.035 A 
ATOM      8  C   UNL     1     -10.326   0.903  -5.976  0.00  0.00    +0.023 A 
ATOM      9  C   UNL     1     -11.707   0.912  -6.046  0.00  0.00    +0.003 A 
ATOM     10  C   UNL     1     -12.455   1.283  -4.947  0.00  0.00    +0.013 A 
ATOM     11  C   UNL     1     -11.818   1.650  -3.760  0.00  0.00    +0.039 A 
ATOM     12  C   UNL     1     -10.425   1.635  -3.689  0.00  0.00    +0.036 A 
BRANCH  11  13
ATOM     13  C   UNL     1     -12.617   2.048  -2.582  0.00  0.00    +0.228 A 
ATOM     14  N   UNL     1     -12.135   2.417  -1.419  0.00  0.00    -0.214 NA
ATOM     15  C   UNL     1     -13.160   2.702  -0.601  0.00  0.00    +0.080 A 
ATOM     16  C   UNL     1     -14.301   2.501  -1.284  0.00  0.00    +0.125 A 
ATOM     17  O   UNL     1     -13.959   2.098  -2.524  0.00  0.00    -0.440 OA
ATOM     18  C   UNL     1     -15.701   2.696  -0.763  0.00  0.00    +0.088 C 
ATOM     19  C   UNL     1     -13.052   3.164   0.830  0.00  0.00    +0.069 C 
ENDBRANCH  11  13
ENDBRANCH   4   7
BRANCH   1  20
ATOM     20  C   UNL     1      -5.651   0.410  -2.312  0.00  0.00    +0.115 C 
BRANCH  20  21
ATOM     21  C   UNL     1      -4.138   0.370  -2.541  0.00  0.00    +0.114 C 
BRANCH  21  23
ATOM     22  N   UNL     1      -2.104  -0.130  -1.226  0.00  0.00    -0.313 N 
ATOM     23  C   UNL     1      -3.447  -0.028  -1.262  0.00  0.00    +0.215 C 
ATOM     24  O   UNL     1      -4.100  -0.258  -0.266  0.00  0.00    -0.276 OA
ATOM     25  H   UNL     1      -1.582   0.054  -2.023  0.00  0.00    +0.149 HD
BRANCH  22  26
ATOM     26  C   UNL     1      -1.431  -0.517   0.016  0.00  0.00    +0.070 C 
ATOM     27  C   UNL     1      -1.403  -2.043   0.126  0.00  0.00    +0.028 C 
BRANCH  26  29
ATOM     28  C   UNL     1      -0.029   1.550   0.027  0.00  0.00    +0.005 C 
ATOM     29  C   UNL     1       0.001   0.021   0.011  0.00  0.00    +0.018 C 
ENDBRANCH  26  29
ENDBRANCH  22  26
ENDBRANCH  21  23
ENDBRANCH  20  21
ENDBRANCH   1  20
TORSDOF 7
