REMARK  Name = ZINC39012633
REMARK  8 active torsions:
REMARK  status: ('A' for Active; 'I' for Inactive)
REMARK    1  A    between atoms: C_4  and  C_7
REMARK    2  A    between atoms: C_12  and  N_13
REMARK    3  A    between atoms: C_14  and  C_16
REMARK    4  A    between atoms: C_16  and  S_17
REMARK    5  A    between atoms: S_17  and  C_18
REMARK    6  A    between atoms: C_22  and  C_26
REMARK    7  A    between atoms: N_24  and  N_25
REMARK    8  A    between atoms: C_29  and  C_32
REMARK                            x       y       z     vdW  Elec       q    Type
REMARK                         _______ _______ _______ _____ _____    ______ ____
ROOT
ATOM      1  C   UNL     1       1.223  -5.404   5.587  0.00  0.00    +0.214 C 
ATOM      2  N   UNL     1       0.005  -5.644   4.769  0.00  0.00    -0.228 NA
ATOM      3  N   UNL     1      -1.109  -5.375   5.681  0.00  0.00    -0.234 NA
ATOM      4  C   UNL     1      -0.594  -4.477   6.734  0.00  0.00    +0.185 C 
ATOM      5  N   UNL     1       0.837  -4.237   6.425  0.00  0.00    -0.197 NA
ATOM      6  H   UNL     1      -0.022  -5.026   3.971  0.00  0.00    +0.143 HD
ATOM      7  H   UNL     1      -1.883  -4.952   5.191  0.00  0.00    +0.143 HD
ENDROOT
BRANCH   4   8
ATOM      8  C   UNL     1      -1.365  -3.155   6.719  0.00  0.00    +0.187 C 
ATOM      9  C   UNL     1      -2.825  -3.383   7.069  0.00  0.00    +0.034 C 
ATOM     10  C   UNL     1      -3.487  -2.975   5.969  0.00  0.00    +0.091 C 
ATOM     11  N   UNL     1      -2.614  -2.540   5.023  0.00  0.00    -0.154 NA
ATOM     12  N   UNL     1      -1.425  -2.603   5.356  0.00  0.00    -0.176 NA
BRANCH  10  13
ATOM     13  C   UNL     1      -4.963  -2.999   5.812  0.00  0.00    +0.002 A 
ATOM     14  C   UNL     1      -5.769  -3.462   6.850  0.00  0.00    +0.010 A 
ATOM     15  C   UNL     1      -7.141  -3.482   6.699  0.00  0.00    +0.001 A 
ATOM     16  C   UNL     1      -7.715  -3.042   5.520  0.00  0.00    +0.000 A 
ATOM     17  C   UNL     1      -6.920  -2.582   4.486  0.00  0.00    +0.001 A 
ATOM     18  C   UNL     1      -5.547  -2.553   4.628  0.00  0.00    +0.010 A 
ENDBRANCH  10  13
ENDBRANCH   4   8
BRANCH   5  19
ATOM     19  N   UNL     1       1.634  -4.181   7.639  0.00  0.00    -0.264 NA
ATOM     20  H   UNL     1       2.616  -4.099   7.423  0.00  0.00    +0.137 HD
ATOM     21  H   UNL     1       1.331  -3.427   8.236  0.00  0.00    +0.137 HD
ENDBRANCH   5  19
BRANCH   1  22
ATOM     22  S   UNL     1       2.638  -4.995   4.529  0.00  0.00    -0.115 S 
BRANCH  22  23
ATOM     23  C   UNL     1       2.070  -3.565   3.569  0.00  0.00    +0.168 C 
BRANCH  23  25
ATOM     24  N   UNL     1       2.968  -2.064   1.819  0.00  0.00    -0.284 N 
ATOM     25  C   UNL     1       3.166  -3.118   2.636  0.00  0.00    +0.227 C 
ATOM     26  O   UNL     1       4.226  -3.707   2.621  0.00  0.00    -0.275 OA
ATOM     27  H   UNL     1       2.146  -1.553   1.877  0.00  0.00    +0.155 HD
BRANCH  24  33
ATOM     28  C   UNL     1       3.577  -1.201  -0.362  0.00  0.00    +0.003 A 
ATOM     29  C   UNL     1       4.562  -0.844  -1.280  0.00  0.00    +0.010 A 
ATOM     30  C   UNL     1       5.894  -0.997  -0.956  0.00  0.00    +0.001 A 
ATOM     31  C   UNL     1       6.258  -1.505   0.279  0.00  0.00    +0.002 A 
ATOM     32  C   UNL     1       5.291  -1.863   1.198  0.00  0.00    +0.024 A 
ATOM     33  C   UNL     1       3.948  -1.708   0.889  0.00  0.00    +0.041 A 
BRANCH  28  37
ATOM     34  C   UNL     1      -0.532  -0.735  -1.346  0.00  0.00    +0.000 A 
ATOM     35  C   UNL     1       0.345   0.317  -1.538  0.00  0.00    +0.001 A 
ATOM     36  C   UNL     1       1.681   0.171  -1.220  0.00  0.00    +0.008 A 
ATOM     37  C   UNL     1       2.144  -1.038  -0.705  0.00  0.00    -0.016 A 
ATOM     38  C   UNL     1       1.255  -2.095  -0.514  0.00  0.00    +0.008 A 
ATOM     39  C   UNL     1      -0.078  -1.938  -0.836  0.00  0.00    +0.001 A 
ENDBRANCH  28  37
ENDBRANCH  24  33
ENDBRANCH  23  25
ENDBRANCH  22  23
ENDBRANCH   1  22
TORSDOF 8
