REMARK  Name = ZINC65253651
REMARK  10 active torsions:
REMARK  status: ('A' for Active; 'I' for Inactive)
REMARK    1  A    between atoms: C_1  and  C_2
REMARK    2  A    between atoms: C_2  and  C_3
REMARK    3  A    between atoms: C_3  and  C_4
REMARK    4  A    between atoms: C_4  and  N_5
REMARK    5  A    between atoms: C_6  and  C_8
REMARK    6  A    between atoms: N_12  and  C_14
REMARK    7  A    between atoms: C_14  and  C_15
REMARK    8  A    between atoms: C_14  and  C_16
REMARK    9  A    between atoms: N_22  and  C_23
REMARK   10  A    between atoms: N_22  and  C_24
REMARK                            x       y       z     vdW  Elec       q    Type
REMARK                         _______ _______ _______ _____ _____    ______ ____
ROOT
ATOM      1  C   UNL     1      -4.564  -4.370   0.048  0.00  0.00    +0.089 C 
ATOM      2  C   UNL     1      -5.394  -3.860  -1.133  0.00  0.00    +0.015 C 
ATOM      3  C   UNL     1      -6.786  -4.494  -1.081  0.00  0.00    +0.016 C 
ATOM      4  C   UNL     1      -6.648  -6.018  -1.105  0.00  0.00    +0.085 C 
ATOM      5  N   UNL     1      -5.847  -6.456   0.045  0.00  0.00    -0.292 NA
ATOM      6  C   UNL     1      -4.490  -5.897  -0.009  0.00  0.00    +0.097 C 
ENDROOT
BRANCH   1   8
ATOM      7  N   UNL     1      -2.992  -2.460   0.003  0.00  0.00    -0.315 N 
ATOM      8  C   UNL     1      -3.172  -3.796  -0.030  0.00  0.00    +0.217 C 
ATOM      9  O   UNL     1      -2.216  -4.535  -0.121  0.00  0.00    -0.275 OA
ATOM     10  H   UNL     1      -3.757  -1.869   0.076  0.00  0.00    +0.149 HD
BRANCH   7  11
ATOM     11  C   UNL     1      -1.639  -1.902  -0.072  0.00  0.00    +0.104 C 
BRANCH  11  12
ATOM     12  C   UNL     1      -1.714  -0.375  -0.016  0.00  0.00    +0.018 C 
BRANCH  12  14
ATOM     13  C   UNL     1      -0.376   1.735  -0.038  0.00  0.00    +0.004 C 
ATOM     14  C   UNL     1      -0.301   0.208  -0.095  0.00  0.00    -0.002 C 
ENDBRANCH  12  14
ENDBRANCH  11  12
ENDBRANCH   7  11
ENDBRANCH   1   8
BRANCH   5  15
ATOM     15  C   UNL     1      -5.809  -7.922   0.133  0.00  0.00    +0.122 C 
ATOM     16  C   UNL     1      -7.230  -8.459   0.312  0.00  0.00    +0.032 C 
BRANCH  15  17
ATOM     17  C   UNL     1      -4.964  -8.334   1.311  0.00  0.00    +0.153 A 
ATOM     18  N   UNL     1      -5.143  -7.753   2.485  0.00  0.00    -0.198 NA
ATOM     19  C   UNL     1      -4.399  -8.114   3.528  0.00  0.00    +0.217 A 
ATOM     20  N   UNL     1      -3.476  -9.059   3.388  0.00  0.00    -0.181 NA
ATOM     21  C   UNL     1      -3.299  -9.641   2.207  0.00  0.00    +0.222 A 
ATOM     22  N   UNL     1      -4.050  -9.278   1.169  0.00  0.00    -0.198 NA
ATOM     23  N   UNL     1      -2.341 -10.623   2.056  0.00  0.00    -0.306 N 
ATOM     24  C   UNL     1      -1.519 -11.025   3.200  0.00  0.00    +0.132 C 
ATOM     25  C   UNL     1      -2.147 -11.263   0.753  0.00  0.00    +0.132 C 
ATOM     26  N   UNL     1      -4.586  -7.507   4.753  0.00  0.00    -0.327 N 
ATOM     27  H   UNL     1      -5.260  -6.817   4.854  0.00  0.00    +0.145 HD
ATOM     28  H   UNL     1      -4.044  -7.771   5.513  0.00  0.00    +0.145 HD
ENDBRANCH  15  17
ENDBRANCH   5  15
TORSDOF 6
