REMARK  Name = ZINC39760870
REMARK  12 active torsions:
REMARK  status: ('A' for Active; 'I' for Inactive)
REMARK    1  A    between atoms: C_1  and  C_2
REMARK    2  A    between atoms: C_2  and  C_3
REMARK    3  A    between atoms: C_3  and  C_5
REMARK    4  A    between atoms: C_3  and  S_17
REMARK    5  A    between atoms: N_7  and  C_8
REMARK    6  A    between atoms: C_11  and  N_14
REMARK    7  A    between atoms: S_17  and  C_18
REMARK    8  A    between atoms: C_21  and  C_29
REMARK    9  A    between atoms: N_22  and  C_23
REMARK   10  A    between atoms: C_29  and  C_31
REMARK   11  A    between atoms: C_29  and  N_32
REMARK   12  A    between atoms: C_33  and  C_35
REMARK                            x       y       z     vdW  Elec       q    Type
REMARK                         _______ _______ _______ _____ _____    ______ ____
ROOT
ATOM      1  C   UNL     1      -1.709   1.856  -1.298  0.00  0.00    +0.197 A 
ATOM      2  N   UNL     1      -0.983   2.445  -0.377  0.00  0.00    -0.122 NA
ATOM      3  N   UNL     1      -1.019   3.719  -0.538  0.00  0.00    -0.131 NA
ATOM      4  C   UNL     1      -1.765   4.021  -1.564  0.00  0.00    +0.159 A 
ATOM      5  N   UNL     1      -2.228   2.844  -2.090  0.00  0.00    -0.273 N 
ENDROOT
BRANCH   5   6
ATOM      6  C   UNL     1      -3.062   2.685  -3.207  0.00  0.00    +0.050 A 
ATOM      7  C   UNL     1      -2.610   3.046  -4.469  0.00  0.00    +0.026 A 
ATOM      8  C   UNL     1      -3.433   2.889  -5.566  0.00  0.00    +0.002 A 
ATOM      9  C   UNL     1      -4.706   2.372  -5.409  0.00  0.00    +0.000 A 
ATOM     10  C   UNL     1      -5.159   2.011  -4.153  0.00  0.00    +0.002 A 
ATOM     11  C   UNL     1      -4.338   2.162  -3.053  0.00  0.00    +0.026 A 
ENDBRANCH   5   6
BRANCH   4  12
ATOM     12  C   UNL     1      -2.058   5.407  -2.078  0.00  0.00    +0.139 C 
ATOM     13  C   UNL     1      -3.060   6.094  -1.149  0.00  0.00    +0.036 C 
BRANCH  12  14
ATOM     14  N   UNL     1      -0.817   6.185  -2.120  0.00  0.00    -0.299 N 
ATOM     15  C   UNL     1      -0.701   7.221  -2.973  0.00  0.00    +0.280 C 
ATOM     16  O   UNL     1      -1.626   7.511  -3.709  0.00  0.00    -0.267 OA
ATOM     17  H   UNL     1      -0.080   5.954  -1.534  0.00  0.00    +0.150 HD
BRANCH  15  18
ATOM     18  C   UNL     1       0.541   8.001  -3.015  0.00  0.00    +0.189 A 
ATOM     19  C   UNL     1       0.789   9.073  -3.823  0.00  0.00    +0.054 A 
ATOM     20  C   UNL     1       2.092   9.506  -3.531  0.00  0.00    +0.042 A 
ATOM     21  C   UNL     1       2.576   8.690  -2.569  0.00  0.00    +0.196 A 
ATOM     22  O   UNL     1       1.637   7.787  -2.257  0.00  0.00    -0.458 OA
ENDBRANCH  15  18
ENDBRANCH  12  14
ENDBRANCH   4  12
BRANCH   1  23
ATOM     23  S   UNL     1      -1.962   0.123  -1.485  0.00  0.00    -0.073 S 
BRANCH  23  24
ATOM     24  C   UNL     1      -1.137  -0.599  -0.040  0.00  0.00    +0.140 C 
BRANCH  24  25
ATOM     25  C   UNL     1      -1.908  -0.247   1.207  0.00  0.00    +0.231 C 
ATOM     26  O   UNL     1      -3.092   0.007   1.137  0.00  0.00    -0.274 OA
ATOM     27  N   UNL     1      -1.281  -0.213   2.400  0.00  0.00    -0.285 N 
ATOM     28  H   UNL     1      -0.352  -0.483   2.467  0.00  0.00    +0.155 HD
BRANCH  27  29
ATOM     29  C   UNL     1      -1.971   0.212   3.541  0.00  0.00    +0.034 A 
ATOM     30  C   UNL     1      -1.310   0.936   4.524  0.00  0.00    +0.025 A 
ATOM     31  C   UNL     1      -1.994   1.354   5.649  0.00  0.00    +0.034 A 
ATOM     32  C   UNL     1      -3.335   1.051   5.797  0.00  0.00    +0.126 A 
ATOM     33  C   UNL     1      -3.996   0.329   4.820  0.00  0.00    +0.034 A 
ATOM     34  C   UNL     1      -3.319  -0.086   3.690  0.00  0.00    +0.025 A 
BRANCH  32  35
ATOM     35  N   UNL     1      -4.064   1.500   7.004  0.00  0.00    +0.056 N 
ATOM     36  O   UNL     1      -3.488   2.131   7.859  0.00  0.00    -0.126 OA
ATOM     37  O   UNL     1      -5.237   1.236   7.135  0.00  0.00    -0.126 OA
ENDBRANCH  32  35
ENDBRANCH  27  29
ENDBRANCH  24  25
BRANCH  24  39
ATOM     38  C   UNL     1      -0.184  -2.482  -1.376  0.00  0.00    +0.005 C 
ATOM     39  C   UNL     1      -1.081  -2.121  -0.191  0.00  0.00    +0.020 C 
ENDBRANCH  24  39
ENDBRANCH  23  24
ENDBRANCH   1  23
TORSDOF 10
