REMARK  Name = ZINC63425003
REMARK  9 active torsions:
REMARK  status: ('A' for Active; 'I' for Inactive)
REMARK    1  A    between atoms: C_1  and  C_2
REMARK    2  A    between atoms: C_5  and  N_8
REMARK    3  A    between atoms: C_12  and  N_13
REMARK    4  A    between atoms: N_13  and  C_14
REMARK    5  A    between atoms: C_14  and  C_16
REMARK    6  A    between atoms: C_14  and  C_26
REMARK    7  A    between atoms: C_16  and  C_17
REMARK    8  A    between atoms: C_26  and  O_28
REMARK    9  A    between atoms: O_28  and  C_29
REMARK                            x       y       z     vdW  Elec       q    Type
REMARK                         _______ _______ _______ _____ _____    ______ ____
ROOT
ATOM      1  N   UNL     1       0.400  -4.141   0.008  0.00  0.00    -0.190 N 
ATOM      2  C   UNL     1       0.274  -4.824   1.164  0.00  0.00    +0.265 C 
ATOM      3  O   UNL     1       0.048  -4.245   2.211  0.00  0.00    -0.269 OA
ATOM      4  C   UNL     1       0.417  -6.290   1.126  0.00  0.00    +0.113 C 
ATOM      5  C   UNL     1       0.301  -7.056   2.271  0.00  0.00    +0.086 C 
ATOM      6  C   UNL     1       0.690  -6.904  -0.186  0.00  0.00    +0.258 C 
ATOM      7  O   UNL     1       0.820  -8.108  -0.297  0.00  0.00    -0.270 OA
ATOM      8  N   UNL     1       0.790  -6.094  -1.260  0.00  0.00    -0.235 N 
ATOM      9  C   UNL     1       0.643  -4.766  -1.152  0.00  0.00    +0.320 C 
ATOM     10  O   UNL     1       0.740  -4.093  -2.159  0.00  0.00    -0.251 OA
ATOM     11  H   UNL     1       0.970  -6.482  -2.131  0.00  0.00    +0.159 HD
ENDROOT
BRANCH   1  16
ATOM     12  C   UNL     1      -0.136   1.509   0.055  0.00  0.00    +0.044 C 
ATOM     13  C   UNL     1       0.006   0.009   0.043  0.00  0.00    -0.050 A 
ATOM     14  C   UNL     1      -1.120  -0.791  -0.023  0.00  0.00    +0.005 A 
ATOM     15  C   UNL     1      -0.993  -2.166  -0.035  0.00  0.00    +0.024 A 
ATOM     16  C   UNL     1       0.268  -2.745   0.020  0.00  0.00    +0.046 A 
ATOM     17  C   UNL     1       1.397  -1.940   0.086  0.00  0.00    +0.024 A 
ATOM     18  C   UNL     1       1.263  -0.566   0.092  0.00  0.00    +0.005 A 
ENDBRANCH   1  16
BRANCH   5  19
ATOM     19  N   UNL     1       0.416  -8.398   2.199  0.00  0.00    -0.336 N 
ATOM     20  H   UNL     1       0.493  -8.832   1.335  0.00  0.00    +0.146 HD
BRANCH  19  21
ATOM     21  C   UNL     1       0.424  -9.199   3.425  0.00  0.00    +0.184 C 
BRANCH  21  22
ATOM     22  C   UNL     1       1.824  -9.254   3.980  0.00  0.00    +0.328 C 
ATOM     23  O   UNL     1       2.723  -8.682   3.410  0.00  0.00    -0.249 OA
BRANCH  22  24
ATOM     24  O   UNL     1       2.072  -9.938   5.108  0.00  0.00    -0.467 OA
ATOM     25  C   UNL     1       3.422  -9.948   5.577  0.00  0.00    +0.280 C 
ENDBRANCH  22  24
ENDBRANCH  21  22
BRANCH  21  26
ATOM     26  C   UNL     1      -0.056 -10.618   3.110  0.00  0.00    +0.066 C 
BRANCH  26  27
ATOM     27  C   UNL     1      -1.497 -10.575   2.672  0.00  0.00    -0.039 C 
ATOM     28  C   UNL     1      -1.960 -10.530   1.401  0.00  0.00    -0.001 A 
ATOM     29  C   UNL     1      -1.285 -10.508   0.098  0.00  0.00    +0.010 A 
ATOM     30  C   UNL     1      -2.034 -10.461  -1.028  0.00  0.00    +0.001 A 
ATOM     31  C   UNL     1      -3.434 -10.432  -0.980  0.00  0.00    +0.002 A 
ATOM     32  C   UNL     1      -4.125 -10.450   0.179  0.00  0.00    +0.026 A 
ATOM     33  C   UNL     1      -3.439 -10.499   1.424  0.00  0.00    +0.043 A 
ATOM     34  N   UNL     1      -3.875 -10.524   2.660  0.00  0.00    -0.380 N 
ATOM     35  C   UNL     1      -2.719 -10.579   3.562  0.00  0.00    +0.144 C 
ATOM     36  H   UNL     1      -4.806 -10.512   2.933  0.00  0.00    +0.160 HD
ENDBRANCH  26  27
ENDBRANCH  21  26
ENDBRANCH  19  21
ENDBRANCH   5  19
TORSDOF 7
