REMARK  Name = ZINC63254951
REMARK  5 active torsions:
REMARK  status: ('A' for Active; 'I' for Inactive)
REMARK    1  A    between atoms: C_1  and  C_2
REMARK    2  A    between atoms: N_4  and  C_14
REMARK    3  A    between atoms: C_6  and  C_8
REMARK    4  A    between atoms: C_17  and  C_23
REMARK    5  A    between atoms: C_19  and  N_20
REMARK                            x       y       z     vdW  Elec       q    Type
REMARK                         _______ _______ _______ _____ _____    ______ ____
ROOT
ATOM      1  C   UNL     1       2.797   0.524  -2.186  0.00  0.00    +0.060 A 
ATOM      2  C   UNL     1       2.818   1.916  -2.220  0.00  0.00    +0.026 A 
ATOM      3  C   UNL     1       3.461   2.571  -3.245  0.00  0.00    +0.015 A 
ATOM      4  C   UNL     1       4.094   1.837  -4.253  0.00  0.00    +0.039 A 
ATOM      5  C   UNL     1       4.072   0.440  -4.215  0.00  0.00    +0.047 A 
ATOM      6  C   UNL     1       3.431  -0.209  -3.184  0.00  0.00    +0.148 A 
ENDROOT
BRANCH   1  10
ATOM      7  C   UNL     1      -0.019   1.526   0.010  0.00  0.00    +0.039 C 
ATOM      8  C   UNL     1       0.002  -0.004   0.002  0.00  0.00    +0.133 C 
ATOM      9  C   UNL     1       0.725  -0.499  -1.256  0.00  0.00    +0.136 C 
ATOM     10  N   UNL     1       2.147  -0.135  -1.148  0.00  0.00    -0.323 N 
ATOM     11  C   UNL     1       2.859  -0.488   0.090  0.00  0.00    +0.141 C 
ATOM     12  C   UNL     1       2.033   0.007   1.282  0.00  0.00    +0.166 C 
ATOM     13  O   UNL     1       0.693  -0.479   1.160  0.00  0.00    -0.366 OA
BRANCH  12  14
ATOM     14  C   UNL     1       2.639  -0.506   2.563  0.00  0.00    -0.017 A 
ATOM     15  C   UNL     1       2.396  -1.804   2.971  0.00  0.00    +0.006 A 
ATOM     16  C   UNL     1       2.953  -2.275   4.146  0.00  0.00    +0.000 A 
ATOM     17  C   UNL     1       3.752  -1.447   4.912  0.00  0.00    +0.000 A 
ATOM     18  C   UNL     1       3.995  -0.149   4.503  0.00  0.00    +0.000 A 
ATOM     19  C   UNL     1       3.443   0.320   3.326  0.00  0.00    +0.006 A 
ENDBRANCH  12  14
ENDBRANCH   1  10
BRANCH   4  20
ATOM     20  C   UNL     1       4.784   2.536  -5.353  0.00  0.00    +0.242 C 
ATOM     21  O   UNL     1       5.335   1.897  -6.229  0.00  0.00    -0.270 OA
ATOM     22  N   UNL     1       4.805   3.883  -5.388  0.00  0.00    -0.325 N 
ATOM     23  H   UNL     1       4.366   4.393  -4.689  0.00  0.00    +0.145 HD
ATOM     24  H   UNL     1       5.259   4.343  -6.112  0.00  0.00    +0.145 HD
ENDBRANCH   4  20
BRANCH   6  25
ATOM     25  N   UNL     1       3.411  -1.689  -3.141  0.00  0.00    +0.058 N 
ATOM     26  O   UNL     1       3.962  -2.326  -4.008  0.00  0.00    -0.126 OA
ATOM     27  O   UNL     1       2.845  -2.259  -2.239  0.00  0.00    -0.126 OA
ENDBRANCH   6  25
TORSDOF 4
