REMARK  Name = ZINC52104447
REMARK  10 active torsions:
REMARK  status: ('A' for Active; 'I' for Inactive)
REMARK    1  A    between atoms: C_1  and  C_2
REMARK    2  A    between atoms: C_2  and  C_3
REMARK    3  A    between atoms: C_2  and  N_4
REMARK    4  A    between atoms: N_7  and  C_8
REMARK    5  A    between atoms: C_11  and  C_14
REMARK    6  A    between atoms: C_14  and  N_15
REMARK    7  A    between atoms: N_15  and  C_16
REMARK    8  A    between atoms: C_19  and  C_25
REMARK    9  A    between atoms: C_21  and  N_22
REMARK   10  A    between atoms: C_25  and  C_27
REMARK                            x       y       z     vdW  Elec       q    Type
REMARK                         _______ _______ _______ _____ _____    ______ ____
ROOT
ATOM      1  C   UNL     1      -0.199  -1.460   4.429  0.00  0.00    +0.035 A 
ATOM      2  C   UNL     1      -1.568  -1.230   4.455  0.00  0.00    +0.023 A 
ATOM      3  C   UNL     1      -2.276  -1.414   5.626  0.00  0.00    +0.007 A 
ATOM      4  C   UNL     1      -1.623  -1.827   6.773  0.00  0.00    -0.030 A 
ATOM      5  C   UNL     1      -0.260  -2.056   6.751  0.00  0.00    +0.007 A 
ATOM      6  C   UNL     1       0.453  -1.880   5.581  0.00  0.00    +0.023 A 
ENDROOT
BRANCH   1  10
ATOM      7  N   UNL     1       2.198  -1.963   1.772  0.00  0.00    -0.297 N 
ATOM      8  C   UNL     1       1.556  -2.088   2.950  0.00  0.00    +0.304 C 
ATOM      9  O   UNL     1       1.911  -2.933   3.749  0.00  0.00    -0.253 OA
ATOM     10  N   UNL     1       0.522  -1.276   3.244  0.00  0.00    -0.269 N 
ATOM     11  H   UNL     1       1.915  -1.288   1.135  0.00  0.00    +0.151 HD
ATOM     12  H   UNL     1       0.276  -0.563   2.633  0.00  0.00    +0.156 HD
BRANCH   7  14
ATOM     13  C   UNL     1       2.792  -4.152   0.858  0.00  0.00    +0.027 C 
ATOM     14  C   UNL     1       3.322  -2.846   1.452  0.00  0.00    +0.068 C 
ATOM     15  C   UNL     1       4.239  -2.159   0.438  0.00  0.00    +0.027 C 
ENDBRANCH   7  14
ENDBRANCH   1  10
BRANCH   4  16
ATOM     16  C   UNL     1      -2.399  -2.026   8.049  0.00  0.00    +0.137 C 
BRANCH  16  17
ATOM     17  N   UNL     1      -2.878  -3.409   8.118  0.00  0.00    -0.338 N 
ATOM     18  H   UNL     1      -2.675  -4.029   7.401  0.00  0.00    +0.146 HD
BRANCH  17  19
ATOM     19  C   UNL     1      -3.623  -3.832   9.212  0.00  0.00    +0.058 A 
ATOM     20  C   UNL     1      -4.015  -2.913  10.182  0.00  0.00    +0.026 A 
ATOM     21  C   UNL     1      -4.747  -3.325  11.259  0.00  0.00    +0.013 A 
ATOM     22  C   UNL     1      -5.104  -4.674  11.386  0.00  0.00    +0.019 A 
ATOM     23  C   UNL     1      -4.707  -5.595  10.408  0.00  0.00    +0.046 A 
ATOM     24  C   UNL     1      -3.980  -5.173   9.332  0.00  0.00    +0.148 A 
BRANCH  24  25
ATOM     25  N   UNL     1      -3.566  -6.144   8.294  0.00  0.00    +0.058 N 
ATOM     26  O   UNL     1      -4.305  -7.049   7.983  0.00  0.00    -0.126 OA
ATOM     27  O   UNL     1      -2.488  -6.032   7.757  0.00  0.00    -0.126 OA
ENDBRANCH  24  25
BRANCH  22  28
ATOM     28  C   UNL     1      -5.891  -5.121  12.542  0.00  0.00    +0.160 C 
ATOM     29  O   UNL     1      -6.152  -4.343  13.435  0.00  0.00    -0.292 OA
ATOM     30  C   UNL     1      -6.374  -6.546  12.618  0.00  0.00    +0.091 C 
ENDBRANCH  22  28
ENDBRANCH  17  19
ENDBRANCH  16  17
ENDBRANCH   4  16
TORSDOF 7
