REMARK  Name = ZINC55060508
REMARK  12 active torsions:
REMARK  status: ('A' for Active; 'I' for Inactive)
REMARK    1  A    between atoms: C_1  and  C_2
REMARK    2  A    between atoms: C_3  and  C_15
REMARK    3  A    between atoms: N_10  and  C_11
REMARK    4  A    between atoms: C_11  and  C_12
REMARK    5  A    between atoms: C_15  and  N_16
REMARK    6  A    between atoms: N_16  and  C_17
REMARK    7  A    between atoms: C_17  and  C_19
REMARK    8  A    between atoms: C_17  and  C_24
REMARK    9  A    between atoms: C_19  and  C_20
REMARK   10  A    between atoms: C_20  and  C_21
REMARK   11  A    between atoms: C_20  and  C_22
REMARK   12  A    between atoms: C_20  and  C_23
REMARK                            x       y       z     vdW  Elec       q    Type
REMARK                         _______ _______ _______ _____ _____    ______ ____
ROOT
ATOM      1  C   UNL     1       0.314   1.263   1.110  0.00  0.00    +0.064 C 
ATOM      2  C   UNL     1      -0.176  -0.138   0.847  0.00  0.00    +0.019 A 
ATOM      3  C   UNL     1      -0.552  -0.610  -0.352  0.00  0.00    -0.036 A 
ATOM      4  C   UNL     1      -0.952  -2.006  -0.155  0.00  0.00    +0.001 A 
ATOM      5  C   UNL     1      -1.428  -3.008  -1.004  0.00  0.00    +0.010 A 
ATOM      6  C   UNL     1      -1.719  -4.243  -0.498  0.00  0.00    +0.001 A 
ATOM      7  C   UNL     1      -1.546  -4.511   0.853  0.00  0.00    +0.002 A 
ATOM      8  C   UNL     1      -1.078  -3.537   1.708  0.00  0.00    +0.026 A 
ATOM      9  C   UNL     1      -0.775  -2.272   1.214  0.00  0.00    +0.050 A 
ATOM     10  N   UNL     1      -0.298  -1.118   1.794  0.00  0.00    -0.335 N 
ENDROOT
BRANCH  10  11
ATOM     11  C   UNL     1       0.028  -0.962   3.214  0.00  0.00    +0.217 C 
BRANCH  11  12
ATOM     12  C   UNL     1      -1.193  -0.491   3.961  0.00  0.00    +0.230 C 
ATOM     13  O   UNL     1      -2.233  -0.304   3.366  0.00  0.00    -0.274 OA
ATOM     14  N   UNL     1      -1.129  -0.277   5.290  0.00  0.00    -0.328 N 
ATOM     15  H   UNL     1      -0.297  -0.426   5.766  0.00  0.00    +0.145 HD
ATOM     16  H   UNL     1      -1.915   0.026   5.771  0.00  0.00    +0.145 HD
ENDBRANCH  11  12
ENDBRANCH  10  11
BRANCH   3  17
ATOM     17  C   UNL     1      -0.561   0.150  -1.653  0.00  0.00    -0.044 C 
BRANCH  17  18
ATOM     18  N   UNL     1       0.699  -0.091  -2.369  0.00  0.00    +0.386 N 
ATOM     19  H   UNL     1       1.466   0.294  -1.839  0.00  0.00    -0.085 HD
ATOM     20  H   UNL     1       0.835  -1.084  -2.486  0.00  0.00    -0.085 HD
BRANCH  18  21
ATOM     21  C   UNL     1       0.643   0.554  -3.688  0.00  0.00    -0.038 C 
BRANCH  21  22
ATOM     22  C   UNL     1       1.866   0.178  -4.483  0.00  0.00    -0.043 A 
ATOM     23  C   UNL     1       1.741  -0.503  -5.684  0.00  0.00    +0.005 A 
ATOM     24  C   UNL     1       2.894  -0.828  -6.382  0.00  0.00    +0.020 A 
ATOM     25  C   UNL     1       4.122  -0.465  -5.860  0.00  0.00    +0.111 A 
ATOM     26  N   UNL     1       4.203   0.182  -4.714  0.00  0.00    -0.263 NA
ATOM     27  C   UNL     1       3.127   0.513  -4.027  0.00  0.00    +0.112 A 
ENDBRANCH  21  22
BRANCH  21  28
ATOM     28  C   UNL     1       0.596   2.073  -3.512  0.00  0.00    -0.005 C 
BRANCH  28  29
ATOM     29  C   UNL     1       0.378   2.738  -4.872  0.00  0.00    -0.039 C 
ATOM     30  C   UNL     1      -0.856   2.133  -5.544  0.00  0.00    +0.010 C 
ATOM     31  C   UNL     1       0.168   4.241  -4.678  0.00  0.00    +0.010 C 
ATOM     32  C   UNL     1       1.605   2.505  -5.756  0.00  0.00    +0.010 C 
ENDBRANCH  28  29
ENDBRANCH  21  28
ENDBRANCH  18  21
ENDBRANCH  17  18
ENDBRANCH   3  17
TORSDOF 8
