REMARK  Name = ZINC16011521
REMARK  4 active torsions:
REMARK  status: ('A' for Active; 'I' for Inactive)
REMARK    1  A    between atoms: C_1  and  C_2
REMARK    2  A    between atoms: C_12  and  C_29
REMARK    3  A    between atoms: C_29  and  C_31
REMARK    4  A    between atoms: C_35  and  N_37
REMARK                            x       y       z     vdW  Elec       q    Type
REMARK                         _______ _______ _______ _____ _____    ______ ____
ROOT
ATOM      1  C   UNL     1      -2.507   0.961   0.011  0.00  0.00    +0.045 C 
ATOM      2  C   UNL     1      -1.220   1.745   0.017  0.00  0.00    -0.029 A 
ATOM      3  C   UNL     1      -0.013   1.076   0.008  0.00  0.00    +0.005 A 
ATOM      4  C   UNL     1       1.177   1.780   0.000  0.00  0.00    +0.001 A 
ATOM      5  C   UNL     1       1.155   3.164   0.001  0.00  0.00    +0.004 A 
ATOM      6  C   UNL     1      -0.046   3.831   0.017  0.00  0.00    -0.027 A 
ATOM      7  C   UNL     1      -1.250   3.136   0.034  0.00  0.00    +0.039 A 
ATOM      8  N   UNL     1      -2.317   4.034   0.063  0.00  0.00    -0.286 N 
ATOM      9  C   UNL     1      -1.907   5.320   0.045  0.00  0.00    +0.212 C 
ATOM     10  O   UNL     1      -2.642   6.286   0.016  0.00  0.00    -0.277 OA
ATOM     11  C   UNL     1      -0.404   5.303   0.030  0.00  0.00    +0.052 C 
ATOM     12  C   UNL     1       0.198   5.949   1.284  0.00  0.00    +0.080 C 
ATOM     13  C   UNL     1       1.085   7.089   0.772  0.00  0.00    +0.071 C 
ATOM     14  C   UNL     1       2.538   6.707   0.945  0.00  0.00    -0.012 A 
ATOM     15  C   UNL     1       3.353   5.790   0.326  0.00  0.00    +0.006 A 
ATOM     16  C   UNL     1       4.656   5.623   0.760  0.00  0.00    +0.000 A 
ATOM     17  C   UNL     1       5.137   6.395   1.801  0.00  0.00    +0.002 A 
ATOM     18  C   UNL     1       4.335   7.351   2.389  0.00  0.00    +0.023 A 
ATOM     19  C   UNL     1       3.029   7.541   1.943  0.00  0.00    +0.038 A 
ATOM     20  N   UNL     1       2.045   8.449   2.337  0.00  0.00    -0.285 N 
ATOM     21  C   UNL     1       0.932   8.344   1.577  0.00  0.00    +0.227 C 
ATOM     22  O   UNL     1       0.018   9.141   1.561  0.00  0.00    -0.275 OA
ATOM     23  C   UNL     1       0.746   7.264  -0.705  0.00  0.00    -0.046 C 
ATOM     24  C   UNL     1      -0.838   6.268  -2.186  0.00  0.00    -0.076 C 
ATOM     25  C   UNL     1      -1.042   7.798  -2.219  0.00  0.00    -0.020 C 
ATOM     26  C   UNL     1      -0.398   8.284  -0.894  0.00  0.00    -0.016 C 
ATOM     27  H   UNL     1      -3.250   3.775   0.094  0.00  0.00    +0.155 HD
ATOM     28  H   UNL     1       2.143   9.080   3.064  0.00  0.00    +0.155 HD
ATOM     29  N   UNL     1       0.182   5.993  -1.139  0.00  0.00    +0.395 N 
ATOM     30  H   UNL     1       0.922   5.404  -1.538  0.00  0.00    -0.079 HD
ENDROOT
BRANCH  12  31
ATOM     31  C   UNL     1      -0.849   6.425   2.245  0.00  0.00    +0.167 C 
ATOM     32  O   UNL     1      -1.304   7.544   2.141  0.00  0.00    -0.292 OA
BRANCH  31  33
ATOM     33  C   UNL     1      -1.326   5.534   3.314  0.00  0.00    +0.020 A 
ATOM     34  C   UNL     1      -0.809   4.239   3.434  0.00  0.00    +0.011 A 
ATOM     35  C   UNL     1      -1.257   3.413   4.442  0.00  0.00    +0.003 A 
ATOM     36  C   UNL     1      -2.224   3.856   5.327  0.00  0.00    +0.033 A 
ATOM     37  C   UNL     1      -2.745   5.132   5.212  0.00  0.00    +0.127 A 
ATOM     38  C   UNL     1      -2.303   5.974   4.213  0.00  0.00    +0.044 A 
BRANCH  37  39
ATOM     39  N   UNL     1      -3.780   5.596   6.164  0.00  0.00    +0.056 N 
ATOM     40  O   UNL     1      -4.239   6.720   6.064  0.00  0.00    -0.126 OA
ATOM     41  O   UNL     1      -4.171   4.854   7.047  0.00  0.00    -0.126 OA
ENDBRANCH  37  39
ENDBRANCH  31  33
ENDBRANCH  12  31
TORSDOF 3
