REMARK  Name = ZINC50268043
REMARK  4 active torsions:
REMARK  status: ('A' for Active; 'I' for Inactive)
REMARK    1  A    between atoms: C_1  and  C_2
REMARK    2  A    between atoms: C_5  and  N_12
REMARK    3  A    between atoms: N_12  and  C_13
REMARK    4  A    between atoms: C_13  and  C_14
REMARK                            x       y       z     vdW  Elec       q    Type
REMARK                         _______ _______ _______ _____ _____    ______ ____
ROOT
ATOM      1  C   UNL     1      -0.348   1.485   0.137  0.00  0.00    +0.046 C 
ATOM      2  C   UNL     1      -0.239  -0.017   0.095  0.00  0.00    -0.023 A 
ATOM      3  C   UNL     1      -0.278  -0.669  -1.101  0.00  0.00    +0.027 A 
ATOM      4  C   UNL     1      -0.179  -2.055  -1.168  0.00  0.00    +0.063 A 
ATOM      5  C   UNL     1      -0.040  -2.807  -0.018  0.00  0.00    +0.055 A 
ATOM      6  C   UNL     1       0.003  -2.156   1.232  0.00  0.00    +0.023 A 
ATOM      7  C   UNL     1      -0.092  -0.744   1.288  0.00  0.00    +0.076 A 
ATOM      8  N   UNL     1      -0.046  -0.121   2.472  0.00  0.00    -0.255 NA
ATOM      9  C   UNL     1       0.090  -0.793   3.590  0.00  0.00    +0.111 A 
ATOM     10  C   UNL     1       0.195  -2.181   3.602  0.00  0.00    +0.020 A 
ATOM     11  C   UNL     1       0.143  -2.880   2.428  0.00  0.00    +0.013 A 
ATOM     12 CL   UNL     1      -0.233  -2.847  -2.712  0.00  0.00    -0.082 Cl
ENDROOT
BRANCH   5  13
ATOM     13  N   UNL     1       0.057  -4.195  -0.093  0.00  0.00    -0.339 N 
ATOM     14  H   UNL     1       0.410  -4.697   0.658  0.00  0.00    +0.146 HD
BRANCH  13  15
ATOM     15  C   UNL     1      -0.373  -4.895  -1.305  0.00  0.00    +0.146 C 
BRANCH  15  16
ATOM     16  C   UNL     1      -0.376  -6.404  -1.049  0.00  0.00    +0.190 C 
ATOM     17  C   UNL     1      -0.813  -7.144  -2.321  0.00  0.00    +0.050 C 
ATOM     18  C   UNL     1      -0.854  -8.644  -2.010  0.00  0.00    +0.034 C 
ATOM     19  C   UNL     1       0.405  -9.040  -1.287  0.00  0.00    +0.011 C 
ATOM     20  C   UNL     1       1.185  -8.167  -0.707  0.00  0.00    +0.183 C 
ATOM     21  O   UNL     1       0.944  -6.837  -0.708  0.00  0.00    -0.495 OA
ENDBRANCH  15  16
ENDBRANCH  13  15
ENDBRANCH   5  13
TORSDOF 3
