REMARK  Name = ZINC04391521
REMARK  8 active torsions:
REMARK  status: ('A' for Active; 'I' for Inactive)
REMARK    1  A    between atoms: C_1  and  C_2
REMARK    2  A    between atoms: C_2  and  C_3
REMARK    3  A    between atoms: C_3  and  N_49
REMARK    4  A    between atoms: C_10  and  C_22
REMARK    5  A    between atoms: C_12  and  C_18
REMARK    6  A    between atoms: C_12  and  C_20
REMARK    7  A    between atoms: C_14  and  C_15
REMARK    8  A    between atoms: C_27  and  N_28
REMARK                            x       y       z     vdW  Elec       q    Type
REMARK                         _______ _______ _______ _____ _____    ______ ____
ROOT
ATOM      1  C   UNL     1       1.856   2.509  -0.061  0.00  0.00    -0.051 C 
ATOM      2  C   UNL     1       1.114   1.224   0.212  0.00  0.00    -0.044 C 
ATOM      3  C   UNL     1      -0.203   1.194   0.134  0.00  0.00    -0.051 C 
ATOM      4  C   UNL     1      -1.025   2.384  -0.273  0.00  0.00    +0.010 C 
ATOM      5  C   UNL     1      -0.234   3.666  -0.387  0.00  0.00    -0.070 C 
ATOM      6  C   UNL     1      -2.193   2.512   0.707  0.00  0.00    +0.066 C 
ATOM      7  C   UNL     1      -3.077   1.270   0.588  0.00  0.00    +0.188 C 
ATOM      8  C   UNL     1      -2.277   0.006   0.680  0.00  0.00    +0.065 C 
ATOM      9  C   UNL     1      -0.938  -0.053   0.461  0.00  0.00    +0.163 C 
ATOM     10  N   UNL     1      -2.930  -1.150   1.004  0.00  0.00    -0.304 NA
ATOM     11  H   UNL     1      -2.439  -1.984   1.067  0.00  0.00    +0.186 HD
ATOM     12  N   UNL     1       0.997   3.612   0.418  0.00  0.00    +0.382 N 
ATOM     13  H   UNL     1       0.749   3.441   1.400  0.00  0.00    -0.081 HD
ENDROOT
BRANCH   6  14
ATOM     14  C   UNL     1      -3.000   3.740   0.371  0.00  0.00    -0.011 A 
ATOM     15  C   UNL     1      -3.457   3.935  -0.919  0.00  0.00    +0.007 A 
ATOM     16  C   UNL     1      -4.202   5.058  -1.225  0.00  0.00    +0.020 A 
ATOM     17  C   UNL     1      -4.481   5.992  -0.243  0.00  0.00    +0.043 A 
ATOM     18  C   UNL     1      -4.018   5.799   1.046  0.00  0.00    +0.053 A 
ATOM     19  C   UNL     1      -3.278   4.673   1.353  0.00  0.00    +0.131 A 
ATOM     20 CL   UNL     1      -5.410   7.407  -0.629  0.00  0.00    -0.083 Cl
BRANCH  19  21
ATOM     21  N   UNL     1      -2.784   4.465   2.732  0.00  0.00    +0.057 N 
ATOM     22  O   UNL     1      -3.474   4.789   3.682  0.00  0.00    -0.126 OA
ATOM     23  O   UNL     1      -1.686   3.970   2.918  0.00  0.00    -0.126 OA
ENDBRANCH  19  21
ENDBRANCH   6  14
BRANCH   9  24
ATOM     24  C   UNL     1      -0.245  -1.304   0.542  0.00  0.00    +0.076 C 
ATOM     25  N   UNL     1       0.305  -2.296   0.607  0.00  0.00    -0.196 NA
ENDBRANCH   9  24
BRANCH   7  26
ATOM     26  C   UNL     1      -3.776   1.301  -0.707  0.00  0.00    +0.091 C 
ATOM     27  N   UNL     1      -4.316   1.325  -1.706  0.00  0.00    -0.195 NA
ENDBRANCH   7  26
BRANCH   7  28
ATOM     28  C   UNL     1      -4.074   1.286   1.670  0.00  0.00    +0.091 C 
ATOM     29  N   UNL     1      -4.844   1.299   2.505  0.00  0.00    -0.195 NA
ENDBRANCH   7  28
BRANCH  12  30
ATOM     30  C   UNL     1       1.722   4.900   0.321  0.00  0.00    -0.079 C 
BRANCH  30  32
ATOM     31  C   UNL     1       3.862   6.074   0.856  0.00  0.00    +0.002 C 
ATOM     32  C   UNL     1       3.114   4.741   0.935  0.00  0.00    -0.022 C 
ENDBRANCH  30  32
ENDBRANCH  12  30
TORSDOF 7
