REMARK  Name = ZINC43430483
REMARK  9 active torsions:
REMARK  status: ('A' for Active; 'I' for Inactive)
REMARK    1  A    between atoms: C_1  and  C_2
REMARK    2  A    between atoms: C_2  and  C_3
REMARK    3  A    between atoms: C_2  and  C_4
REMARK    4  A    between atoms: C_4  and  C_6
REMARK    5  A    between atoms: C_4  and  N_10
REMARK    6  A    between atoms: C_6  and  O_8
REMARK    7  A    between atoms: O_8  and  C_9
REMARK    8  A    between atoms: N_10  and  C_11
REMARK    9  A    between atoms: C_20  and  N_21
REMARK                            x       y       z     vdW  Elec       q    Type
REMARK                         _______ _______ _______ _____ _____    ______ ____
ROOT
ATOM      1  C   UNL     1      -0.102  -1.130   3.234  0.00  0.00    +0.059 A 
ATOM      2  C   UNL     1      -0.570  -1.928   4.302  0.00  0.00    +0.022 A 
ATOM      3  C   UNL     1      -0.890  -3.281   4.115  0.00  0.00    +0.027 A 
ATOM      4  C   UNL     1      -1.338  -4.020   5.169  0.00  0.00    +0.019 A 
ATOM      5  C   UNL     1      -1.481  -3.447   6.432  0.00  0.00    +0.017 A 
ATOM      6  C   UNL     1      -1.179  -2.138   6.647  0.00  0.00    +0.027 A 
ATOM      7  C   UNL     1      -0.714  -1.344   5.584  0.00  0.00    +0.048 A 
ATOM      8  N   UNL     1      -0.410  -0.055   5.771  0.00  0.00    -0.359 N 
ATOM      9  C   UNL     1       0.026   0.701   4.790  0.00  0.00    +0.107 A 
ATOM     10  C   UNL     1       0.200   0.201   3.501  0.00  0.00    +0.063 A 
ATOM     11 BR   UNL     1      -1.770  -5.843   4.915  0.00  0.00    -0.050 Br
ATOM     12  H   UNL     1      -0.514   0.331   6.654  0.00  0.00    +0.165 HD
ENDROOT
BRANCH  10  13
ATOM     13  N   UNL     1       0.674   1.036   2.478  0.00  0.00    -0.355 N 
ATOM     14  H   UNL     1       0.319   0.950   1.579  0.00  0.00    +0.142 HD
ATOM     15  H   UNL     1       1.356   1.698   2.670  0.00  0.00    +0.142 HD
ENDBRANCH  10  13
BRANCH   1  16
ATOM     16  N   UNL     1       0.056  -1.660   1.957  0.00  0.00    -0.329 N 
ATOM     17  H   UNL     1       0.697  -2.372   1.803  0.00  0.00    +0.147 HD
BRANCH  16  18
ATOM     18  C   UNL     1      -0.746  -1.143   0.845  0.00  0.00    +0.182 C 
BRANCH  18  20
ATOM     19  C   UNL     1      -0.541  -0.365  -1.520  0.00  0.00    +0.009 C 
ATOM     20  C   UNL     1       0.027  -1.315  -0.464  0.00  0.00    +0.014 C 
ATOM     21  C   UNL     1       1.504  -0.993  -0.230  0.00  0.00    +0.009 C 
ENDBRANCH  18  20
BRANCH  18  22
ATOM     22  C   UNL     1      -2.044  -1.904   0.766  0.00  0.00    +0.328 C 
ATOM     23  O   UNL     1      -2.276  -2.788   1.557  0.00  0.00    -0.249 OA
BRANCH  22  24
ATOM     24  O   UNL     1      -2.943  -1.601  -0.184  0.00  0.00    -0.467 OA
ATOM     25  C   UNL     1      -4.152  -2.363  -0.200  0.00  0.00    +0.280 C 
ENDBRANCH  22  24
ENDBRANCH  18  22
ENDBRANCH  16  18
ENDBRANCH   1  16
TORSDOF 6
