REMARK  Name = ZINC48375023
REMARK  8 active torsions:
REMARK  status: ('A' for Active; 'I' for Inactive)
REMARK    1  A    between atoms: C_1  and  C_2
REMARK    2  A    between atoms: C_5  and  C_33
REMARK    3  A    between atoms: N_8  and  C_10
REMARK    4  A    between atoms: C_10  and  C_11
REMARK    5  A    between atoms: C_16  and  C_17
REMARK    6  A    between atoms: C_17  and  N_18
REMARK    7  A    between atoms: C_19  and  C_21
REMARK    8  A    between atoms: C_21  and  N_22
REMARK                            x       y       z     vdW  Elec       q    Type
REMARK                         _______ _______ _______ _____ _____    ______ ____
ROOT
ATOM      1  C   UNL     1       1.049   2.267   4.550  0.00  0.00    +0.139 C 
ENDROOT
BRANCH   1   7
ATOM      2  C   UNL     1       2.154   0.211   3.646  0.00  0.00    -0.059 A 
ATOM      3  C   UNL     1       3.273  -0.474   3.211  0.00  0.00    +0.002 A 
ATOM      4  C   UNL     1       4.509   0.145   3.217  0.00  0.00    +0.000 A 
ATOM      5  C   UNL     1       4.625   1.450   3.658  0.00  0.00    +0.000 A 
ATOM      6  C   UNL     1       3.506   2.136   4.092  0.00  0.00    +0.005 A 
ATOM      7  C   UNL     1       2.270   1.518   4.082  0.00  0.00    -0.029 A 
BRANCH   2   8
ATOM      8  C   UNL     1       0.807  -0.464   3.639  0.00  0.00    -0.043 C 
BRANCH   8  14
ATOM      9  C   UNL     1      -0.019   1.526   0.010  0.00  0.00    +0.005 C 
ATOM     10  C   UNL     1       0.002  -0.004   0.002  0.00  0.00    -0.031 C 
ATOM     11  C   UNL     1      -1.434  -0.535   0.015  0.00  0.00    +0.003 C 
ATOM     12  C   UNL     1      -2.117  -0.099   1.315  0.00  0.00    -0.031 C 
ATOM     13  C   UNL     1      -1.302  -0.604   2.507  0.00  0.00    -0.075 C 
ATOM     14  N   UNL     1       0.052  -0.040   2.452  0.00  0.00    +0.383 N 
ATOM     15  C   UNL     1       0.740  -0.512   1.242  0.00  0.00    -0.075 C 
ATOM     16  C   UNL     1      -3.528  -0.689   1.373  0.00  0.00    +0.005 C 
ATOM     17  H   UNL     1      -0.004   0.967   2.434  0.00  0.00    -0.081 HD
ENDBRANCH   8  14
ENDBRANCH   2   8
ENDBRANCH   1   7
BRANCH   1  18
ATOM     18  N   UNL     1       0.733   1.874   5.925  0.00  0.00    -0.310 N 
ATOM     19  C   UNL     1      -0.327   2.420   6.555  0.00  0.00    +0.231 C 
ATOM     20  O   UNL     1      -1.018   3.235   5.983  0.00  0.00    -0.274 OA
ATOM     21  H   UNL     1       1.286   1.222   6.383  0.00  0.00    +0.149 HD
BRANCH  19  22
ATOM     22  C   UNL     1      -0.652   2.016   7.970  0.00  0.00    +0.213 C 
BRANCH  22  23
ATOM     23  N   UNL     1      -1.839   2.744   8.425  0.00  0.00    -0.215 N 
ATOM     24  C   UNL     1      -1.803   3.946   9.041  0.00  0.00    +0.247 C 
ATOM     25  O   UNL     1      -0.822   4.604   9.312  0.00  0.00    -0.273 OA
ATOM     26  C   UNL     1      -3.243   4.294   9.317  0.00  0.00    +0.113 C 
ATOM     27  C   UNL     1      -3.638   5.602   8.619  0.00  0.00    +0.035 C 
ATOM     28  C   UNL     1      -4.633   6.268   9.605  0.00  0.00    +0.003 C 
ATOM     29  C   UNL     1      -4.032   5.918  10.989  0.00  0.00    +0.003 C 
ATOM     30  C   UNL     1      -3.492   4.481  10.816  0.00  0.00    +0.035 C 
ATOM     31  N   UNL     1      -4.003   3.161   8.786  0.00  0.00    -0.285 N 
ATOM     32  C   UNL     1      -3.095   2.304   8.278  0.00  0.00    +0.310 C 
ATOM     33  O   UNL     1      -3.384   1.248   7.749  0.00  0.00    -0.252 OA
ATOM     34  H   UNL     1      -4.967   3.051   8.795  0.00  0.00    +0.151 HD
ENDBRANCH  22  23
ENDBRANCH  19  22
ENDBRANCH   1  18
TORSDOF 6
