REMARK  Name = ZINC05942471
REMARK  7 active torsions:
REMARK  status: ('A' for Active; 'I' for Inactive)
REMARK    1  A    between atoms: C_1  and  C_2
REMARK    2  A    between atoms: C_5  and  C_8
REMARK    3  A    between atoms: C_8  and  C_10
REMARK    4  A    between atoms: C_8  and  N_19
REMARK    5  A    between atoms: C_14  and  N_16
REMARK    6  A    between atoms: C_20  and  C_22
REMARK    7  A    between atoms: C_25  and  C_28
REMARK                            x       y       z     vdW  Elec       q    Type
REMARK                         _______ _______ _______ _____ _____    ______ ____
ROOT
ATOM      1  C   UNL     1      -0.070   5.347   0.030  0.00  0.00    +0.134 C 
ENDROOT
BRANCH   1   6
ATOM      2  C   UNL     1      -1.094   7.285  -5.317  0.00  0.00    +0.044 C 
ATOM      3  C   UNL     1      -0.827   6.780  -3.923  0.00  0.00    -0.050 A 
ATOM      4  C   UNL     1       0.464   6.760  -3.430  0.00  0.00    +0.004 A 
ATOM      5  C   UNL     1       0.709   6.297  -2.151  0.00  0.00    +0.006 A 
ATOM      6  C   UNL     1      -0.337   5.853  -1.365  0.00  0.00    -0.023 A 
ATOM      7  C   UNL     1      -1.628   5.867  -1.860  0.00  0.00    +0.006 A 
ATOM      8  C   UNL     1      -1.873   6.335  -3.137  0.00  0.00    +0.004 A 
ENDBRANCH   1   6
BRANCH   1   9
ATOM      9  C   UNL     1      -0.050   3.840   0.022  0.00  0.00    -0.021 A 
ATOM     10  C   UNL     1      -1.238   3.133   0.030  0.00  0.00    +0.006 A 
ATOM     11  C   UNL     1      -1.219   1.751   0.017  0.00  0.00    +0.003 A 
ATOM     12  C   UNL     1      -0.013   1.076   0.008  0.00  0.00    +0.033 A 
ATOM     13  C   UNL     1       1.175   1.783   0.000  0.00  0.00    +0.127 A 
ATOM     14  C   UNL     1       1.156   3.166   0.008  0.00  0.00    +0.038 A 
BRANCH  13  15
ATOM     15  N   UNL     1       2.467   1.060  -0.016  0.00  0.00    +0.056 N 
ATOM     16  O   UNL     1       2.483  -0.157  -0.023  0.00  0.00    -0.126 OA
ATOM     17  O   UNL     1       3.513   1.684  -0.022  0.00  0.00    -0.126 OA
ENDBRANCH  13  15
ENDBRANCH   1   9
BRANCH   1  18
ATOM     18  N   UNL     1      -1.127   5.817   0.930  0.00  0.00    -0.301 N 
ATOM     19  C   UNL     1      -0.881   5.942   2.249  0.00  0.00    +0.245 C 
ATOM     20  O   UNL     1       0.217   5.666   2.692  0.00  0.00    -0.270 OA
ATOM     21  H   UNL     1      -2.003   6.037   0.576  0.00  0.00    +0.150 HD
BRANCH  19  22
ATOM     22  C   UNL     1      -1.947   6.416   3.158  0.00  0.00    +0.037 A 
ATOM     23  C   UNL     1      -3.207   6.740   2.651  0.00  0.00    +0.013 A 
ATOM     24  C   UNL     1      -4.198   7.178   3.505  0.00  0.00    +0.004 A 
ATOM     25  C   UNL     1      -3.943   7.306   4.859  0.00  0.00    -0.050 A 
ATOM     26  C   UNL     1      -2.695   6.991   5.367  0.00  0.00    +0.004 A 
ATOM     27  C   UNL     1      -1.696   6.548   4.524  0.00  0.00    +0.013 A 
ATOM     28  C   UNL     1      -5.029   7.789   5.785  0.00  0.00    +0.044 C 
ENDBRANCH  19  22
ENDBRANCH   1  18
TORSDOF 5
