REMARK  Name = ZINC36269057
REMARK  3 active torsions:
REMARK  status: ('A' for Active; 'I' for Inactive)
REMARK    1  A    between atoms: C_3  and  N_10
REMARK    2  A    between atoms: C_6  and  N_7
REMARK    3  A    between atoms: C_16  and  N_22
REMARK                            x       y       z     vdW  Elec       q    Type
REMARK                         _______ _______ _______ _____ _____    ______ ____
ROOT
ATOM      1  N   UNL     1       3.594   1.999  -0.022  0.00  0.00    -0.315 N 
ATOM      2  C   UNL     1       4.920   1.367  -0.149  0.00  0.00    +0.110 C 
ATOM      3  C   UNL     1       5.949   2.504  -0.124  0.00  0.00    +0.011 C 
ATOM      4  C   UNL     1       7.157   2.227  -0.984  0.00  0.00    +0.004 C 
ATOM      5  C   UNL     1       6.790   2.168  -2.466  0.00  0.00    -0.016 C 
ATOM      6  C   UNL     1       6.168   3.513  -2.860  0.00  0.00    -0.075 C 
ATOM      7  C   UNL     1       4.871   3.695  -2.076  0.00  0.00    -0.011 C 
ATOM      8  C   UNL     1       5.149   3.734  -0.594  0.00  0.00    +0.009 C 
ATOM      9  C   UNL     1       3.778   3.459   0.088  0.00  0.00    +0.110 C 
ENDROOT
BRANCH   1  12
ATOM     10  C   UNL     1      -0.017   1.384   0.010  0.00  0.00    +0.037 A 
ATOM     11  C   UNL     1       1.190   2.061   0.002  0.00  0.00    +0.046 A 
ATOM     12  C   UNL     1       2.374   1.332  -0.013  0.00  0.00    +0.121 A 
ATOM     13  N   UNL     1       2.350   0.008  -0.020  0.00  0.00    -0.238 NA
ATOM     14  C   UNL     1       1.215  -0.664  -0.013  0.00  0.00    +0.145 A 
ATOM     15  C   UNL     1       0.002  -0.004   0.002  0.00  0.00    +0.144 A 
BRANCH  15  16
ATOM     16  N   UNL     1      -1.265  -0.769   0.011  0.00  0.00    +0.058 N 
ATOM     17  O   UNL     1      -2.324  -0.185   0.024  0.00  0.00    -0.126 OA
ATOM     18  O   UNL     1      -1.242  -1.978   0.004  0.00  0.00    -0.126 OA
ENDBRANCH  15  16
ENDBRANCH   1  12
BRANCH   6  19
ATOM     19  N   UNL     1       5.883   3.522  -4.301  0.00  0.00    +0.380 N 
ATOM     20  H   UNL     1       5.239   2.777  -4.522  0.00  0.00    -0.090 HD
ATOM     21  H   UNL     1       5.474   4.408  -4.558  0.00  0.00    -0.090 HD
ATOM     22  H   UNL     1       6.742   3.386  -4.814  0.00  0.00    -0.090 HD
ENDBRANCH   6  19
TORSDOF 3
