REMARK  Name = ZINC59887899
REMARK  12 active torsions:
REMARK  status: ('A' for Active; 'I' for Inactive)
REMARK    1  A    between atoms: C_1  and  C_2
REMARK    2  A    between atoms: C_5  and  N_9
REMARK    3  A    between atoms: C_10  and  C_12
REMARK    4  A    between atoms: C_12  and  S_13
REMARK    5  A    between atoms: S_13  and  C_14
REMARK    6  A    between atoms: N_19  and  N_20
REMARK    7  A    between atoms: C_21  and  C_22
REMARK    8  A    between atoms: C_23  and  C_31
REMARK    9  A    between atoms: N_25  and  C_28
REMARK   10  A    between atoms: C_26  and  C_27
REMARK   11  A    between atoms: C_28  and  C_29
REMARK   12  A    between atoms: C_29  and  O_30
REMARK                            x       y       z     vdW  Elec       q    Type
REMARK                         _______ _______ _______ _____ _____    ______ ____
ROOT
ATOM      1  C   UNL     1       0.590  -8.714   2.628  0.00  0.00    +0.211 A 
ATOM      2  N   UNL     1       0.711  -9.596   3.626  0.00  0.00    -0.186 NA
ATOM      3  C   UNL     1       0.798 -10.814   3.132  0.00  0.00    +0.232 A 
ATOM      4  N   UNL     1       0.731 -10.724   1.787  0.00  0.00    -0.245 N 
ATOM      5  N   UNL     1       0.592  -9.359   1.486  0.00  0.00    -0.144 NA
ATOM      6  N   UNL     1       0.932 -11.979   3.863  0.00  0.00    -0.205 N 
ATOM      7  H   UNL     1       0.989 -12.834   3.408  0.00  0.00    +0.177 HD
ATOM      8  H   UNL     1       0.769 -11.457   1.153  0.00  0.00    +0.192 HD
ENDROOT
BRANCH   6   9
ATOM      9  N   UNL     1       0.988 -11.926   5.262  0.00  0.00    -0.187 NA
ATOM     10  C   UNL     1       1.115 -13.020   5.948  0.00  0.00    +0.141 C 
BRANCH  10  11
ATOM     11  C   UNL     1       1.173 -12.964   7.422  0.00  0.00    +0.038 A 
ATOM     12  C   UNL     1       1.098 -11.802   8.219  0.00  0.00    +0.069 A 
ATOM     13  N   UNL     1       1.185 -12.162   9.471  0.00  0.00    -0.176 NA
ATOM     14  N   UNL     1       1.318 -13.553   9.534  0.00  0.00    -0.266 N 
ATOM     15  C   UNL     1       1.305 -14.038   8.276  0.00  0.00    +0.045 A 
ATOM     16  C   UNL     1       1.416 -15.487   7.876  0.00  0.00    +0.066 C 
ATOM     17  C   UNL     1       0.944 -10.391   7.713  0.00  0.00    +0.068 C 
BRANCH  14  18
ATOM     18  C   UNL     1       1.446 -14.348  10.758  0.00  0.00    +0.171 C 
BRANCH  18  19
ATOM     19  C   UNL     1       0.055 -14.761  11.245  0.00  0.00    +0.179 C 
BRANCH  19  20
ATOM     20  O   UNL     1       0.180 -15.536  12.439  0.00  0.00    -0.393 OA
ATOM     21  H   UNL     1      -0.665 -15.832  12.805  0.00  0.00    +0.209 HD
ENDBRANCH  19  20
ENDBRANCH  18  19
ENDBRANCH  14  18
ENDBRANCH  10  11
ENDBRANCH   6   9
BRANCH   1  22
ATOM     22  S   UNL     1       0.443  -6.968   2.817  0.00  0.00    -0.075 S 
BRANCH  22  23
ATOM     23  C   UNL     1       0.306  -6.353   1.116  0.00  0.00    +0.173 C 
BRANCH  23  25
ATOM     24  N   UNL     1       0.057  -4.171  -0.023  0.00  0.00    -0.285 N 
ATOM     25  C   UNL     1       0.174  -4.852   1.134  0.00  0.00    +0.227 C 
ATOM     26  O   UNL     1       0.172  -4.256   2.191  0.00  0.00    -0.275 OA
ATOM     27  H   UNL     1      -0.018  -4.652  -0.863  0.00  0.00    +0.155 HD
BRANCH  24  32
ATOM     28  C   UNL     1       0.013   1.503   0.016  0.00  0.00    +0.047 C 
ATOM     29  C   UNL     1       0.024  -0.004   0.005  0.00  0.00    -0.015 A 
ATOM     30  C   UNL     1       0.778  -0.695   0.935  0.00  0.00    +0.008 A 
ATOM     31  C   UNL     1       0.791  -2.076   0.928  0.00  0.00    +0.024 A 
ATOM     32  C   UNL     1       0.045  -2.772  -0.014  0.00  0.00    +0.036 A 
ATOM     33  C   UNL     1      -0.713  -2.078  -0.947  0.00  0.00    +0.062 A 
ATOM     34  C   UNL     1      -0.726  -0.694  -0.932  0.00  0.00    +0.128 A 
ATOM     35  F   UNL     1      -1.467  -0.016  -1.836  0.00  0.00    -0.205 F 
ENDBRANCH  24  32
ENDBRANCH  23  25
ENDBRANCH  22  23
ENDBRANCH   1  22
TORSDOF 9
