REMARK  Name = ZINC03890224
REMARK  5 active torsions:
REMARK  status: ('A' for Active; 'I' for Inactive)
REMARK    1  A    between atoms: C_1  and  C_2
REMARK    2  A    between atoms: C_6  and  O_8
REMARK    3  A    between atoms: O_8  and  C_9
REMARK    4  A    between atoms: C_9  and  C_10
REMARK    5  A    between atoms: C_16  and  C_17
REMARK                            x       y       z     vdW  Elec       q    Type
REMARK                         _______ _______ _______ _____ _____    ______ ____
ROOT
ATOM      1  C   UNL     1       0.815  -0.617   0.780  0.00  0.00    +0.137 C 
ATOM      2  N   UNL     1      -0.267   0.095   0.640  0.00  0.00    -0.166 NA
ATOM      3  N   UNL     1      -0.207   1.461   0.464  0.00  0.00    -0.152 N 
ATOM      4  C   UNL     1      -1.317   2.328   0.371  0.00  0.00    +0.153 C 
ATOM      5  N   UNL     1      -2.504   2.026   0.826  0.00  0.00    -0.283 NA
ATOM      6  C   UNL     1      -1.002   3.623  -0.297  0.00  0.00    +0.081 C 
ATOM      7  C   UNL     1      -1.931   4.288  -1.065  0.00  0.00    +0.024 C 
ATOM      8  C   UNL     1       0.367   4.157  -0.089  0.00  0.00    +0.273 C 
ATOM      9  O   UNL     1       0.594   5.353  -0.172  0.00  0.00    -0.268 OA
ATOM     10  N   UNL     1       1.351   3.282   0.195  0.00  0.00    -0.152 NA
ATOM     11  C   UNL     1       1.048   2.026   0.409  0.00  0.00    +0.181 C 
ATOM     12  S   UNL     1       2.100   0.620   0.661  0.00  0.00    -0.035 S 
ATOM     13  H   UNL     1      -2.638   1.204   1.323  0.00  0.00    +0.188 HD
ENDROOT
BRANCH   7  14
ATOM     14  C   UNL     1      -3.210   3.649  -1.385  0.00  0.00    -0.021 A 
ATOM     15  C   UNL     1      -3.280   2.257  -1.545  0.00  0.00    +0.012 A 
ATOM     16  C   UNL     1      -4.484   1.660  -1.840  0.00  0.00    +0.050 A 
ATOM     17  C   UNL     1      -5.631   2.431  -1.991  0.00  0.00    +0.166 A 
ATOM     18  C   UNL     1      -5.568   3.818  -1.838  0.00  0.00    +0.167 A 
ATOM     19  C   UNL     1      -4.367   4.426  -1.537  0.00  0.00    +0.057 A 
ATOM     20  O   UNL     1      -6.817   4.334  -2.036  0.00  0.00    -0.453 OA
ATOM     21  C   UNL     1      -7.556   3.301  -2.712  0.00  0.00    +0.466 C 
ATOM     22  O   UNL     1      -6.917   2.084  -2.283  0.00  0.00    -0.453 OA
ENDBRANCH   7  14
BRANCH   1  23
ATOM     23  C   UNL     1       0.949  -2.103   0.990  0.00  0.00    +0.293 C 
BRANCH  23  24
ATOM     24  O   UNL     1      -0.350  -2.699   1.021  0.00  0.00    -0.485 OA
BRANCH  24  30
ATOM     25  C   UNL     1      -3.025  -6.756   1.474  0.00  0.00    +0.044 C 
ATOM     26  C   UNL     1      -1.691  -6.056   1.430  0.00  0.00    -0.047 A 
ATOM     27  C   UNL     1      -0.524  -6.783   1.575  0.00  0.00    +0.003 A 
ATOM     28  C   UNL     1       0.701  -6.144   1.535  0.00  0.00    +0.004 A 
ATOM     29  C   UNL     1       0.763  -4.777   1.345  0.00  0.00    +0.045 A 
ATOM     30  C   UNL     1      -0.407  -4.044   1.204  0.00  0.00    +0.121 A 
ATOM     31  C   UNL     1      -1.635  -4.688   1.244  0.00  0.00    +0.049 A 
ENDBRANCH  24  30
ENDBRANCH  23  24
ENDBRANCH   1  23
TORSDOF 4
