REMARK  Name = ZINC02141347
REMARK  9 active torsions:
REMARK  status: ('A' for Active; 'I' for Inactive)
REMARK    1  A    between atoms: C_1  and  N_2
REMARK    2  A    between atoms: N_2  and  C_3
REMARK    3  A    between atoms: N_2  and  C_4
REMARK    4  A    between atoms: C_7  and  C_10
REMARK    5  A    between atoms: N_11  and  N_12
REMARK    6  A    between atoms: C_13  and  C_15
REMARK    7  A    between atoms: C_15  and  N_16
REMARK    8  A    between atoms: N_19  and  C_20
REMARK    9  A    between atoms: C_20  and  C_21
REMARK                            x       y       z     vdW  Elec       q    Type
REMARK                         _______ _______ _______ _____ _____    ______ ____
ROOT
ATOM      1  N   UNL     1       0.009  -4.790  -6.122  0.00  0.00    -0.206 N 
ATOM      2  C   UNL     1       0.028  -6.137  -6.130  0.00  0.00    +0.249 C 
ATOM      3  O   UNL     1       0.047  -6.749  -5.082  0.00  0.00    -0.272 OA
ATOM      4  H   UNL     1      -0.006  -4.300  -6.959  0.00  0.00    +0.177 HD
ENDROOT
BRANCH   1   6
ATOM      5  C   UNL     1      -0.006  -2.798  -4.898  0.00  0.00    +0.138 C 
ATOM      6  N   UNL     1       0.012  -4.096  -4.905  0.00  0.00    -0.188 NA
BRANCH   5  10
ATOM      7  C   UNL     1       0.000  -0.695  -1.210  0.00  0.00    +0.029 A 
ATOM      8  C   UNL     1       0.025  -2.086  -1.215  0.00  0.00    +0.024 A 
ATOM      9  C   UNL     1       0.018  -2.771  -2.410  0.00  0.00    +0.011 A 
ATOM     10  C   UNL     1      -0.004  -2.068  -3.617  0.00  0.00    -0.005 A 
ATOM     11  C   UNL     1      -0.023  -0.670  -3.608  0.00  0.00    +0.011 A 
ATOM     12  C   UNL     1      -0.021   0.009  -2.409  0.00  0.00    +0.024 A 
BRANCH   7  14
ATOM     13  C   UNL     1      -0.018   1.461   0.010  0.00  0.00    +0.129 C 
ATOM     14  N   UNL     1       0.002  -0.004   0.002  0.00  0.00    -0.336 N 
ATOM     15  C   UNL     1       0.024  -0.743   1.267  0.00  0.00    +0.129 C 
ENDBRANCH   7  14
ENDBRANCH   5  10
ENDBRANCH   1   6
BRANCH   2  16
ATOM     16  C   UNL     1       0.025  -6.883  -7.439  0.00  0.00    +0.203 C 
BRANCH  16  17
ATOM     17  N   UNL     1       0.048  -8.325  -7.179  0.00  0.00    -0.291 N 
ATOM     18  C   UNL     1       0.050  -9.195  -8.208  0.00  0.00    +0.300 C 
ATOM     19  O   UNL     1       0.032  -8.784  -9.352  0.00  0.00    -0.253 OA
ATOM     20  N   UNL     1       0.071 -10.522  -7.969  0.00  0.00    -0.292 N 
ATOM     21  H   UNL     1       0.062  -8.653  -6.266  0.00  0.00    +0.151 HD
ATOM     22  H   UNL     1       0.084 -10.850  -7.056  0.00  0.00    +0.151 HD
BRANCH  20  23
ATOM     23  C   UNL     1       0.072 -11.467  -9.088  0.00  0.00    +0.180 C 
BRANCH  23  24
ATOM     24  C   UNL     1       0.098 -12.877  -8.554  0.00  0.00    +0.122 A 
ATOM     25  C   UNL     1      -0.980 -13.627  -8.264  0.00  0.00    +0.046 A 
ATOM     26  C   UNL     1      -0.499 -14.871  -7.795  0.00  0.00    +0.041 A 
ATOM     27  C   UNL     1       0.844 -14.806  -7.827  0.00  0.00    +0.195 A 
ATOM     28  O   UNL     1       1.200 -13.598  -8.292  0.00  0.00    -0.466 OA
ENDBRANCH  23  24
ENDBRANCH  20  23
ENDBRANCH  16  17
ENDBRANCH   2  16
TORSDOF 7
