REMARK  Name = ZINC18262884
REMARK  6 active torsions:
REMARK  status: ('A' for Active; 'I' for Inactive)
REMARK    1  A    between atoms: C_1  and  N_2
REMARK    2  A    between atoms: C_3  and  C_20
REMARK    3  A    between atoms: C_6  and  S_7
REMARK    4  A    between atoms: S_7  and  C_8
REMARK    5  A    between atoms: C_8  and  C_9
REMARK    6  A    between atoms: C_17  and  N_19
REMARK                            x       y       z     vdW  Elec       q    Type
REMARK                         _______ _______ _______ _____ _____    ______ ____
ROOT
ATOM      1  C   UNL     1      -5.170  -3.570   0.092  0.00  0.00    +0.153 C 
ENDROOT
BRANCH   1   2
ATOM      2  C   UNL     1      -6.622  -3.938   0.257  0.00  0.00    +0.142 A 
ATOM      3  N   UNL     1      -7.036  -4.341   1.435  0.00  0.00    -0.231 NA
ATOM      4  C   UNL     1      -8.321  -4.673   1.627  0.00  0.00    +0.076 A 
ATOM      5  C   UNL     1      -8.799  -5.102   2.873  0.00  0.00    +0.028 A 
ATOM      6  C   UNL     1     -10.114  -5.434   3.012  0.00  0.00    +0.002 A 
ATOM      7  C   UNL     1     -10.992  -5.351   1.935  0.00  0.00    +0.001 A 
ATOM      8  C   UNL     1     -10.561  -4.936   0.709  0.00  0.00    +0.013 A 
ATOM      9  C   UNL     1      -9.217  -4.590   0.533  0.00  0.00    +0.040 A 
ATOM     10  C   UNL     1      -8.709  -4.152  -0.715  0.00  0.00    +0.127 A 
ATOM     11  N   UNL     1      -7.421  -3.844  -0.793  0.00  0.00    -0.216 NA
BRANCH  10  12
ATOM     12  N   UNL     1      -9.530  -4.050  -1.817  0.00  0.00    -0.343 N 
ATOM     13  H   UNL     1      -9.169  -3.749  -2.665  0.00  0.00    +0.144 HD
ATOM     14  H   UNL     1     -10.470  -4.279  -1.744  0.00  0.00    +0.144 HD
ENDBRANCH  10  12
ENDBRANCH   1   2
BRANCH   1  15
ATOM     15  S   UNL     1      -4.950  -1.808   0.445  0.00  0.00    -0.078 S 
BRANCH  15  21
ATOM     16  C   UNL     1      -2.950   0.813   0.686  0.00  0.00    +0.153 C 
ATOM     17  N   UNL     1      -2.471  -0.519   0.309  0.00  0.00    -0.303 N 
ATOM     18  C   UNL     1      -1.177  -0.884   0.008  0.00  0.00    +0.200 A 
ATOM     19  N   UNL     1      -1.196  -2.167  -0.278  0.00  0.00    -0.125 NA
ATOM     20  N   UNL     1      -2.393  -2.623  -0.170  0.00  0.00    -0.122 NA
ATOM     21  C   UNL     1      -3.214  -1.659   0.183  0.00  0.00    +0.192 A 
BRANCH  18  22
ATOM     22  C   UNL     1       0.002  -0.004   0.002  0.00  0.00    +0.172 A 
ATOM     23  C   UNL     1       1.303  -0.409  -0.013  0.00  0.00    +0.053 A 
ATOM     24  C   UNL     1       2.091   0.758  -0.014  0.00  0.00    +0.042 A 
ATOM     25  C   UNL     1       1.245   1.807  -0.000  0.00  0.00    +0.196 A 
ATOM     26  O   UNL     1      -0.016   1.343   0.009  0.00  0.00    -0.460 OA
ENDBRANCH  18  22
ENDBRANCH  15  21
ENDBRANCH   1  15
TORSDOF 5
