REMARK  Name = ZINC63655431
REMARK  10 active torsions:
REMARK  status: ('A' for Active; 'I' for Inactive)
REMARK    1  A    between atoms: C_1  and  C_2
REMARK    2  A    between atoms: C_2  and  N_3
REMARK    3  A    between atoms: C_7  and  C_9
REMARK    4  A    between atoms: C_9  and  N_10
REMARK    5  A    between atoms: C_11  and  C_13
REMARK    6  A    between atoms: C_15  and  C_26
REMARK    7  A    between atoms: C_17  and  N_20
REMARK    8  A    between atoms: C_26  and  C_27
REMARK    9  A    between atoms: C_28  and  C_34
REMARK   10  A    between atoms: C_31  and  C_33
REMARK                            x       y       z     vdW  Elec       q    Type
REMARK                         _______ _______ _______ _____ _____    ______ ____
ROOT
ATOM      1  C   UNL     1      -3.748  -1.302  -3.741  0.00  0.00    +0.068 C 
ATOM      2  C   UNL     1      -4.564  -1.356  -4.795  0.00  0.00    -0.001 C 
ATOM      3  C   UNL     1      -5.830  -0.561  -4.786  0.00  0.00    +0.045 C 
ATOM      4  C   UNL     1      -6.209  -0.141  -3.342  0.00  0.00    +0.127 C 
ATOM      5  S   UNL     1      -4.540  -0.214  -2.570  0.00  0.00    -0.101 S 
ENDROOT
BRANCH   4   6
ATOM      6  N   UNL     1      -6.764   1.218  -3.305  0.00  0.00    -0.286 NA
ATOM      7  C   UNL     1      -6.835   1.722  -1.926  0.00  0.00    +0.113 C 
ATOM      8  C   UNL     1      -7.362   3.159  -1.939  0.00  0.00    +0.175 C 
ATOM      9  O   UNL     1      -8.634   3.189  -2.593  0.00  0.00    -0.377 OA
ATOM     10  C   UNL     1      -8.601   2.707  -3.938  0.00  0.00    +0.175 C 
ATOM     11  C   UNL     1      -8.087   1.265  -3.946  0.00  0.00    +0.113 C 
ENDBRANCH   4   6
BRANCH   1  13
ATOM     12  N   UNL     1      -1.750  -1.849  -2.441  0.00  0.00    -0.312 N 
ATOM     13  C   UNL     1      -2.460  -2.003  -3.576  0.00  0.00    +0.250 C 
ATOM     14  O   UNL     1      -2.039  -2.719  -4.464  0.00  0.00    -0.270 OA
ATOM     15  H   UNL     1      -2.086  -1.277  -1.732  0.00  0.00    +0.149 HD
BRANCH  12  16
ATOM     16  C   UNL     1      -0.471  -2.544  -2.276  0.00  0.00    +0.089 C 
BRANCH  16  21
ATOM     17  N   UNL     1       0.234  -0.738  -0.763  0.00  0.00    +0.382 N 
ATOM     18  C   UNL     1       1.660  -0.387  -0.592  0.00  0.00    -0.078 C 
ATOM     19  C   UNL     1       2.318  -1.672  -0.029  0.00  0.00    -0.020 C 
ATOM     20  C   UNL     1       1.551  -2.780  -0.798  0.00  0.00    -0.016 C 
ATOM     21  C   UNL     1       0.124  -2.201  -0.909  0.00  0.00    -0.051 C 
ATOM     22  H   UNL     1      -0.127  -0.286  -1.590  0.00  0.00    -0.081 HD
BRANCH  17  24
ATOM     23  C   UNL     1      -0.515   1.228   0.490  0.00  0.00    -0.017 C 
ATOM     24  C   UNL     1      -0.528  -0.300   0.414  0.00  0.00    -0.082 C 
ENDBRANCH  17  24
ENDBRANCH  16  21
ENDBRANCH  12  16
ENDBRANCH   1  13
BRANCH   3  25
ATOM     25  C   UNL     1      -5.643   0.694  -5.641  0.00  0.00    +0.044 C 
BRANCH  25  26
ATOM     26  C   UNL     1      -5.433   0.296  -7.079  0.00  0.00    -0.021 C 
ATOM     27  C   UNL     1      -4.277   0.130  -7.726  0.00  0.00    +0.061 C 
ATOM     28  N   UNL     1      -4.493  -0.231  -9.010  0.00  0.00    -0.159 NA
ATOM     29  N   UNL     1      -5.683  -0.331  -9.320  0.00  0.00    -0.180 NA
ATOM     30  C   UNL     1      -6.486  -0.015  -8.127  0.00  0.00    +0.153 C 
ATOM     31  C   UNL     1      -7.372   1.206  -8.382  0.00  0.00    +0.039 C 
ATOM     32  C   UNL     1      -2.915   0.318  -7.108  0.00  0.00    +0.067 C 
ENDBRANCH  25  26
ENDBRANCH   3  25
TORSDOF 7
