REMARK  Name = ZINC35622463
REMARK  9 active torsions:
REMARK  status: ('A' for Active; 'I' for Inactive)
REMARK    1  A    between atoms: C_1  and  C_2
REMARK    2  A    between atoms: C_5  and  N_8
REMARK    3  A    between atoms: C_9  and  C_13
REMARK    4  A    between atoms: C_13  and  C_14
REMARK    5  A    between atoms: C_13  and  C_15
REMARK    6  A    between atoms: C_13  and  N_16
REMARK    7  A    between atoms: N_16  and  C_17
REMARK    8  A    between atoms: C_22  and  O_23
REMARK    9  A    between atoms: O_23  and  C_24
REMARK                            x       y       z     vdW  Elec       q    Type
REMARK                         _______ _______ _______ _____ _____    ______ ____
ROOT
ATOM      1  C   UNL     1       1.523  -4.357   2.292  0.00  0.00    +0.088 C 
ATOM      2  C   UNL     1       2.594  -3.265   2.300  0.00  0.00    +0.039 C 
ATOM      3  C   UNL     1       0.335  -3.913   3.148  0.00  0.00    +0.039 C 
ENDROOT
BRANCH   1   5
ATOM      4  N   UNL     1       0.689  -5.784   0.349  0.00  0.00    -0.195 N 
ATOM      5  C   UNL     1       1.061  -4.599   0.878  0.00  0.00    +0.179 A 
ATOM      6  N   UNL     1       0.947  -3.700  -0.064  0.00  0.00    -0.111 NA
ATOM      7  N   UNL     1       0.527  -4.236  -1.153  0.00  0.00    -0.023 NA
ATOM      8  N   UNL     1       0.352  -5.503  -0.987  0.00  0.00    -0.039 NA
BRANCH   4  13
ATOM      9  C   UNL     1       0.537 -10.827   2.951  0.00  0.00    +0.044 C 
ATOM     10  C   UNL     1       0.577  -9.488   2.260  0.00  0.00    -0.050 A 
ATOM     11  C   UNL     1       0.061  -8.370   2.890  0.00  0.00    +0.005 A 
ATOM     12  C   UNL     1       0.097  -7.142   2.260  0.00  0.00    +0.028 A 
ATOM     13  C   UNL     1       0.651  -7.030   0.992  0.00  0.00    +0.069 A 
ATOM     14  C   UNL     1       1.168  -8.154   0.361  0.00  0.00    +0.028 A 
ATOM     15  C   UNL     1       1.134  -9.379   0.999  0.00  0.00    +0.005 A 
ENDBRANCH   4  13
ENDBRANCH   1   5
BRANCH   1  16
ATOM     16  N   UNL     1       2.084  -5.595   2.841  0.00  0.00    -0.329 N 
ATOM     17  H   UNL     1       1.707  -5.983   3.646  0.00  0.00    +0.147 HD
BRANCH  16  18
ATOM     18  C   UNL     1       3.164  -6.216   2.203  0.00  0.00    +0.070 A 
ATOM     19  C   UNL     1       3.615  -5.744   0.979  0.00  0.00    +0.026 A 
ATOM     20  C   UNL     1       4.682  -6.359   0.352  0.00  0.00    +0.002 A 
ATOM     21  C   UNL     1       5.302  -7.445   0.942  0.00  0.00    +0.004 A 
ATOM     22  C   UNL     1       4.858  -7.921   2.162  0.00  0.00    +0.047 A 
ATOM     23  C   UNL     1       3.793  -7.307   2.799  0.00  0.00    +0.141 A 
BRANCH  23  24
ATOM     24  O   UNL     1       3.359  -7.771   4.002  0.00  0.00    -0.493 OA
ATOM     25  C   UNL     1       4.051  -8.893   4.553  0.00  0.00    +0.277 C 
ENDBRANCH  23  24
ENDBRANCH  16  18
ENDBRANCH   1  16
TORSDOF 5
