REMARK  Name = ZINC66349324
REMARK  8 active torsions:
REMARK  status: ('A' for Active; 'I' for Inactive)
REMARK    1  A    between atoms: C_13  and  C_14
REMARK    2  A    between atoms: C_14  and  O_15
REMARK    3  A    between atoms: O_15  and  C_16
REMARK    4  A    between atoms: C_16  and  C_18
REMARK    5  A    between atoms: C_18  and  C_19
REMARK    6  A    between atoms: C_18  and  C_23
REMARK    7  A    between atoms: C_18  and  N_30
REMARK    8  A    between atoms: C_19  and  C_20
REMARK                            x       y       z     vdW  Elec       q    Type
REMARK                         _______ _______ _______ _____ _____    ______ ____
ROOT
ATOM      1  C   UNL     1       6.269  -1.857   2.075  0.00  0.00    +0.333 C 
ATOM      2  O   UNL     1       5.868  -1.177   2.989  0.00  0.00    -0.248 OA
ENDROOT
BRANCH   1   3
ATOM      3  O   UNL     1       5.492  -2.062   0.999  0.00  0.00    -0.462 OA
BRANCH   3   4
ATOM      4  C   UNL     1       4.203  -1.444   1.003  0.00  0.00    +0.245 C 
BRANCH   4  17
ATOM      5  C   UNL     1      -0.481  -0.222  -0.502  0.00  0.00    +0.001 A 
ATOM      6  C   UNL     1       0.536   0.714  -0.442  0.00  0.00    +0.000 A 
ATOM      7  C   UNL     1       1.855   0.301  -0.373  0.00  0.00    +0.005 A 
ATOM      8  C   UNL     1       2.158  -1.044  -0.362  0.00  0.00    -0.029 A 
ATOM      9  C   UNL     1       1.141  -1.993  -0.422  0.00  0.00    -0.014 A 
ATOM     10  C   UNL     1      -0.188  -1.569  -0.492  0.00  0.00    +0.009 A 
ATOM     11  C   UNL     1       1.733  -3.354  -0.396  0.00  0.00    -0.014 A 
ATOM     12  C   UNL     1       1.137  -4.616  -0.434  0.00  0.00    +0.009 A 
ATOM     13  C   UNL     1       1.923  -5.750  -0.397  0.00  0.00    +0.001 A 
ATOM     14  C   UNL     1       3.300  -5.641  -0.322  0.00  0.00    +0.000 A 
ATOM     15  C   UNL     1       3.897  -4.393  -0.284  0.00  0.00    +0.005 A 
ATOM     16  C   UNL     1       3.119  -3.255  -0.321  0.00  0.00    -0.029 A 
ATOM     17  C   UNL     1       3.469  -1.788  -0.295  0.00  0.00    +0.088 C 
ENDBRANCH   4  17
ENDBRANCH   3   4
ENDBRANCH   1   3
BRANCH   1  18
ATOM     18  C   UNL     1       7.641  -2.477   2.142  0.00  0.00    +0.153 C 
BRANCH  18  19
ATOM     19  C   UNL     1       8.048  -2.640   3.584  0.00  0.00    +0.019 A 
ATOM     20  C   UNL     1       8.224  -3.904   4.114  0.00  0.00    +0.009 A 
ATOM     21  C   UNL     1       8.598  -4.053   5.437  0.00  0.00    +0.001 A 
ATOM     22  C   UNL     1       8.797  -2.938   6.230  0.00  0.00    +0.003 A 
ATOM     23  C   UNL     1       8.622  -1.674   5.702  0.00  0.00    +0.039 A 
ATOM     24  C   UNL     1       8.253  -1.523   4.376  0.00  0.00    +0.129 A 
ATOM     25  F   UNL     1       8.086  -0.286   3.857  0.00  0.00    -0.205 F 
ENDBRANCH  18  19
BRANCH  18  26
ATOM     26  N   UNL     1       7.616  -3.793   1.489  0.00  0.00    -0.312 NA
ATOM     27  H   UNL     1       6.960  -4.410   1.943  0.00  0.00    +0.120 HD
ATOM     28  H   UNL     1       7.408  -3.704   0.506  0.00  0.00    +0.120 HD
ENDBRANCH  18  26
BRANCH  18  29
ATOM     29  C   UNL     1       8.645  -1.571   1.427  0.00  0.00    +0.163 C 
BRANCH  29  30
ATOM     30  C   UNL     1      10.000  -2.232   1.419  0.00  0.00    +0.359 C 
ATOM     31  O   UNL     1      10.127  -3.368   1.842  0.00  0.00    -0.246 OA
ATOM     32  O   UNL     1      10.969  -1.629   0.989  0.00  0.00    -0.246 OA
ENDBRANCH  29  30
ENDBRANCH  18  29
ENDBRANCH   1  18
TORSDOF 8
