REMARK  Name = ZINC46033400
REMARK  9 active torsions:
REMARK  status: ('A' for Active; 'I' for Inactive)
REMARK    1  A    between atoms: C_1  and  N_2
REMARK    2  A    between atoms: N_2  and  C_3
REMARK    3  A    between atoms: C_6  and  C_10
REMARK    4  A    between atoms: C_10  and  N_11
REMARK    5  A    between atoms: N_14  and  C_15
REMARK    6  A    between atoms: C_18  and  O_23
REMARK    7  A    between atoms: C_19  and  C_21
REMARK    8  A    between atoms: O_23  and  C_24
REMARK    9  A    between atoms: C_24  and  C_25
REMARK                            x       y       z     vdW  Elec       q    Type
REMARK                         _______ _______ _______ _____ _____    ______ ____
ROOT
ATOM      1  N   UNL     1      -2.366  -4.799   1.393  0.00  0.00    -0.295 N 
ATOM      2  C   UNL     1      -2.385  -6.124   1.638  0.00  0.00    +0.304 C 
ATOM      3  O   UNL     1      -2.408  -6.913   0.712  0.00  0.00    -0.252 OA
ATOM      4  N   UNL     1      -2.378  -6.576   2.908  0.00  0.00    -0.269 N 
ATOM      5  H   UNL     1      -2.347  -4.170   2.132  0.00  0.00    +0.151 HD
ATOM      6  H   UNL     1      -2.292  -5.950   3.644  0.00  0.00    +0.156 HD
ENDROOT
BRANCH   4   7
ATOM      7  C   UNL     1      -2.496  -7.949   3.164  0.00  0.00    +0.036 A 
ATOM      8  C   UNL     1      -1.913  -8.868   2.299  0.00  0.00    +0.027 A 
ATOM      9  C   UNL     1      -2.024 -10.223   2.543  0.00  0.00    +0.049 A 
ATOM     10  C   UNL     1      -2.718 -10.675   3.655  0.00  0.00    +0.138 A 
ATOM     11  C   UNL     1      -3.308  -9.755   4.531  0.00  0.00    +0.095 A 
ATOM     12  C   UNL     1      -3.187  -8.386   4.280  0.00  0.00    +0.046 A 
BRANCH  11  13
ATOM     13  C   UNL     1      -4.026 -10.215   5.681  0.00  0.00    +0.103 C 
ATOM     14  N   UNL     1      -4.596 -10.580   6.594  0.00  0.00    -0.191 NA
ENDBRANCH  11  13
BRANCH  10  15
ATOM     15  O   UNL     1      -2.826 -12.008   3.893  0.00  0.00    -0.482 OA
BRANCH  15  16
ATOM     16  C   UNL     1      -2.200 -12.887   2.957  0.00  0.00    +0.342 C 
BRANCH  16  17
ATOM     17  C   UNL     1      -2.428 -14.337   3.389  0.00  0.00    +0.424 C 
ATOM     18  F   UNL     1      -3.801 -14.601   3.430  0.00  0.00    -0.167 F 
ATOM     19  F   UNL     1      -1.815 -15.198   2.472  0.00  0.00    -0.167 F 
ATOM     20  F   UNL     1      -1.875 -14.538   4.658  0.00  0.00    -0.167 F 
ENDBRANCH  16  17
ENDBRANCH  15  16
ENDBRANCH  10  15
ENDBRANCH   4   7
BRANCH   1  21
ATOM     21  C   UNL     1      -2.373  -4.308   0.013  0.00  0.00    +0.141 C 
BRANCH  21  27
ATOM     22  C   UNL     1       0.024   1.446   0.002  0.00  0.00    +0.130 C 
ATOM     23  N   UNL     1       0.034  -0.019  -0.006  0.00  0.00    -0.323 N 
ATOM     24  C   UNL     1       1.308  -0.743  -0.027  0.00  0.00    +0.130 C 
ATOM     25  C   UNL     1      -1.165  -0.723   0.006  0.00  0.00    +0.098 A 
ATOM     26  C   UNL     1      -1.148  -2.114   0.004  0.00  0.00    +0.047 A 
ATOM     27  C   UNL     1      -2.348  -2.801   0.015  0.00  0.00    -0.026 A 
ATOM     28  C   UNL     1      -3.530  -2.072   0.029  0.00  0.00    +0.023 A 
ATOM     29  C   UNL     1      -3.473  -0.693   0.031  0.00  0.00    +0.084 A 
ATOM     30  N   UNL     1      -2.313  -0.063   0.025  0.00  0.00    -0.350 N 
ATOM     31  H   UNL     1      -2.301   0.907   0.030  0.00  0.00    +0.166 HD
ENDBRANCH  21  27
ENDBRANCH   1  21
TORSDOF 7
