REMARK  Name = ZINC66614014
REMARK  10 active torsions:
REMARK  status: ('A' for Active; 'I' for Inactive)
REMARK    1  A    between atoms: C_1  and  C_2
REMARK    2  A    between atoms: C_2  and  C_4
REMARK    3  A    between atoms: C_2  and  N_14
REMARK    4  A    between atoms: C_7  and  N_10
REMARK    5  A    between atoms: C_15  and  C_17
REMARK    6  A    between atoms: C_18  and  C_19
REMARK    7  A    between atoms: C_23  and  O_25
REMARK    8  A    between atoms: O_25  and  C_26
REMARK    9  A    between atoms: C_26  and  C_27
REMARK   10  A    between atoms: C_26  and  C_28
REMARK                            x       y       z     vdW  Elec       q    Type
REMARK                         _______ _______ _______ _____ _____    ______ ____
ROOT
ATOM      1  N   UNL     1      -2.097  -0.339  -0.739  0.00  0.00    -0.305 N 
ATOM      2  C   UNL     1      -2.764  -0.543   0.414  0.00  0.00    +0.237 C 
ATOM      3  O   UNL     1      -2.382  -0.012   1.440  0.00  0.00    -0.271 OA
ATOM      4  H   UNL     1      -2.402  -0.762  -1.557  0.00  0.00    +0.150 HD
ENDROOT
BRANCH   1   6
ATOM      5  C   UNL     1      -1.343   1.981  -0.919  0.00  0.00    +0.033 C 
ATOM      6  C   UNL     1      -0.912   0.522  -0.757  0.00  0.00    +0.100 C 
BRANCH   6   7
ATOM      7  C   UNL     1      -0.024   0.130  -1.910  0.00  0.00    -0.027 A 
ATOM      8  C   UNL     1      -0.583  -0.201  -3.130  0.00  0.00    +0.007 A 
ATOM      9  C   UNL     1       0.228  -0.561  -4.188  0.00  0.00    +0.023 A 
ATOM     10  C   UNL     1       1.607  -0.590  -4.026  0.00  0.00    +0.035 A 
ATOM     11  C   UNL     1       2.166  -0.257  -2.799  0.00  0.00    +0.023 A 
ATOM     12  C   UNL     1       1.349   0.107  -1.746  0.00  0.00    +0.007 A 
BRANCH  10  13
ATOM     13  N   UNL     1       2.432  -0.955  -5.096  0.00  0.00    -0.270 N 
ATOM     14  C   UNL     1       2.076  -0.644  -6.358  0.00  0.00    +0.301 C 
ATOM     15  O   UNL     1       1.089   0.036  -6.561  0.00  0.00    -0.253 OA
ATOM     16  N   UNL     1       2.814  -1.086  -7.395  0.00  0.00    -0.313 N 
ATOM     17  H   UNL     1       3.260  -1.432  -4.929  0.00  0.00    +0.156 HD
ATOM     18  H   UNL     1       3.601  -1.629  -7.233  0.00  0.00    +0.146 HD
ATOM     19  H   UNL     1       2.557  -0.862  -8.303  0.00  0.00    +0.146 HD
ENDBRANCH  10  13
ENDBRANCH   6   7
ENDBRANCH   1   6
BRANCH   2  20
ATOM     20  C   UNL     1      -3.949  -1.403   0.432  0.00  0.00    +0.068 C 
ATOM     21  C   UNL     1      -4.616  -1.607   1.585  0.00  0.00    +0.013 C 
BRANCH  21  22
ATOM     22  C   UNL     1      -5.807  -2.472   1.604  0.00  0.00    -0.021 A 
ATOM     23  C   UNL     1      -6.246  -3.088   0.427  0.00  0.00    +0.008 A 
ATOM     24  C   UNL     1      -7.362  -3.898   0.449  0.00  0.00    +0.004 A 
ATOM     25  C   UNL     1      -8.050  -4.103   1.631  0.00  0.00    +0.046 A 
ATOM     26  C   UNL     1      -7.623  -3.496   2.805  0.00  0.00    +0.121 A 
ATOM     27  C   UNL     1      -6.501  -2.686   2.798  0.00  0.00    +0.053 A 
BRANCH  26  28
ATOM     28  O   UNL     1      -8.305  -3.702   3.962  0.00  0.00    -0.489 OA
BRANCH  28  29
ATOM     29  C   UNL     1      -9.517  -4.453   3.877  0.00  0.00    +0.167 C 
ATOM     30  C   UNL     1      -9.196  -5.948   3.929  0.00  0.00    +0.051 C 
ATOM     31  C   UNL     1     -10.429  -4.086   5.049  0.00  0.00    +0.051 C 
ENDBRANCH  28  29
ENDBRANCH  26  28
ENDBRANCH  21  22
ENDBRANCH   2  20
TORSDOF 7
