REMARK  Name = ZINC36591932
REMARK  16 active torsions:
REMARK  status: ('A' for Active; 'I' for Inactive)
REMARK    1  A    between atoms: C_1  and  C_2
REMARK    2  A    between atoms: C_5  and  S_8
REMARK    3  A    between atoms: S_8  and  C_11
REMARK    4  A    between atoms: C_11  and  N_12
REMARK    5  A    between atoms: C_13  and  C_15
REMARK    6  A    between atoms: C_15  and  C_17
REMARK    7  A    between atoms: C_15  and  N_26
REMARK    8  A    between atoms: C_18  and  O_25
REMARK    9  A    between atoms: C_20  and  O_24
REMARK   10  A    between atoms: C_22  and  O_23
REMARK   11  A    between atoms: N_26  and  C_32
REMARK   12  A    between atoms: C_27  and  C_29
REMARK   13  A    between atoms: C_29  and  C_31
REMARK   14  A    between atoms: C_32  and  C_33
REMARK   15  A    between atoms: C_32  and  C_34
REMARK   16  A    between atoms: C_32  and  C_35
REMARK                            x       y       z     vdW  Elec       q    Type
REMARK                         _______ _______ _______ _____ _____    ______ ____
ROOT
ATOM      1  C   UNL     1       1.637  -4.341   4.195  0.00  0.00    +0.200 C 
ENDROOT
BRANCH   1   2
ATOM      2  C   UNL     1       2.879  -4.787   3.467  0.00  0.00    +0.065 A 
ATOM      3  C   UNL     1       3.678  -5.785   4.004  0.00  0.00    +0.129 A 
ATOM      4  C   UNL     1       4.820  -6.195   3.334  0.00  0.00    +0.091 A 
ATOM      5  C   UNL     1       5.164  -5.607   2.126  0.00  0.00    +0.124 A 
ATOM      6  C   UNL     1       4.366  -4.609   1.589  0.00  0.00    +0.091 A 
ATOM      7  C   UNL     1       3.220  -4.202   2.257  0.00  0.00    +0.129 A 
BRANCH   7   8
ATOM      8  O   UNL     1       2.435  -3.228   1.728  0.00  0.00    -0.506 OA
ATOM      9  H   UNL     1       2.595  -2.349   2.098  0.00  0.00    +0.292 HD
ENDBRANCH   7   8
BRANCH   5  10
ATOM     10  O   UNL     1       6.285  -6.008   1.470  0.00  0.00    -0.507 OA
ATOM     11  H   UNL     1       6.138  -6.734   0.849  0.00  0.00    +0.292 HD
ENDBRANCH   5  10
BRANCH   3  12
ATOM     12  O   UNL     1       3.340  -6.362   5.188  0.00  0.00    -0.506 OA
ATOM     13  H   UNL     1       2.753  -7.125   5.100  0.00  0.00    +0.292 HD
ENDBRANCH   3  12
ENDBRANCH   1   2
BRANCH   1  15
ATOM     14  N   UNL     1      -0.313  -4.756   2.732  0.00  0.00    -0.294 N 
ATOM     15  C   UNL     1       0.466  -5.177   3.748  0.00  0.00    +0.240 C 
ATOM     16  O   UNL     1       0.223  -6.228   4.303  0.00  0.00    -0.273 OA
ATOM     17  H   UNL     1      -0.119  -3.916   2.288  0.00  0.00    +0.150 HD
BRANCH  14  18
ATOM     18  C   UNL     1      -1.452  -5.569   2.297  0.00  0.00    +0.278 C 
BRANCH  18  19
ATOM     19  S   UNL     1      -2.959  -4.986   3.120  0.00  0.00    +0.013 S 
ATOM     20  O   UNL     1      -2.723  -4.816   4.511  0.00  0.00    -0.168 OA
ATOM     21  O   UNL     1      -4.084  -5.723   2.661  0.00  0.00    -0.168 OA
BRANCH  19  26
ATOM     22  C   UNL     1      -3.819   0.603   1.014  0.00  0.00    +0.044 C 
ATOM     23  C   UNL     1      -3.604  -0.793   1.540  0.00  0.00    -0.050 A 
ATOM     24  C   UNL     1      -4.165  -1.873   0.884  0.00  0.00    +0.005 A 
ATOM     25  C   UNL     1      -3.968  -3.153   1.366  0.00  0.00    +0.027 A 
ATOM     26  C   UNL     1      -3.210  -3.354   2.505  0.00  0.00    +0.090 A 
ATOM     27  C   UNL     1      -2.648  -2.274   3.160  0.00  0.00    +0.027 A 
ATOM     28  C   UNL     1      -2.842  -0.994   2.675  0.00  0.00    +0.005 A 
ENDBRANCH  19  26
ENDBRANCH  18  19
ENDBRANCH  14  18
ENDBRANCH   1  15
BRANCH   1  29
ATOM     29  N   UNL     1       1.832  -4.506   5.638  0.00  0.00    -0.277 N 
ATOM     30  C   UNL     1       2.778  -3.788   6.277  0.00  0.00    +0.243 C 
ATOM     31  O   UNL     1       3.180  -4.146   7.367  0.00  0.00    -0.270 OA
BRANCH  29  32
ATOM     32  C   UNL     1       0.999  -5.450   6.387  0.00  0.00    +0.030 C 
ATOM     33  C   UNL     1       1.307  -6.877   5.929  0.00  0.00    +0.031 C 
ATOM     34  C   UNL     1       1.297  -5.319   7.882  0.00  0.00    +0.031 C 
ATOM     35  C   UNL     1      -0.478  -5.140   6.132  0.00  0.00    +0.031 C 
ENDBRANCH  29  32
BRANCH  30  36
ATOM     36  C   UNL     1       3.324  -2.572   5.654  0.00  0.00    +0.004 C 
ATOM     37  C   UNL     1       4.405  -1.991   6.167  0.00  0.00    +0.017 C 
ATOM     38  C   UNL     1       2.658  -1.986   4.436  0.00  0.00    +0.048 C 
ENDBRANCH  30  36
ENDBRANCH   1  29
TORSDOF 11
