REMARK  Name = ZINC39709620
REMARK  6 active torsions:
REMARK  status: ('A' for Active; 'I' for Inactive)
REMARK    1  A    between atoms: C_1  and  C_2
REMARK    2  A    between atoms: C_7  and  C_12
REMARK    3  A    between atoms: C_12  and  C_33
REMARK    4  A    between atoms: C_13  and  C_14
REMARK    5  A    between atoms: N_17  and  C_24
REMARK    6  A    between atoms: C_24  and  C_25
REMARK                            x       y       z     vdW  Elec       q    Type
REMARK                         _______ _______ _______ _____ _____    ______ ____
ROOT
ATOM      1  C   UNL     1      -0.137  -6.779   2.973  0.00  0.00    +0.062 C 
ATOM      2  C   UNL     1      -0.388  -6.773   4.490  0.00  0.00    +0.118 C 
ATOM      3  N   UNL     1      -0.557  -8.181   4.857  0.00  0.00    -0.320 N 
ATOM      4  C   UNL     1      -0.431  -8.990   3.727  0.00  0.00    +0.034 A 
ATOM      5  C   UNL     1      -0.185  -8.240   2.584  0.00  0.00    -0.018 A 
ATOM      6  C   UNL     1      -0.030  -8.857   1.358  0.00  0.00    +0.006 A 
ATOM      7  C   UNL     1      -0.120 -10.233   1.256  0.00  0.00    +0.000 A 
ATOM      8  C   UNL     1      -0.365 -10.991   2.386  0.00  0.00    +0.002 A 
ATOM      9  C   UNL     1      -0.519 -10.379   3.619  0.00  0.00    +0.023 A 
ENDROOT
BRANCH   1  11
ATOM     10  C   UNL     1       1.315  -5.095   1.923  0.00  0.00    +0.068 C 
ATOM     11  C   UNL     1       1.218  -6.197   2.662  0.00  0.00    +0.001 C 
BRANCH  10  18
ATOM     12  C   UNL     1       0.122   0.955  -1.367  0.00  0.00    +0.044 C 
ATOM     13  C   UNL     1       0.042  -0.506  -1.006  0.00  0.00    -0.048 A 
ATOM     14  C   UNL     1      -0.201  -1.441  -2.028  0.00  0.00    +0.005 A 
ATOM     15  C   UNL     1      -0.288  -2.766  -1.795  0.00  0.00    +0.027 A 
ATOM     16  C   UNL     1      -0.127  -3.273  -0.425  0.00  0.00    +0.060 A 
ATOM     17  N   UNL     1      -0.161  -4.470   0.085  0.00  0.00    -0.359 N 
ATOM     18  C   UNL     1       0.071  -4.340   1.529  0.00  0.00    +0.216 C 
ATOM     19  N   UNL     1       0.245  -2.907   1.793  0.00  0.00    -0.359 N 
ATOM     20  C   UNL     1       0.130  -2.283   0.656  0.00  0.00    +0.061 A 
ATOM     21  C   UNL     1       0.210  -0.865   0.282  0.00  0.00    +0.030 A 
ATOM     22  H   UNL     1      -0.312  -5.297  -0.400  0.00  0.00    +0.162 HD
ATOM     23  H   UNL     1       0.414  -2.499   2.657  0.00  0.00    +0.162 HD
ENDBRANCH  10  18
BRANCH  10  24
ATOM     24  C   UNL     1       2.600  -4.625   1.503  0.00  0.00    +0.098 C 
ATOM     25  N   UNL     1       3.620  -4.253   1.169  0.00  0.00    -0.191 NA
ENDBRANCH  10  24
ENDBRANCH   1  11
BRANCH   3  26
ATOM     26  C   UNL     1      -0.820  -8.669   6.214  0.00  0.00    +0.201 C 
BRANCH  26  27
ATOM     27  C   UNL     1      -2.307  -8.729   6.447  0.00  0.00    +0.233 C 
ATOM     28  O   UNL     1      -3.073  -8.398   5.566  0.00  0.00    -0.274 OA
ATOM     29  N   UNL     1      -2.787  -9.152   7.633  0.00  0.00    -0.296 N 
ATOM     30  C   UNL     1      -1.878  -9.554   8.718  0.00  0.00    +0.136 C 
ATOM     31  C   UNL     1      -2.294  -8.816   9.995  0.00  0.00    +0.179 C 
ATOM     32  O   UNL     1      -3.689  -9.024  10.226  0.00  0.00    -0.377 OA
ATOM     33  C   UNL     1      -4.537  -8.503   9.200  0.00  0.00    +0.179 C 
ATOM     34  C   UNL     1      -4.235  -9.220   7.883  0.00  0.00    +0.136 C 
ENDBRANCH  26  27
ENDBRANCH   3  26
TORSDOF 5
