REMARK  Name = ZINC20295784
REMARK  5 active torsions:
REMARK  status: ('A' for Active; 'I' for Inactive)
REMARK    1  A    between atoms: C_1  and  C_2
REMARK    2  A    between atoms: C_3  and  C_11
REMARK    3  A    between atoms: C_7  and  N_8
REMARK    4  A    between atoms: N_13  and  N_14
REMARK    5  A    between atoms: C_15  and  C_16
REMARK                            x       y       z     vdW  Elec       q    Type
REMARK                         _______ _______ _______ _____ _____    ______ ____
ROOT
ATOM      1  C   UNL     1       2.056   8.643  -0.064  0.00  0.00    +0.264 C 
ATOM      2  O   UNL     1       3.216   8.277  -0.059  0.00  0.00    -0.268 OA
ATOM      3  N   UNL     1       1.063   7.735  -0.120  0.00  0.00    -0.203 N 
ATOM      4  H   UNL     1       0.014   8.066  -0.124  0.00  0.00    +0.178 HD
ENDROOT
BRANCH   1   7
ATOM      5  C   UNL     1       4.181  10.565   0.347  0.00  0.00    +0.047 C 
ATOM      6  C   UNL     1       2.753  11.022   0.191  0.00  0.00    -0.008 A 
ATOM      7  C   UNL     1       1.737  10.085  -0.007  0.00  0.00    +0.043 A 
ATOM      8  C   UNL     1       0.416  10.516  -0.145  0.00  0.00    +0.013 A 
ATOM      9  C   UNL     1       0.125  11.864  -0.091  0.00  0.00    +0.003 A 
ATOM     10  C   UNL     1       1.137  12.787   0.100  0.00  0.00    +0.033 A 
ATOM     11  C   UNL     1       2.449  12.366   0.238  0.00  0.00    +0.130 A 
BRANCH  11  12
ATOM     12  N   UNL     1       3.526  13.361   0.441  0.00  0.00    +0.057 N 
ATOM     13  O   UNL     1       3.247  14.534   0.611  0.00  0.00    -0.126 OA
ATOM     14  O   UNL     1       4.691  13.006   0.438  0.00  0.00    -0.126 OA
ENDBRANCH  11  12
ENDBRANCH   1   7
BRANCH   3  15
ATOM     15  N   UNL     1       1.366   6.368  -0.173  0.00  0.00    -0.187 NA
ATOM     16  C   UNL     1       0.408   5.492  -0.228  0.00  0.00    +0.145 C 
BRANCH  16  17
ATOM     17  C   UNL     1       0.727   4.055  -0.284  0.00  0.00    +0.077 A 
ATOM     18  C   UNL     1      -0.267   3.123  -0.342  0.00  0.00    +0.209 A 
ATOM     19  O   UNL     1      -0.019   1.814  -0.400  0.00  0.00    -0.462 OA
ATOM     20  C   UNL     1       1.224   1.293  -0.395  0.00  0.00    +0.138 A 
ATOM     21  C   UNL     1       1.413  -0.084  -0.452  0.00  0.00    +0.047 A 
ATOM     22  C   UNL     1       2.689  -0.605  -0.452  0.00  0.00    +0.004 A 
ATOM     23  C   UNL     1       3.796   0.229  -0.397  0.00  0.00    +0.001 A 
ATOM     24  C   UNL     1       3.632   1.596  -0.341  0.00  0.00    +0.015 A 
ATOM     25  C   UNL     1       2.346   2.135  -0.339  0.00  0.00    +0.065 A 
ATOM     26  C   UNL     1       2.128   3.594  -0.280  0.00  0.00    +0.201 A 
ATOM     27  O   UNL     1       3.059   4.378  -0.229  0.00  0.00    -0.286 OA
ENDBRANCH  16  17
ENDBRANCH   3  15
TORSDOF 4
