REMARK  Name = ZINC67539180
REMARK  10 active torsions:
REMARK  status: ('A' for Active; 'I' for Inactive)
REMARK    1  A    between atoms: C_1  and  C_2
REMARK    2  A    between atoms: C_9  and  C_11
REMARK    3  A    between atoms: C_11  and  C_13
REMARK    4  A    between atoms: C_11  and  N_14
REMARK    5  A    between atoms: N_17  and  C_18
REMARK    6  A    between atoms: C_21  and  C_24
REMARK    7  A    between atoms: N_26  and  C_27
REMARK    8  A    between atoms: C_27  and  C_28
REMARK    9  A    between atoms: C_27  and  C_29
REMARK   10  A    between atoms: C_27  and  C_30
REMARK                            x       y       z     vdW  Elec       q    Type
REMARK                         _______ _______ _______ _____ _____    ______ ____
ROOT
ATOM      1  N   UNL     1       2.920   0.978   3.767  0.00  0.00    -0.288 N 
ATOM      2  C   UNL     1       4.076   0.860   4.449  0.00  0.00    +0.304 C 
ATOM      3  O   UNL     1       4.708  -0.178   4.400  0.00  0.00    -0.252 OA
ATOM      4  N   UNL     1       4.532   1.892   5.187  0.00  0.00    -0.269 N 
ATOM      5  H   UNL     1       2.416   1.806   3.807  0.00  0.00    +0.151 HD
ATOM      6  H   UNL     1       3.995   2.694   5.283  0.00  0.00    +0.156 HD
ENDROOT
BRANCH   4   7
ATOM      7  C   UNL     1       5.775   1.807   5.812  0.00  0.00    +0.035 A 
ATOM      8  C   UNL     1       6.816   1.118   5.197  0.00  0.00    +0.024 A 
ATOM      9  C   UNL     1       8.044   1.032   5.811  0.00  0.00    +0.015 A 
ATOM     10  C   UNL     1       8.246   1.638   7.054  0.00  0.00    +0.037 A 
ATOM     11  C   UNL     1       7.199   2.330   7.669  0.00  0.00    +0.015 A 
ATOM     12  C   UNL     1       5.974   2.416   7.047  0.00  0.00    +0.024 A 
BRANCH  10  13
ATOM     13  C   UNL     1       9.562   1.547   7.716  0.00  0.00    +0.244 C 
ATOM     14  O   UNL     1      10.472   0.945   7.180  0.00  0.00    -0.270 OA
ATOM     15  N   UNL     1       9.756   2.132   8.914  0.00  0.00    -0.307 N 
ATOM     16  H   UNL     1       9.030   2.613   9.342  0.00  0.00    +0.150 HD
BRANCH  15  17
ATOM     17  C   UNL     1      11.062   2.043   9.571  0.00  0.00    +0.026 C 
ATOM     18  C   UNL     1      12.128   2.675   8.675  0.00  0.00    +0.031 C 
ATOM     19  C   UNL     1      11.013   2.786  10.908  0.00  0.00    +0.031 C 
ATOM     20  C   UNL     1      11.409   0.573   9.817  0.00  0.00    +0.031 C 
ENDBRANCH  15  17
ENDBRANCH  10  13
ENDBRANCH   4   7
BRANCH   1  21
ATOM     21  C   UNL     1       2.424  -0.144   2.966  0.00  0.00    +0.157 C 
ATOM     22  C   UNL     1       1.629  -1.098   3.860  0.00  0.00    +0.038 C 
BRANCH  21  30
ATOM     23  C   UNL     1       0.011   1.544  -0.015  0.00  0.00    +0.028 C 
ATOM     24  C   UNL     1       0.355   0.072  -0.256  0.00  0.00    +0.073 C 
ATOM     25  C   UNL     1      -0.936  -0.741  -0.397  0.00  0.00    +0.022 C 
ATOM     26  C   UNL     1      -0.590  -2.228  -0.497  0.00  0.00    +0.003 C 
ATOM     27  C   UNL     1       0.125  -2.674   0.780  0.00  0.00    +0.019 C 
ATOM     28  C   UNL     1       1.428  -1.884   0.935  0.00  0.00    +0.108 C 
ATOM     29  N   UNL     1       1.121  -0.447   0.885  0.00  0.00    -0.297 N 
ATOM     30  C   UNL     1       1.532   0.378   1.869  0.00  0.00    +0.236 C 
ATOM     31  O   UNL     1       1.184   1.539   1.871  0.00  0.00    -0.274 OA
ENDBRANCH  21  30
ENDBRANCH   1  21
TORSDOF 5
