REMARK  Name = ZINC01950139
REMARK  12 active torsions:
REMARK  status: ('A' for Active; 'I' for Inactive)
REMARK    1  A    between atoms: C_1  and  C_2
REMARK    2  A    between atoms: C_3  and  O_34
REMARK    3  A    between atoms: C_4  and  C_10
REMARK    4  A    between atoms: C_5  and  C_8
REMARK    5  A    between atoms: C_8  and  O_9
REMARK    6  A    between atoms: N_11  and  N_12
REMARK    7  A    between atoms: C_13  and  C_15
REMARK    8  A    between atoms: C_15  and  N_25
REMARK    9  A    between atoms: C_16  and  C_17
REMARK   10  A    between atoms: C_20  and  O_23
REMARK   11  A    between atoms: O_23  and  C_24
REMARK   12  A    between atoms: C_26  and  C_28
REMARK                            x       y       z     vdW  Elec       q    Type
REMARK                         _______ _______ _______ _____ _____    ______ ____
ROOT
ATOM      1  C   UNL     1      -0.218  -3.014  -7.361  0.00  0.00    +0.098 C 
ATOM      2  C   UNL     1       0.112  -2.316  -8.474  0.00  0.00    +0.036 C 
ENDROOT
BRANCH   2   3
ATOM      3  C   UNL     1       0.258  -3.010  -9.761  0.00  0.00    -0.023 A 
ATOM      4  C   UNL     1      -0.346  -4.257  -9.959  0.00  0.00    +0.011 A 
ATOM      5  C   UNL     1      -0.206  -4.904 -11.166  0.00  0.00    +0.046 A 
ATOM      6  C   UNL     1       0.532  -4.320 -12.188  0.00  0.00    +0.120 A 
ATOM      7  C   UNL     1       1.134  -3.081 -11.998  0.00  0.00    +0.046 A 
ATOM      8  C   UNL     1       0.996  -2.424 -10.796  0.00  0.00    +0.011 A 
BRANCH   6   9
ATOM      9  O   UNL     1       0.667  -4.962 -13.378  0.00  0.00    -0.495 OA
ATOM     10  C   UNL     1       1.440  -4.305 -14.385  0.00  0.00    +0.277 C 
ENDBRANCH   6   9
ENDBRANCH   2   3
BRANCH   1  12
ATOM     11  N   UNL     1      -0.841  -3.000  -5.003  0.00  0.00    -0.202 N 
ATOM     12  C   UNL     1      -0.513  -2.305  -6.111  0.00  0.00    +0.277 C 
ATOM     13  O   UNL     1      -0.462  -1.090  -6.073  0.00  0.00    -0.267 OA
ATOM     14  H   UNL     1      -0.882  -3.969  -5.033  0.00  0.00    +0.178 HD
BRANCH  11  16
ATOM     15  C   UNL     1      -1.439  -2.993  -2.743  0.00  0.00    +0.142 C 
ATOM     16  N   UNL     1      -1.123  -2.323  -3.809  0.00  0.00    -0.187 NA
BRANCH  15  20
ATOM     17  C   UNL     1      -1.917   1.249  -0.129  0.00  0.00    +0.069 C 
ATOM     18  C   UNL     1      -1.969  -0.254  -0.218  0.00  0.00    +0.080 A 
ATOM     19  C   UNL     1      -1.682  -0.878  -1.421  0.00  0.00    +0.147 A 
ATOM     20  C   UNL     1      -1.735  -2.281  -1.487  0.00  0.00    +0.045 A 
ATOM     21  C   UNL     1      -2.079  -2.983  -0.324  0.00  0.00    +0.008 A 
ATOM     22  C   UNL     1      -2.349  -2.277   0.829  0.00  0.00    +0.117 A 
ATOM     23  N   UNL     1      -2.283  -0.959   0.851  0.00  0.00    -0.256 NA
BRANCH  19  24
ATOM     24  O   UNL     1      -1.355  -0.147  -2.518  0.00  0.00    -0.504 OA
ATOM     25  H   UNL     1      -0.407   0.022  -2.610  0.00  0.00    +0.292 HD
ENDBRANCH  19  24
BRANCH  21  26
ATOM     26  C   UNL     1      -2.152  -4.488  -0.334  0.00  0.00    +0.193 C 
BRANCH  26  27
ATOM     27  O   UNL     1      -2.520  -4.955   0.966  0.00  0.00    -0.390 OA
ATOM     28  H   UNL     1      -2.587  -5.918   1.034  0.00  0.00    +0.210 HD
ENDBRANCH  26  27
ENDBRANCH  21  26
ENDBRANCH  15  20
ENDBRANCH  11  16
ENDBRANCH   1  12
BRANCH   1  29
ATOM     29  N   UNL     1      -0.277  -4.411  -7.404  0.00  0.00    -0.277 N 
ATOM     30  C   UNL     1      -1.420  -5.048  -7.082  0.00  0.00    +0.248 C 
ATOM     31  O   UNL     1      -2.365  -4.418  -6.649  0.00  0.00    -0.270 OA
ATOM     32  H   UNL     1       0.506  -4.922  -7.666  0.00  0.00    +0.155 HD
BRANCH  30  33
ATOM     33  C   UNL     1      -1.525  -6.512  -7.255  0.00  0.00    +0.037 A 
ATOM     34  C   UNL     1      -0.406  -7.255  -7.636  0.00  0.00    +0.013 A 
ATOM     35  C   UNL     1      -0.511  -8.621  -7.795  0.00  0.00    +0.001 A 
ATOM     36  C   UNL     1      -1.721  -9.255  -7.578  0.00  0.00    +0.000 A 
ATOM     37  C   UNL     1      -2.834  -8.525  -7.200  0.00  0.00    +0.001 A 
ATOM     38  C   UNL     1      -2.742  -7.159  -7.032  0.00  0.00    +0.013 A 
ENDBRANCH  30  33
ENDBRANCH   1  29
TORSDOF 10
