REMARK  Name = ZINC11709946
REMARK  6 active torsions:
REMARK  status: ('A' for Active; 'I' for Inactive)
REMARK    1  A    between atoms: C_1  and  C_2
REMARK    2  A    between atoms: C_2  and  C_4
REMARK    3  A    between atoms: C_2  and  S_17
REMARK    4  A    between atoms: N_6  and  C_7
REMARK    5  A    between atoms: C_11  and  N_13
REMARK    6  A    between atoms: S_17  and  C_18
REMARK                            x       y       z     vdW  Elec       q    Type
REMARK                         _______ _______ _______ _____ _____    ______ ____
ROOT
ATOM      1  C   UNL     1       6.548   0.127  -0.182  0.00  0.00    +0.230 C 
ATOM      2  O   UNL     1       6.772  -1.032   0.097  0.00  0.00    -0.274 OA
ATOM      3  N   UNL     1       7.547   0.923  -0.610  0.00  0.00    -0.285 N 
ATOM      4  H   UNL     1       7.356   1.830  -0.897  0.00  0.00    +0.155 HD
ENDROOT
BRANCH   3   5
ATOM      5  C   UNL     1       8.862   0.441  -0.641  0.00  0.00    +0.036 A 
ATOM      6  C   UNL     1       9.922   1.295  -0.364  0.00  0.00    +0.026 A 
ATOM      7  C   UNL     1      11.217   0.816  -0.389  0.00  0.00    +0.042 A 
ATOM      8  C   UNL     1      11.460  -0.511  -0.701  0.00  0.00    +0.154 A 
ATOM      9  C   UNL     1      10.405  -1.362  -0.983  0.00  0.00    +0.163 A 
ATOM     10  C   UNL     1       9.108  -0.889  -0.953  0.00  0.00    +0.059 A 
ATOM     11  F   UNL     1      12.728  -0.976  -0.731  0.00  0.00    -0.203 F 
BRANCH   9  12
ATOM     12  N   UNL     1      10.668  -2.780  -1.316  0.00  0.00    +0.059 N 
ATOM     13  O   UNL     1       9.740  -3.530  -1.564  0.00  0.00    -0.126 OA
ATOM     14  O   UNL     1      11.812  -3.198  -1.342  0.00  0.00    -0.126 OA
ENDBRANCH   9  12
ENDBRANCH   3   5
BRANCH   1  16
ATOM     15  C   UNL     1       5.033   1.462   1.257  0.00  0.00    +0.029 C 
ATOM     16  C   UNL     1       5.151   0.676  -0.050  0.00  0.00    +0.136 C 
BRANCH  16  17
ATOM     17  S   UNL     1       3.961  -0.693  -0.041  0.00  0.00    -0.093 S 
BRANCH  17  18
ATOM     18  C   UNL     1       2.391   0.107  -0.032  0.00  0.00    +0.098 A 
ATOM     19  C   UNL     1       1.227  -0.657  -0.025  0.00  0.00    +0.035 A 
ATOM     20  C   UNL     1       0.002  -0.016  -0.017  0.00  0.00    +0.004 A 
ATOM     21  C   UNL     1      -0.020   1.373  -0.018  0.00  0.00    +0.020 A 
ATOM     22  C   UNL     1       1.173   2.068  -0.027  0.00  0.00    +0.112 A 
ATOM     23  N   UNL     1       2.328   1.430  -0.033  0.00  0.00    -0.249 NA
ENDBRANCH  17  18
ENDBRANCH  16  17
ENDBRANCH   1  16
TORSDOF 5
