REMARK  Name = ZINC50671390
REMARK  8 active torsions:
REMARK  status: ('A' for Active; 'I' for Inactive)
REMARK    1  A    between atoms: C_1  and  C_2
REMARK    2  A    between atoms: C_2  and  C_21
REMARK    3  A    between atoms: C_4  and  N_6
REMARK    4  A    between atoms: N_6  and  S_7
REMARK    5  A    between atoms: S_7  and  C_10
REMARK    6  A    between atoms: C_12  and  N_18
REMARK    7  A    between atoms: C_15  and  N_16
REMARK    8  A    between atoms: N_16  and  C_17
REMARK                            x       y       z     vdW  Elec       q    Type
REMARK                         _______ _______ _______ _____ _____    ______ ____
ROOT
ATOM      1  C   UNL     1       3.997  -0.382   1.922  0.00  0.00    +0.128 A 
ATOM      2  C   UNL     1       4.540  -1.573   1.481  0.00  0.00    +0.063 A 
ATOM      3  C   UNL     1       5.592  -1.565   0.584  0.00  0.00    +0.128 A 
ATOM      4  C   UNL     1       6.105  -0.365   0.125  0.00  0.00    +0.034 A 
ATOM      5  C   UNL     1       5.567   0.829   0.563  0.00  0.00    +0.027 A 
ATOM      6  C   UNL     1       4.506   0.825   1.460  0.00  0.00    +0.054 A 
ENDROOT
BRANCH   1   7
ATOM      7  S   UNL     1       2.657  -0.393   3.065  0.00  0.00    +0.060 S 
ATOM      8  O   UNL     1       3.008   0.501   4.113  0.00  0.00    -0.153 OA
ATOM      9  O   UNL     1       2.337  -1.757   3.303  0.00  0.00    -0.153 OA
BRANCH   7  10
ATOM     10  N   UNL     1       1.350   0.272   2.295  0.00  0.00    -0.186 NA
ATOM     11  H   UNL     1       0.975   1.108   2.611  0.00  0.00    +0.148 HD
BRANCH  10  15
ATOM     12  C   UNL     1       0.296   1.992   0.193  0.00  0.00    +0.012 C 
ATOM     13  C   UNL     1       0.201   0.475   0.016  0.00  0.00    -0.016 C 
ATOM     14  C   UNL     1      -0.751  -0.285   0.941  0.00  0.00    +0.029 C 
ATOM     15  C   UNL     1       0.762  -0.404   1.135  0.00  0.00    +0.083 C 
ATOM     16  C   UNL     1       0.345  -0.032  -1.421  0.00  0.00    +0.012 C 
ENDBRANCH  10  15
ENDBRANCH   7  10
ENDBRANCH   1   7
BRANCH   6  17
ATOM     17  N   UNL     1       3.957   2.031   1.900  0.00  0.00    -0.345 N 
ATOM     18  C   UNL     1       4.574   3.302   1.512  0.00  0.00    +0.125 C 
ATOM     19  H   UNL     1       3.166   2.027   2.462  0.00  0.00    +0.146 HD
ENDBRANCH   6  17
BRANCH   3  20
ATOM     20  N   UNL     1       6.170  -2.844   0.113  0.00  0.00    +0.056 N 
ATOM     21  O   UNL     1       5.723  -3.893   0.513  0.00  0.00    -0.126 OA
ATOM     22  O   UNL     1       7.090  -2.838  -0.671  0.00  0.00    -0.126 OA
ENDBRANCH   3  20
TORSDOF 5
