REMARK  Name = ZINC65424999
REMARK  8 active torsions:
REMARK  status: ('A' for Active; 'I' for Inactive)
REMARK    1  A    between atoms: C_1  and  C_2
REMARK    2  A    between atoms: N_4  and  C_10
REMARK    3  A    between atoms: C_6  and  C_8
REMARK    4  A    between atoms: C_6  and  C_9
REMARK    5  A    between atoms: C_10  and  C_11
REMARK    6  A    between atoms: C_11  and  C_13
REMARK    7  A    between atoms: C_14  and  N_25
REMARK    8  A    between atoms: N_15  and  C_22
REMARK                            x       y       z     vdW  Elec       q    Type
REMARK                         _______ _______ _______ _____ _____    ______ ____
ROOT
ATOM      1  C   UNL     1       0.796  -2.922  -4.917  0.00  0.00    +0.121 A 
ATOM      2  C   UNL     1       0.166  -2.345  -6.033  0.00  0.00    +0.116 A 
ATOM      3  N   UNL     1       0.756  -2.460  -7.259  0.00  0.00    -0.278 N 
ATOM      4  C   UNL     1       1.920  -3.111  -7.414  0.00  0.00    +0.331 A 
ATOM      5  O   UNL     1       2.405  -3.187  -8.526  0.00  0.00    -0.246 OA
ATOM      6  N   UNL     1       2.568  -3.683  -6.386  0.00  0.00    -0.274 N 
ATOM      7  H   UNL     1       3.407  -4.143  -6.545  0.00  0.00    +0.173 HD
ATOM      8  C   UNL     1       2.070  -3.619  -5.133  0.00  0.00    +0.266 A 
ATOM      9  O   UNL     1       2.663  -4.133  -4.203  0.00  0.00    -0.267 OA
ENDROOT
BRANCH   3  10
ATOM     10  C   UNL     1       0.107  -1.863  -8.428  0.00  0.00    +0.094 C 
ATOM     11  C   UNL     1       0.976  -1.020  -9.365  0.00  0.00    +0.027 C 
ATOM     12  C   UNL     1      -0.045  -0.340  -8.450  0.00  0.00    +0.027 C 
ENDBRANCH   3  10
BRANCH   2  13
ATOM     13  N   UNL     1      -1.014  -1.682  -5.895  0.00  0.00    -0.344 N 
ATOM     14  H   UNL     1      -1.235  -1.256  -5.052  0.00  0.00    +0.144 HD
ATOM     15  H   UNL     1      -1.635  -1.635  -6.639  0.00  0.00    +0.144 HD
ENDBRANCH   2  13
BRANCH   1  16
ATOM     16  C   UNL     1       0.226  -2.829  -3.630  0.00  0.00    +0.185 C 
ATOM     17  O   UNL     1      -0.762  -2.145  -3.451  0.00  0.00    -0.290 OA
BRANCH  16  18
ATOM     18  C   UNL     1       0.843  -3.578  -2.477  0.00  0.00    +0.164 C 
BRANCH  18  22
ATOM     19  C   UNL     1      -0.521  -0.224   0.857  0.00  0.00    +0.039 C 
ATOM     20  C   UNL     1      -0.690  -1.669   0.387  0.00  0.00    +0.130 C 
ATOM     21  C   UNL     1       0.176  -1.908  -0.853  0.00  0.00    +0.116 C 
ATOM     22  N   UNL     1       0.070  -3.318  -1.255  0.00  0.00    -0.290 NA
ATOM     23  C   UNL     1       0.497  -4.205  -0.163  0.00  0.00    +0.119 C 
ATOM     24  C   UNL     1      -0.372  -3.943   1.070  0.00  0.00    +0.077 C 
ATOM     25  O   UNL     1      -0.280  -2.561   1.427  0.00  0.00    -0.368 OA
ATOM     26  C   UNL     1      -1.827  -4.293   0.753  0.00  0.00    +0.042 C 
ATOM     27  C   UNL     1       0.120  -4.805   2.234  0.00  0.00    +0.042 C 
ENDBRANCH  18  22
ENDBRANCH  16  18
ENDBRANCH   1  16
TORSDOF 5
