REMARK  Name = ZINC05040929
REMARK  7 active torsions:
REMARK  status: ('A' for Active; 'I' for Inactive)
REMARK    1  A    between atoms: C_1  and  C_2
REMARK    2  A    between atoms: N_11  and  C_15
REMARK    3  A    between atoms: C_15  and  C_16
REMARK    4  A    between atoms: C_16  and  O_18
REMARK    5  A    between atoms: O_18  and  C_19
REMARK    6  A    between atoms: C_19  and  C_21
REMARK    7  A    between atoms: C_19  and  C_22
REMARK                            x       y       z     vdW  Elec       q    Type
REMARK                         _______ _______ _______ _____ _____    ______ ____
ROOT
ATOM      1  C   UNL     1      -2.969   0.347   5.573  0.00  0.00    +0.326 C 
ATOM      2  O   UNL     1      -1.783   0.378   5.344  0.00  0.00    -0.249 OA
ENDROOT
BRANCH   1   3
ATOM      3  C   UNL     1      -3.956   0.343   4.435  0.00  0.00    +0.238 C 
BRANCH   3  13
ATOM      4  C   UNL     1      -0.002   1.056   2.507  0.00  0.00    +0.010 C 
ATOM      5  C   UNL     1      -0.730   1.580   1.267  0.00  0.00    +0.018 C 
ATOM      6  C   UNL     1      -0.013   1.086   0.008  0.00  0.00    +0.006 C 
ATOM      7  C   UNL     1      -0.753   1.593  -1.231  0.00  0.00    +0.000 C 
ATOM      8  C   UNL     1      -2.186   1.056  -1.227  0.00  0.00    +0.003 C 
ATOM      9  C   UNL     1      -2.911   1.550   0.027  0.00  0.00    +0.035 C 
ATOM     10  C   UNL     1      -2.167   1.069   1.268  0.00  0.00    +0.115 C 
ATOM     11  C   UNL     1      -2.885   1.517   2.521  0.00  0.00    +0.247 C 
ATOM     12  O   UNL     1      -3.102   2.655   2.875  0.00  0.00    -0.273 OA
ATOM     13  N   UNL     1      -3.233   0.381   3.161  0.00  0.00    -0.213 N 
ATOM     14  C   UNL     1      -2.836  -0.706   2.489  0.00  0.00    +0.310 C 
ATOM     15  O   UNL     1      -3.035  -1.844   2.866  0.00  0.00    -0.252 OA
ATOM     16  N   UNL     1      -2.191  -0.397   1.347  0.00  0.00    -0.285 N 
ATOM     17  H   UNL     1      -1.817  -1.020   0.705  0.00  0.00    +0.151 HD
ENDBRANCH   3  13
ENDBRANCH   1   3
BRANCH   1  18
ATOM     18  O   UNL     1      -3.407   0.315   6.841  0.00  0.00    -0.451 OA
BRANCH  18  19
ATOM     19  C   UNL     1      -2.399   0.321   7.887  0.00  0.00    +0.259 C 
ATOM     20  C   UNL     1      -2.079   1.765   8.279  0.00  0.00    +0.062 C 
BRANCH  19  21
ATOM     21  C   UNL     1      -2.920  -0.422   9.090  0.00  0.00    +0.256 C 
ATOM     22  O   UNL     1      -4.031  -0.908   9.069  0.00  0.00    -0.272 OA
ATOM     23  N   UNL     1      -2.151  -0.546  10.190  0.00  0.00    -0.294 N 
ATOM     24  C   UNL     1      -2.632  -1.260  11.384  0.00  0.00    +0.113 C 
ATOM     25  C   UNL     1      -1.740  -2.490  11.581  0.00  0.00    +0.054 C 
ATOM     26  C   UNL     1      -0.284  -2.118  11.476  0.00  0.00    -0.041 A 
ATOM     27  C   UNL     1       0.645  -2.990  12.030  0.00  0.00    +0.004 A 
ATOM     28  C   UNL     1       1.995  -2.715  11.958  0.00  0.00    +0.000 A 
ATOM     29  C   UNL     1       2.429  -1.562  11.331  0.00  0.00    +0.000 A 
ATOM     30  C   UNL     1       1.509  -0.692  10.784  0.00  0.00    +0.005 A 
ATOM     31  C   UNL     1       0.150  -0.966  10.858  0.00  0.00    -0.027 A 
ATOM     32  C   UNL     1      -0.804   0.030  10.248  0.00  0.00    +0.143 C 
ENDBRANCH  19  21
ENDBRANCH  18  19
ENDBRANCH   1  18
TORSDOF 5
