REMARK  Name = ZINC09512991
REMARK  10 active torsions:
REMARK  status: ('A' for Active; 'I' for Inactive)
REMARK    1  A    between atoms: C_1  and  C_2
REMARK    2  A    between atoms: C_3  and  C_24
REMARK    3  A    between atoms: C_4  and  C_23
REMARK    4  A    between atoms: C_7  and  C_8
REMARK    5  A    between atoms: C_8  and  C_10
REMARK    6  A    between atoms: C_10  and  C_12
REMARK    7  A    between atoms: C_10  and  O_13
REMARK    8  A    between atoms: O_13  and  C_14
REMARK    9  A    between atoms: C_17  and  C_21
REMARK   10  A    between atoms: C_24  and  C_26
REMARK                            x       y       z     vdW  Elec       q    Type
REMARK                         _______ _______ _______ _____ _____    ______ ____
ROOT
ATOM      1  C   UNL     1      -0.607  -0.401   2.458  0.00  0.00    +0.219 C 
ATOM      2  O   UNL     1      -0.561   0.745   2.857  0.00  0.00    -0.287 OA
ENDROOT
BRANCH   1   9
ATOM      3  C   UNL     1      -0.423   1.769   0.241  0.00  0.00    +0.047 C 
ATOM      4  C   UNL     1      -0.494   0.274   0.066  0.00  0.00    -0.012 A 
ATOM      5  C   UNL     1      -0.484  -0.433  -1.159  0.00  0.00    +0.041 A 
ATOM      6  C   UNL     1      -0.566  -1.783  -0.851  0.00  0.00    +0.024 A 
ATOM      7  N   UNL     1      -0.624  -1.916   0.481  0.00  0.00    -0.355 N 
ATOM      8  H   UNL     1      -0.686  -2.758   0.959  0.00  0.00    +0.166 HD
ATOM      9  C   UNL     1      -0.576  -0.667   1.068  0.00  0.00    +0.090 A 
ATOM     10  C   UNL     1      -0.586  -2.912  -1.849  0.00  0.00    +0.064 C 
BRANCH   5  11
ATOM     11  C   UNL     1      -0.403   0.151  -2.501  0.00  0.00    +0.162 C 
ATOM     12  O   UNL     1      -1.413   0.513  -3.068  0.00  0.00    -0.292 OA
ATOM     13  C   UNL     1       0.935   0.303  -3.177  0.00  0.00    +0.091 C 
ENDBRANCH   5  11
ENDBRANCH   1   9
BRANCH   1  14
ATOM     14  C   UNL     1      -0.698  -1.538   3.442  0.00  0.00    +0.242 C 
ATOM     15  C   UNL     1       0.687  -2.161   3.631  0.00  0.00    +0.061 C 
BRANCH  14  16
ATOM     16  O   UNL     1      -1.175  -1.047   4.696  0.00  0.00    -0.480 OA
BRANCH  16  17
ATOM     17  C   UNL     1      -1.800  -1.937   5.510  0.00  0.00    +0.140 A 
ATOM     18  C   UNL     1      -1.850  -3.280   5.158  0.00  0.00    +0.048 A 
ATOM     19  C   UNL     1      -2.483  -4.186   5.980  0.00  0.00    +0.022 A 
ATOM     20  C   UNL     1      -3.074  -3.753   7.170  0.00  0.00    +0.053 A 
ATOM     21  C   UNL     1      -3.021  -2.402   7.521  0.00  0.00    +0.042 A 
ATOM     22  C   UNL     1      -2.382  -1.502   6.695  0.00  0.00    +0.084 A 
ATOM     23 CL   UNL     1      -2.309   0.176   7.132  0.00  0.00    -0.080 Cl
BRANCH  20  24
ATOM     24  C   UNL     1      -3.733  -4.692   8.027  0.00  0.00    +0.099 C 
ATOM     25  N   UNL     1      -4.256  -5.437   8.707  0.00  0.00    -0.191 NA
ENDBRANCH  20  24
ENDBRANCH  16  17
ENDBRANCH  14  16
ENDBRANCH   1  14
TORSDOF 6
