REMARK  Name = ZINC35591938
REMARK  12 active torsions:
REMARK  status: ('A' for Active; 'I' for Inactive)
REMARK    1  A    between atoms: C_4  and  C_36
REMARK    2  A    between atoms: C_5  and  C_7
REMARK    3  A    between atoms: C_7  and  O_8
REMARK    4  A    between atoms: O_8  and  C_9
REMARK    5  A    between atoms: C_9  and  C_30
REMARK    6  A    between atoms: C_11  and  O_29
REMARK    7  A    between atoms: C_13  and  O_28
REMARK    8  A    between atoms: C_15  and  O_18
REMARK    9  A    between atoms: O_18  and  C_19
REMARK   10  A    between atoms: C_19  and  C_20
REMARK   11  A    between atoms: C_23  and  C_26
REMARK   12  A    between atoms: N_32  and  C_33
REMARK                            x       y       z     vdW  Elec       q    Type
REMARK                         _______ _______ _______ _____ _____    ______ ____
ROOT
ATOM      1  C   UNL     1      -0.217  -4.101  -0.132  0.00  0.00    +0.150 C 
ATOM      2  C   UNL     1       0.212  -4.965   1.056  0.00  0.00    +0.078 C 
ATOM      3  C   UNL     1      -0.125  -6.430   0.769  0.00  0.00    +0.149 C 
ATOM      4  C   UNL     1      -1.633  -6.573   0.552  0.00  0.00    +0.172 C 
ATOM      5  C   UNL     1      -2.061  -5.709  -0.636  0.00  0.00    +0.153 C 
ATOM      6  C   UNL     1      -1.724  -4.244  -0.349  0.00  0.00    +0.079 C 
ENDROOT
BRANCH   1   7
ATOM      7  C   UNL     1       0.514  -4.551  -1.370  0.00  0.00    +0.245 C 
ATOM      8  O   UNL     1       1.027  -5.650  -1.406  0.00  0.00    -0.273 OA
ATOM      9  N   UNL     1       0.598  -3.734  -2.438  0.00  0.00    -0.310 N 
ATOM     10  H   UNL     1       0.128  -2.885  -2.438  0.00  0.00    +0.149 HD
BRANCH   9  11
ATOM     11  C   UNL     1       1.401  -4.126  -3.600  0.00  0.00    +0.073 C 
ATOM     12  C   UNL     1       2.297  -3.059  -4.232  0.00  0.00    +0.024 C 
ATOM     13  C   UNL     1       1.028  -3.518  -4.954  0.00  0.00    +0.024 C 
ENDBRANCH   9  11
ENDBRANCH   1   7
BRANCH   4  14
ATOM     14  O   UNL     1      -2.326  -6.146   1.726  0.00  0.00    -0.387 OA
ATOM     15  H   UNL     1      -2.103  -6.651   2.520  0.00  0.00    +0.210 HD
ENDBRANCH   4  14
BRANCH   3  16
ATOM     16  O   UNL     1       0.275  -7.237   1.878  0.00  0.00    -0.389 OA
ATOM     17  H   UNL     1       0.091  -8.179   1.766  0.00  0.00    +0.210 HD
ENDBRANCH   3  16
BRANCH   1  18
ATOM     18  O   UNL     1       0.098  -2.733   0.136  0.00  0.00    -0.359 OA
BRANCH  18  19
ATOM     19  C   UNL     1       1.493  -2.482   0.314  0.00  0.00    +0.197 C 
BRANCH  19  24
ATOM     20  C   UNL     1       0.861   1.233   0.559  0.00  0.00    +0.000 A 
ATOM     21  C   UNL     1       2.140   1.729   0.746  0.00  0.00    +0.001 A 
ATOM     22  C   UNL     1       3.216   0.868   0.793  0.00  0.00    +0.019 A 
ATOM     23  C   UNL     1       3.014  -0.507   0.653  0.00  0.00    +0.057 A 
ATOM     24  C   UNL     1       1.722  -1.000   0.466  0.00  0.00    -0.005 A 
ATOM     25  C   UNL     1       0.654  -0.128   0.420  0.00  0.00    +0.007 A 
BRANCH  23  26
ATOM     26  C   UNL     1       4.127  -1.406   0.701  0.00  0.00    +0.100 C 
ATOM     27  N   UNL     1       5.010  -2.120   0.740  0.00  0.00    -0.191 NA
ENDBRANCH  23  26
ENDBRANCH  19  24
ENDBRANCH  18  19
ENDBRANCH   1  18
BRANCH   5  28
ATOM     28  O   UNL     1      -3.470  -5.843  -0.839  0.00  0.00    -0.369 OA
BRANCH  28  29
ATOM     29  C   UNL     1      -3.830  -6.902  -1.729  0.00  0.00    +0.195 C 
BRANCH  29  30
ATOM     30  C   UNL     1      -5.330  -6.951  -1.869  0.00  0.00    -0.022 A 
ATOM     31  C   UNL     1      -6.078  -7.727  -1.001  0.00  0.00    +0.007 A 
ATOM     32  C   UNL     1      -7.451  -7.777  -1.123  0.00  0.00    +0.019 A 
ATOM     33  C   UNL     1      -8.086  -7.041  -2.126  0.00  0.00    +0.052 A 
ATOM     34  C   UNL     1      -7.326  -6.259  -2.997  0.00  0.00    +0.019 A 
ATOM     35  C   UNL     1      -5.954  -6.215  -2.861  0.00  0.00    +0.007 A 
BRANCH  33  36
ATOM     36  C   UNL     1      -9.511  -7.088  -2.259  0.00  0.00    +0.099 C 
ATOM     37  N   UNL     1     -10.642  -7.125  -2.364  0.00  0.00    -0.191 NA
ENDBRANCH  33  36
ENDBRANCH  29  30
ENDBRANCH  28  29
ENDBRANCH   5  28
TORSDOF 12
