REMARK  Name = ZINC09167054
REMARK  9 active torsions:
REMARK  status: ('A' for Active; 'I' for Inactive)
REMARK    1  A    between atoms: C_1  and  C_2
REMARK    2  A    between atoms: C_4  and  C_17
REMARK    3  A    between atoms: C_5  and  C_16
REMARK    4  A    between atoms: N_6  and  C_7
REMARK    5  A    between atoms: C_7  and  C_8
REMARK    6  A    between atoms: C_8  and  C_9
REMARK    7  A    between atoms: C_17  and  C_19
REMARK    8  A    between atoms: C_19  and  S_20
REMARK    9  A    between atoms: S_20  and  C_21
REMARK                            x       y       z     vdW  Elec       q    Type
REMARK                         _______ _______ _______ _____ _____    ______ ____
ROOT
ATOM      1  C   UNL     1      -2.492  -2.289   1.470  0.00  0.00    +0.063 C 
ATOM      2  C   UNL     1      -1.068  -2.780   1.446  0.00  0.00    +0.017 A 
ATOM      3  C   UNL     1      -0.689  -4.069   1.429  0.00  0.00    +0.034 A 
ATOM      4  C   UNL     1       0.780  -4.068   1.415  0.00  0.00    +0.039 A 
ATOM      5  C   UNL     1       1.157  -2.739   1.419  0.00  0.00    +0.026 A 
ATOM      6  N   UNL     1       0.043  -1.987   1.434  0.00  0.00    -0.347 N 
ATOM      7  C   UNL     1       2.573  -2.221   1.408  0.00  0.00    +0.064 C 
ENDROOT
BRANCH   4   8
ATOM      8  C   UNL     1       1.663  -5.236   1.401  0.00  0.00    +0.175 C 
ATOM      9  O   UNL     1       2.868  -5.086   1.391  0.00  0.00    -0.291 OA
BRANCH   8  10
ATOM     10  C   UNL     1       1.077  -6.625   1.399  0.00  0.00    +0.157 C 
BRANCH  10  11
ATOM     11  S   UNL     1       2.414  -7.844   1.380  0.00  0.00    -0.078 S 
BRANCH  11  12
ATOM     12  C   UNL     1       1.471  -9.332   1.381  0.00  0.00    +0.195 A 
ATOM     13  N   UNL     1       0.142  -9.278   1.399  0.00  0.00    -0.189 NA
ATOM     14  C   UNL     1      -0.570 -10.400   1.395  0.00  0.00    +0.218 A 
ATOM     15  N   UNL     1       0.047 -11.578   1.383  0.00  0.00    -0.181 NA
ATOM     16  C   UNL     1       1.375 -11.633   1.370  0.00  0.00    +0.218 A 
ATOM     17  N   UNL     1       2.087 -10.511   1.369  0.00  0.00    -0.189 NA
ATOM     18  N   UNL     1       2.015 -12.856   1.357  0.00  0.00    -0.327 N 
ATOM     19  N   UNL     1      -1.948 -10.344   1.408  0.00  0.00    -0.327 N 
ATOM     20  H   UNL     1       2.984 -12.897   1.349  0.00  0.00    +0.145 HD
ATOM     21  H   UNL     1       1.496 -13.675   1.358  0.00  0.00    +0.145 HD
ATOM     22  H   UNL     1      -2.468 -11.163   1.409  0.00  0.00    +0.145 HD
ATOM     23  H   UNL     1      -2.398  -9.484   1.417  0.00  0.00    +0.145 HD
ENDBRANCH  11  12
ENDBRANCH  10  11
ENDBRANCH   8  10
ENDBRANCH   4   8
BRANCH   6  24
ATOM     24  C   UNL     1       0.023  -0.522   1.442  0.00  0.00    +0.126 C 
BRANCH  24  25
ATOM     25  C   UNL     1       0.002  -0.004   0.002  0.00  0.00    +0.056 C 
BRANCH  25  26
ATOM     26  C   UNL     1      -0.018   1.503   0.010  0.00  0.00    -0.046 A 
ATOM     27  C   UNL     1      -1.225   2.177   0.020  0.00  0.00    +0.006 A 
ATOM     28  C   UNL     1      -1.245   3.559   0.032  0.00  0.00    +0.038 A 
ATOM     29  C   UNL     1      -0.056   4.268   0.025  0.00  0.00    +0.123 A 
ATOM     30  C   UNL     1       1.152   3.591   0.010  0.00  0.00    +0.038 A 
ATOM     31  C   UNL     1       1.170   2.210   0.003  0.00  0.00    +0.006 A 
ATOM     32  F   UNL     1      -0.074   5.619   0.032  0.00  0.00    -0.205 F 
ENDBRANCH  25  26
ENDBRANCH  24  25
ENDBRANCH   6  24
TORSDOF 7
