REMARK  Name = ZINC11375027
REMARK  9 active torsions:
REMARK  status: ('A' for Active; 'I' for Inactive)
REMARK    1  A    between atoms: C_1  and  C_2
REMARK    2  A    between atoms: C_11  and  S_19
REMARK    3  A    between atoms: N_12  and  C_13
REMARK    4  A    between atoms: C_13  and  C_14
REMARK    5  A    between atoms: S_19  and  C_20
REMARK    6  A    between atoms: C_20  and  C_21
REMARK    7  A    between atoms: C_21  and  C_23
REMARK    8  A    between atoms: C_24  and  N_35
REMARK    9  A    between atoms: N_25  and  C_32
REMARK                            x       y       z     vdW  Elec       q    Type
REMARK                         _______ _______ _______ _____ _____    ______ ____
ROOT
ATOM      1  S   UNL     1       1.553   3.661   2.609  0.00  0.00    -0.078 S 
ENDROOT
BRANCH   1  12
ATOM      2  C   UNL     1       1.526  -5.234   5.851  0.00  0.00    +0.007 C 
ATOM      3  C   UNL     1       0.923  -3.954   5.271  0.00  0.00    -0.011 C 
ATOM      4  C   UNL     1       1.187  -2.786   6.226  0.00  0.00    +0.022 C 
ATOM      5  C   UNL     1       0.635  -1.497   5.613  0.00  0.00    +0.108 C 
ATOM      6  N   UNL     1       1.285  -1.252   4.319  0.00  0.00    -0.300 N 
ATOM      7  C   UNL     1       1.005  -2.337   3.370  0.00  0.00    +0.108 C 
ATOM      8  C   UNL     1       1.569  -3.651   3.917  0.00  0.00    +0.022 C 
ATOM      9  C   UNL     1       0.904  -0.023   3.795  0.00  0.00    +0.221 A 
ATOM     10  N   UNL     1      -0.305   0.311   3.416  0.00  0.00    -0.112 NA
ATOM     11  N   UNL     1      -0.264   1.631   2.950  0.00  0.00    -0.121 NA
ATOM     12  C   UNL     1       0.969   2.061   3.060  0.00  0.00    +0.194 A 
ATOM     13  N   UNL     1       1.723   1.050   3.586  0.00  0.00    -0.283 N 
BRANCH  13  14
ATOM     14  C   UNL     1       3.159   1.106   3.874  0.00  0.00    +0.201 C 
BRANCH  14  15
ATOM     15  C   UNL     1       3.933   0.691   2.650  0.00  0.00    +0.125 A 
ATOM     16  C   UNL     1       4.449   1.522   1.726  0.00  0.00    +0.046 A 
ATOM     17  C   UNL     1       5.092   0.714   0.761  0.00  0.00    +0.041 A 
ATOM     18  C   UNL     1       4.924  -0.563   1.148  0.00  0.00    +0.195 A 
ATOM     19  O   UNL     1       4.222  -0.571   2.293  0.00  0.00    -0.466 OA
ENDBRANCH  14  15
ENDBRANCH  13  14
ENDBRANCH   1  12
BRANCH   1  20
ATOM     20  C   UNL     1       0.074   4.508   1.987  0.00  0.00    +0.157 C 
BRANCH  20  21
ATOM     21  C   UNL     1       0.438   5.908   1.562  0.00  0.00    +0.182 C 
ATOM     22  O   UNL     1       1.584   6.296   1.668  0.00  0.00    -0.291 OA
BRANCH  21  23
ATOM     23  C   UNL     1      -0.552   6.767   1.040  0.00  0.00    +0.120 A 
ATOM     24  C   UNL     1      -0.219   8.035   0.534  0.00  0.00    +0.116 A 
ATOM     25  N   UNL     1      -1.212   8.829   0.034  0.00  0.00    -0.278 N 
ATOM     26  C   UNL     1      -2.492   8.425   0.029  0.00  0.00    +0.331 A 
ATOM     27  O   UNL     1      -3.339   9.170  -0.422  0.00  0.00    -0.246 OA
ATOM     28  N   UNL     1      -2.871   7.227   0.504  0.00  0.00    -0.274 N 
ATOM     29  H   UNL     1      -3.837   6.970   0.480  0.00  0.00    +0.173 HD
ATOM     30  C   UNL     1      -1.965   6.367   1.014  0.00  0.00    +0.266 A 
ATOM     31  O   UNL     1      -2.312   5.282   1.444  0.00  0.00    -0.267 OA
BRANCH  25  32
ATOM     32  C   UNL     1      -0.874  10.150  -0.501  0.00  0.00    +0.094 C 
ATOM     33  C   UNL     1      -1.477  10.540  -1.852  0.00  0.00    +0.027 C 
ATOM     34  C   UNL     1       0.012  10.202  -1.747  0.00  0.00    +0.027 C 
ENDBRANCH  25  32
BRANCH  24  35
ATOM     35  N   UNL     1       1.073   8.463   0.536  0.00  0.00    -0.344 N 
ATOM     36  H   UNL     1       1.797   7.820   0.484  0.00  0.00    +0.144 HD
ATOM     37  H   UNL     1       1.269   9.411   0.591  0.00  0.00    +0.144 HD
ENDBRANCH  24  35
ENDBRANCH  21  23
ENDBRANCH  20  21
ENDBRANCH   1  20
TORSDOF 8
