REMARK  Name = ZINC40686830
REMARK  7 active torsions:
REMARK  status: ('A' for Active; 'I' for Inactive)
REMARK    1  A    between atoms: C_1  and  C_2
REMARK    2  A    between atoms: C_2  and  N_3
REMARK    3  A    between atoms: N_3  and  C_4
REMARK    4  A    between atoms: C_15  and  N_28
REMARK    5  A    between atoms: C_16  and  N_20
REMARK    6  A    between atoms: N_20  and  C_21
REMARK    7  A    between atoms: C_21  and  C_22
REMARK                            x       y       z     vdW  Elec       q    Type
REMARK                         _______ _______ _______ _____ _____    ______ ____
ROOT
ATOM      1  N   UNL     1      -1.339  -0.589   0.015  0.00  0.00    -0.285 N 
ATOM      2  C   UNL     1      -1.908  -0.767   1.271  0.00  0.00    +0.129 A 
ATOM      3  C   UNL     1      -1.206  -0.413   2.424  0.00  0.00    +0.104 A 
ATOM      4  C   UNL     1      -1.824  -0.612   3.660  0.00  0.00    +0.145 A 
ATOM      5  N   UNL     1      -3.050  -1.129   3.692  0.00  0.00    -0.221 NA
ATOM      6  C   UNL     1      -3.678  -1.450   2.579  0.00  0.00    +0.200 A 
ATOM      7  N   UNL     1      -3.134  -1.273   1.393  0.00  0.00    -0.332 N 
ATOM      8  H   UNL     1      -3.631  -1.518   0.597  0.00  0.00    +0.168 HD
ENDROOT
BRANCH   1   9
ATOM      9  C   UNL     1      -0.695  -1.653  -0.615  0.00  0.00    +0.043 A 
ATOM     10  C   UNL     1       0.653  -1.867  -0.415  0.00  0.00    +0.024 A 
ATOM     11  C   UNL     1       1.306  -2.925  -1.039  0.00  0.00    +0.002 A 
ATOM     12  C   UNL     1       0.635  -3.777  -1.863  0.00  0.00    +0.008 A 
ATOM     13  C   UNL     1      -0.739  -3.594  -2.094  0.00  0.00    -0.016 A 
ATOM     14  C   UNL     1      -1.417  -2.523  -1.460  0.00  0.00    +0.003 A 
ATOM     15  C   UNL     1      -2.790  -2.345  -1.687  0.00  0.00    +0.010 A 
ATOM     16  C   UNL     1      -3.454  -3.205  -2.508  0.00  0.00    +0.001 A 
ATOM     17  C   UNL     1      -2.790  -4.261  -3.128  0.00  0.00    +0.001 A 
ATOM     18  C   UNL     1      -1.457  -4.457  -2.940  0.00  0.00    +0.008 A 
ENDBRANCH   1   9
BRANCH   3  19
ATOM     19  N   UNL     1       0.087   0.129   2.343  0.00  0.00    -0.353 N 
ATOM     20  H   UNL     1       0.464   0.357   1.479  0.00  0.00    +0.143 HD
ATOM     21  H   UNL     1       0.603   0.276   3.151  0.00  0.00    +0.143 HD
ENDBRANCH   3  19
BRANCH   1  23
ATOM     22  C   UNL     1      -2.671   0.769  -1.522  0.00  0.00    +0.025 C 
ATOM     23  C   UNL     1      -1.417   0.716  -0.646  0.00  0.00    +0.109 C 
ENDBRANCH   1  23
BRANCH   4  24
ATOM     24  N   UNL     1      -1.168  -0.277   4.839  0.00  0.00    -0.325 N 
ATOM     25  H   UNL     1      -0.275   0.099   4.807  0.00  0.00    +0.148 HD
BRANCH  24  26
ATOM     26  C   UNL     1      -1.827  -0.491   6.130  0.00  0.00    +0.134 C 
BRANCH  26  27
ATOM     27  C   UNL     1      -0.897  -0.042   7.258  0.00  0.00    +0.135 C 
ATOM     28  C   UNL     1      -1.562  -0.293   8.635  0.00  0.00    +0.035 C 
ATOM     29  C   UNL     1      -0.312  -0.405   9.550  0.00  0.00    +0.031 C 
ATOM     30  C   UNL     1       0.719  -1.075   8.616  0.00  0.00    +0.160 C 
ATOM     31  O   UNL     1       0.298  -0.839   7.266  0.00  0.00    -0.375 OA
ENDBRANCH  26  27
ENDBRANCH  24  26
ENDBRANCH   4  24
TORSDOF 6
