REMARK  Name = ZINC22936729
REMARK  8 active torsions:
REMARK  status: ('A' for Active; 'I' for Inactive)
REMARK    1  A    between atoms: C_10  and  C_12
REMARK    2  A    between atoms: C_12  and  C_13
REMARK    3  A    between atoms: C_13  and  C_14
REMARK    4  A    between atoms: C_24  and  N_27
REMARK    5  A    between atoms: N_27  and  C_28
REMARK    6  A    between atoms: C_28  and  C_29
REMARK    7  A    between atoms: C_32  and  C_34
REMARK    8  A    between atoms: C_34  and  O_35
REMARK                            x       y       z     vdW  Elec       q    Type
REMARK                         _______ _______ _______ _____ _____    ______ ____
ROOT
ATOM      1  C   UNL     1       7.122   2.630  -0.014  0.00  0.00    -0.050 C 
ATOM      2  C   UNL     1       8.644   2.700  -0.202  0.00  0.00    +0.089 C 
ATOM      3  N   UNL     1       9.198   3.961   0.274  0.00  0.00    -0.318 N 
ATOM      4  C   UNL     1       8.507   4.879   0.978  0.00  0.00    +0.200 C 
ATOM      5  O   UNL     1       9.064   5.857   1.430  0.00  0.00    -0.278 OA
ATOM      6  C   UNL     1       7.043   4.673   1.193  0.00  0.00    +0.021 C 
ATOM      7  N   UNL     1       6.815   3.205   1.284  0.00  0.00    +0.391 N 
ATOM      8  C   UNL     1       5.453   3.063   1.789  0.00  0.00    -0.059 C 
ATOM      9  C   UNL     1       5.214   4.298   2.697  0.00  0.00    +0.036 C 
ATOM     10  C   UNL     1       6.497   5.182   2.534  0.00  0.00    +0.010 C 
ATOM     11  H   UNL     1      10.127   4.153   0.070  0.00  0.00    +0.149 HD
ATOM     12  H   UNL     1       7.446   2.821   1.971  0.00  0.00    -0.080 HD
ENDROOT
BRANCH   9  13
ATOM     13  N   UNL     1       5.045   3.878   4.094  0.00  0.00    -0.308 NA
ATOM     14  H   UNL     1       4.622   2.964   4.149  0.00  0.00    +0.123 HD
BRANCH  13  15
ATOM     15  C   UNL     1       4.261   4.866   4.849  0.00  0.00    +0.156 C 
BRANCH  15  16
ATOM     16  C   UNL     1       4.109   4.403   6.275  0.00  0.00    +0.119 A 
ATOM     17  C   UNL     1       4.945   4.689   7.289  0.00  0.00    +0.046 A 
ATOM     18  C   UNL     1       4.424   4.056   8.440  0.00  0.00    +0.047 A 
ATOM     19  C   UNL     1       3.300   3.421   8.061  0.00  0.00    +0.131 A 
ATOM     20  O   UNL     1       3.111   3.639   6.750  0.00  0.00    -0.461 OA
BRANCH  19  21
ATOM     21  C   UNL     1       2.403   2.607   8.958  0.00  0.00    +0.230 C 
BRANCH  21  22
ATOM     22  O   UNL     1       1.400   3.453   9.523  0.00  0.00    -0.387 OA
ATOM     23  H   UNL     1       0.785   2.995  10.113  0.00  0.00    +0.210 HD
ENDBRANCH  21  22
ENDBRANCH  19  21
ENDBRANCH  15  16
ENDBRANCH  13  15
ENDBRANCH   9  13
BRANCH   1  24
ATOM     24  C   UNL     1       6.658   1.173  -0.060  0.00  0.00    -0.005 C 
BRANCH  24  25
ATOM     25  C   UNL     1       6.864   0.616  -1.470  0.00  0.00    +0.095 C 
BRANCH  25  35
ATOM     26  C   UNL     1       7.967  -0.439  -6.406  0.00  0.00    +0.000 A 
ATOM     27  C   UNL     1       8.050   0.506  -5.401  0.00  0.00    +0.002 A 
ATOM     28  C   UNL     1       7.542   0.234  -4.148  0.00  0.00    +0.024 A 
ATOM     29  C   UNL     1       6.940  -0.999  -3.886  0.00  0.00    +0.039 A 
ATOM     30  C   UNL     1       6.862  -1.939  -4.901  0.00  0.00    -0.024 A 
ATOM     31  C   UNL     1       7.372  -1.661  -6.154  0.00  0.00    +0.005 A 
ATOM     32  C   UNL     1       6.173  -3.172  -4.362  0.00  0.00    +0.056 C 
ATOM     33  C   UNL     1       5.857  -2.831  -2.897  0.00  0.00    +0.118 C 
ATOM     34  N   UNL     1       6.369  -1.472  -2.700  0.00  0.00    -0.271 N 
ATOM     35  C   UNL     1       6.300  -0.779  -1.546  0.00  0.00    +0.220 C 
ATOM     36  O   UNL     1       5.783  -1.279  -0.569  0.00  0.00    -0.275 OA
ENDBRANCH  25  35
ENDBRANCH  24  25
ENDBRANCH   1  24
TORSDOF 8
