REMARK  Name = ZINC03954438
REMARK  10 active torsions:
REMARK  status: ('A' for Active; 'I' for Inactive)
REMARK    1  A    between atoms: C_1  and  C_2
REMARK    2  A    between atoms: C_2  and  C_30
REMARK    3  A    between atoms: C_3  and  C_4
REMARK    4  A    between atoms: C_4  and  N_5
REMARK    5  A    between atoms: C_8  and  C_28
REMARK    6  A    between atoms: N_10  and  C1*_15
REMARK    7  A    between atoms: C2*_17  and  O2*_27
REMARK    8  A    between atoms: C3*_19  and  O3*_26
REMARK    9  A    between atoms: C4*_21  and  C5*_24
REMARK   10  A    between atoms: C5*_24  and  O5*_25
REMARK                            x       y       z     vdW  Elec       q    Type
REMARK                         _______ _______ _______ _____ _____    ______ ____
ROOT
ATOM      1  N   UNL     1       2.090   2.598   3.064  0.00  0.00    -0.325 N 
ATOM      2  C   UNL     1       3.466   2.610   3.208  0.00  0.00    +0.133 A 
ATOM      3  C   UNL     1       4.111   3.679   3.842  0.00  0.00    +0.076 A 
ATOM      4  C   UNL     1       3.675   4.937   4.467  0.00  0.00    +0.082 A 
ATOM      5  C   UNL     1       4.805   5.557   4.911  0.00  0.00    +0.110 A 
ATOM      6  N   UNL     1       5.891   4.794   4.614  0.00  0.00    -0.302 N 
ATOM      7  C   UNL     1       5.510   3.648   3.966  0.00  0.00    +0.149 A 
ATOM      8  N   UNL     1       6.168   2.599   3.474  0.00  0.00    -0.217 NA
ATOM      9  C   UNL     1       5.522   1.616   2.886  0.00  0.00    +0.225 A 
ATOM     10  N   UNL     1       4.208   1.604   2.753  0.00  0.00    -0.220 NA
ATOM     11  H   UNL     1       1.560   3.335   3.403  0.00  0.00    +0.148 HD
ENDROOT
BRANCH   6  12
ATOM     12  C1* UNL     1       7.274   5.147   4.941  0.00  0.00    +0.252 C 
ATOM     13  C2* UNL     1       7.680   4.497   6.278  0.00  0.00    +0.195 C 
ATOM     14  C3* UNL     1       7.977   5.697   7.209  0.00  0.00    +0.178 C 
ATOM     15  C4* UNL     1       7.208   6.848   6.511  0.00  0.00    +0.177 C 
ATOM     16  O4* UNL     1       7.390   6.571   5.102  0.00  0.00    -0.346 OA
BRANCH  14  17
ATOM     17  O3* UNL     1       7.464   5.464   8.522  0.00  0.00    -0.386 OA
ATOM     18  H3* UNL     1       7.626   6.188   9.142  0.00  0.00    +0.210 HD
ENDBRANCH  14  17
BRANCH  13  19
ATOM     19  O2* UNL     1       8.847   3.691   6.108  0.00  0.00    -0.385 OA
ATOM     20  H2* UNL     1       9.147   3.257   6.919  0.00  0.00    +0.210 HD
ENDBRANCH  13  19
BRANCH  15  21
ATOM     21  C5* UNL     1       7.816   8.203   6.879  0.00  0.00    +0.190 C 
BRANCH  21  22
ATOM     22  O5* UNL     1       7.020   9.250   6.319  0.00  0.00    -0.392 OA
ATOM     23  H5* UNL     1       7.347  10.139   6.512  0.00  0.00    +0.210 HD
ENDBRANCH  21  22
ENDBRANCH  15  21
ENDBRANCH   6  12
BRANCH   4  24
ATOM     24  C   UNL     1       2.330   5.415   4.587  0.00  0.00    +0.101 C 
ATOM     25  N   UNL     1       1.263   5.794   4.681  0.00  0.00    -0.191 NA
ENDBRANCH   4  24
BRANCH   1  26
ATOM     26  C   UNL     1       1.433   1.470   2.397  0.00  0.00    +0.130 C 
BRANCH  26  29
ATOM     27  C   UNL     1       0.015   1.264  -0.031  0.00  0.00    +0.038 C 
ATOM     28  C   UNL     1      -0.704   1.660   1.233  0.00  0.00    -0.078 C 
ATOM     29  C   UNL     1      -0.056   1.700   2.371  0.00  0.00    -0.010 C 
ATOM     30  C   UNL     1      -2.169   2.011   1.189  0.00  0.00    +0.038 C 
ENDBRANCH  26  29
ENDBRANCH   1  26
TORSDOF 8
