REMARK  Name = ZINC39663904
REMARK  10 active torsions:
REMARK  status: ('A' for Active; 'I' for Inactive)
REMARK    1  A    between atoms: C_1  and  N_2
REMARK    2  A    between atoms: N_2  and  C_3
REMARK    3  A    between atoms: N_2  and  C_4
REMARK    4  A    between atoms: C_4  and  C_6
REMARK    5  A    between atoms: C_4  and  C_32
REMARK    6  A    between atoms: C_6  and  N_7
REMARK    7  A    between atoms: C_8  and  C_10
REMARK    8  A    between atoms: C_21  and  C_23
REMARK    9  A    between atoms: C_35  and  O_38
REMARK   10  A    between atoms: O_38  and  C_39
REMARK                            x       y       z     vdW  Elec       q    Type
REMARK                         _______ _______ _______ _____ _____    ______ ____
ROOT
ATOM      1  C   UNL     1      -0.336  -3.880   4.085  0.00  0.00    +0.100 C 
ATOM      2  C   UNL     1       1.008  -3.118   4.090  0.00  0.00    +0.121 C 
ATOM      3  N   UNL     1       1.997  -4.107   4.578  0.00  0.00    -0.296 N 
ATOM      4  C   UNL     1       1.592  -5.381   3.936  0.00  0.00    +0.115 C 
ATOM      5  C   UNL     1       0.052  -5.365   3.983  0.00  0.00    -0.004 C 
ATOM      6  C   UNL     1      -0.447  -6.126   5.207  0.00  0.00    -0.010 C 
ATOM      7  C   UNL     1      -0.099  -7.610   5.056  0.00  0.00    -0.082 C 
ATOM      8  N   UNL     1      -0.724  -8.139   3.838  0.00  0.00    +0.379 N 
ATOM      9  C   UNL     1      -0.170  -7.464   2.658  0.00  0.00    -0.082 C 
ATOM     10  C   UNL     1      -0.521  -5.975   2.707  0.00  0.00    -0.010 C 
ATOM     11  C   UNL     1       3.032  -3.897   5.416  0.00  0.00    +0.248 C 
ATOM     12  O   UNL     1       3.816  -4.797   5.652  0.00  0.00    -0.270 OA
ATOM     13  H   UNL     1      -0.544  -9.130   3.772  0.00  0.00    -0.086 HD
ATOM     14  H   UNL     1      -1.720  -7.982   3.877  0.00  0.00    -0.086 HD
ENDROOT
BRANCH  11  15
ATOM     15  C   UNL     1       3.212  -2.582   6.043  0.00  0.00    +0.052 A 
ATOM     16  C   UNL     1       2.885  -1.440   5.384  0.00  0.00    +0.059 A 
ATOM     17  S   UNL     1       3.244  -0.193   6.446  0.00  0.00    -0.096 S 
ATOM     18  C   UNL     1       3.851  -1.123   7.827  0.00  0.00    +0.020 A 
ATOM     19  C   UNL     1       3.746  -2.461   7.402  0.00  0.00    +0.001 A 
ATOM     20  C   UNL     1       4.157  -3.459   8.306  0.00  0.00    +0.010 A 
ATOM     21  C   UNL     1       4.633  -3.119   9.548  0.00  0.00    +0.001 A 
ATOM     22  C   UNL     1       4.721  -1.792   9.945  0.00  0.00    +0.001 A 
ATOM     23  C   UNL     1       4.335  -0.791   9.075  0.00  0.00    +0.015 A 
ENDBRANCH  11  15
BRANCH   1  25
ATOM     24  N   UNL     1      -2.511  -3.523   2.962  0.00  0.00    -0.316 N 
ATOM     25  C   UNL     1      -1.166  -3.472   2.895  0.00  0.00    +0.218 C 
ATOM     26  O   UNL     1      -0.624  -3.097   1.877  0.00  0.00    -0.275 OA
ATOM     27  H   UNL     1      -2.945  -3.823   3.777  0.00  0.00    +0.149 HD
BRANCH  24  28
ATOM     28  C   UNL     1      -3.318  -3.126   1.806  0.00  0.00    +0.093 C 
BRANCH  28  29
ATOM     29  C   UNL     1      -4.796  -3.394   2.099  0.00  0.00    -0.021 C 
BRANCH  29  30
ATOM     30  C   UNL     1      -5.014  -4.876   2.265  0.00  0.00    -0.059 A 
ATOM     31  C   UNL     1      -5.118  -5.688   1.151  0.00  0.00    +0.005 A 
ATOM     32  C   UNL     1      -5.319  -7.046   1.301  0.00  0.00    +0.046 A 
ATOM     33  C   UNL     1      -5.416  -7.596   2.571  0.00  0.00    +0.120 A 
ATOM     34  C   UNL     1      -5.312  -6.779   3.687  0.00  0.00    +0.046 A 
ATOM     35  C   UNL     1      -5.106  -5.422   3.532  0.00  0.00    +0.005 A 
BRANCH  33  36
ATOM     36  O   UNL     1      -5.614  -8.932   2.721  0.00  0.00    -0.495 OA
ATOM     37  C   UNL     1      -5.705  -9.428   4.058  0.00  0.00    +0.277 C 
ENDBRANCH  33  36
ENDBRANCH  29  30
BRANCH  29  39
ATOM     38  C   UNL     1      -7.029  -3.193   1.246  0.00  0.00    -0.096 C 
ATOM     39  N   UNL     1      -5.614  -2.901   0.983  0.00  0.00    +0.382 N 
ATOM     40  C   UNL     1      -5.431  -1.450   0.845  0.00  0.00    -0.096 C 
ATOM     41  H   UNL     1      -5.329  -3.358   0.129  0.00  0.00    -0.082 HD
ENDBRANCH  29  39
ENDBRANCH  28  29
ENDBRANCH  24  28
ENDBRANCH   1  25
TORSDOF 7
