REMARK  Name = ZINC44887530
REMARK  7 active torsions:
REMARK  status: ('A' for Active; 'I' for Inactive)
REMARK    1  A    between atoms: C_1  and  C_2
REMARK    2  A    between atoms: C_4  and  N_19
REMARK    3  A    between atoms: C_5  and  S_9
REMARK    4  A    between atoms: C_7  and  C_8
REMARK    5  A    between atoms: S_9  and  N_12
REMARK    6  A    between atoms: N_12  and  C_13
REMARK    7  A    between atoms: C_13  and  C_14
REMARK                            x       y       z     vdW  Elec       q    Type
REMARK                         _______ _______ _______ _____ _____    ______ ____
ROOT
ATOM      1  C   UNL     1       0.796   1.532   0.025  0.00  0.00    +0.044 C 
ATOM      2  C   UNL     1       0.619   0.035   0.024  0.00  0.00    -0.046 A 
ATOM      3  C   UNL     1       0.633  -0.661  -1.169  0.00  0.00    +0.028 A 
ATOM      4  C   UNL     1       0.470  -2.040  -1.169  0.00  0.00    +0.051 A 
ATOM      5  C   UNL     1       0.292  -2.715   0.033  0.00  0.00    +0.126 A 
ATOM      6  C   UNL     1       0.279  -2.013   1.222  0.00  0.00    +0.034 A 
ATOM      7  C   UNL     1       0.447  -0.641   1.218  0.00  0.00    -0.046 A 
ATOM      8  C   UNL     1       0.437   0.121   2.518  0.00  0.00    +0.044 C 
ENDROOT
BRANCH   5   9
ATOM      9  S   UNL     1       0.084  -4.465   0.039  0.00  0.00    +0.061 S 
ATOM     10  O   UNL     1      -0.025  -4.856   1.400  0.00  0.00    -0.153 OA
ATOM     11  O   UNL     1      -0.922  -4.758  -0.921  0.00  0.00    -0.153 OA
BRANCH   9  12
ATOM     12  N   UNL     1       1.490  -5.127  -0.532  0.00  0.00    -0.182 NA
ATOM     13  H   UNL     1       1.490  -5.619  -1.369  0.00  0.00    +0.148 HD
BRANCH  12  14
ATOM     14  C   UNL     1       2.735  -4.971   0.225  0.00  0.00    +0.185 C 
BRANCH  14  15
ATOM     15  C   UNL     1       3.759  -5.952  -0.283  0.00  0.00    +0.192 A 
ATOM     16  N   UNL     1       3.953  -7.188   0.153  0.00  0.00    -0.110 NA
ATOM     17  N   UNL     1       4.917  -7.697  -0.536  0.00  0.00    -0.021 NA
ATOM     18  N   UNL     1       5.332  -6.824  -1.386  0.00  0.00    -0.021 NA
ATOM     19  N   UNL     1       4.635  -5.747  -1.256  0.00  0.00    -0.110 NA
ENDBRANCH  14  15
ENDBRANCH  12  14
ENDBRANCH   9  12
ENDBRANCH   5   9
BRANCH   4  20
ATOM     20  N   UNL     1       0.484  -2.747  -2.373  0.00  0.00    -0.356 N 
ATOM     21  H   UNL     1       0.516  -2.268  -3.216  0.00  0.00    +0.142 HD
ATOM     22  H   UNL     1       0.462  -3.717  -2.367  0.00  0.00    +0.142 HD
ENDBRANCH   4  20
TORSDOF 5
