REMARK  Name = ZINC37908385
REMARK  4 active torsions:
REMARK  status: ('A' for Active; 'I' for Inactive)
REMARK    1  A    between atoms: C_1  and  C_2
REMARK    2  A    between atoms: C_2  and  C_4
REMARK    3  A    between atoms: C_2  and  N_10
REMARK    4  A    between atoms: N_10  and  C_11
REMARK                            x       y       z     vdW  Elec       q    Type
REMARK                         _______ _______ _______ _____ _____    ______ ____
ROOT
ATOM      1  C   UNL     1      -2.075  -0.647  -1.185  0.00  0.00    +0.054 A 
ATOM      2  C   UNL     1      -1.479  -0.312  -2.381  0.00  0.00    +0.026 A 
ATOM      3  C   UNL     1      -2.168  -0.442  -3.583  0.00  0.00    +0.022 A 
ATOM      4  C   UNL     1      -3.450  -0.905  -3.610  0.00  0.00    +0.050 A 
ATOM      5  C   UNL     1      -4.091  -1.258  -2.411  0.00  0.00    +0.020 A 
ATOM      6  C   UNL     1      -3.400  -1.136  -1.181  0.00  0.00    +0.093 A 
ATOM      7  N   UNL     1      -4.005  -1.474  -0.040  0.00  0.00    -0.253 NA
ATOM      8  C   UNL     1      -5.236  -1.927  -0.030  0.00  0.00    +0.111 A 
ATOM      9  C   UNL     1      -5.971  -2.078  -1.204  0.00  0.00    +0.020 A 
ATOM     10  C   UNL     1      -5.415  -1.739  -2.404  0.00  0.00    +0.013 A 
ATOM     11 CL   UNL     1      -4.288  -1.057  -5.123  0.00  0.00    -0.083 Cl
ENDROOT
BRANCH   1  12
ATOM     12  N   UNL     1      -1.372  -0.511   0.012  0.00  0.00    -0.334 N 
ATOM     13  H   UNL     1      -1.794  -0.752   0.852  0.00  0.00    +0.147 HD
BRANCH  12  15
ATOM     14  C   UNL     1      -0.019   1.526   0.010  0.00  0.00    +0.034 C 
ATOM     15  C   UNL     1       0.002  -0.004   0.002  0.00  0.00    +0.118 C 
BRANCH  15  16
ATOM     16  C   UNL     1       0.731  -0.503   1.223  0.00  0.00    +0.083 A 
ATOM     17  C   UNL     1       2.115  -0.660   1.345  0.00  0.00    +0.046 A 
ATOM     18  C   UNL     1       2.374  -1.128   2.587  0.00  0.00    +0.105 A 
ATOM     19  N   UNL     1       1.195  -1.263   3.230  0.00  0.00    -0.284 N 
ATOM     20  H   UNL     1       1.073  -1.580   4.138  0.00  0.00    +0.188 HD
ATOM     21  N   UNL     1       0.178  -0.859   2.354  0.00  0.00    -0.177 NA
ENDBRANCH  15  16
ENDBRANCH  12  15
ENDBRANCH   1  12
TORSDOF 3
