REMARK  Name = ZINC20214637
REMARK  12 active torsions:
REMARK  status: ('A' for Active; 'I' for Inactive)
REMARK    1  A    between atoms: C_1  and  C_2
REMARK    2  A    between atoms: C_2  and  O_3
REMARK    3  A    between atoms: O_3  and  C_4
REMARK    4  A    between atoms: C_4  and  C_6
REMARK    5  A    between atoms: C_7  and  C_24
REMARK    6  A    between atoms: C_12  and  C_14
REMARK    7  A    between atoms: C_17  and  O_20
REMARK    8  A    between atoms: O_20  and  C_21
REMARK    9  A    between atoms: C_21  and  C_22
REMARK   10  A    between atoms: C_21  and  C_23
REMARK   11  A    between atoms: C_24  and  N_25
REMARK   12  A    between atoms: N_28  and  C_31
REMARK                            x       y       z     vdW  Elec       q    Type
REMARK                         _______ _______ _______ _____ _____    ______ ____
ROOT
ATOM      1  C   UNL     1      -4.056   7.596   6.260  0.00  0.00    +0.079 C 
ATOM      2  C   UNL     1      -2.798   7.256   6.614  0.00  0.00    +0.038 C 
ATOM      3  N   UNL     1      -1.756   8.119   6.426  0.00  0.00    -0.271 N 
ATOM      4  C   UNL     1      -1.888   9.335   5.882  0.00  0.00    +0.304 C 
ATOM      5  O   UNL     1      -0.900  10.031   5.750  0.00  0.00    -0.252 OA
ATOM      6  N   UNL     1      -3.082   9.815   5.479  0.00  0.00    -0.288 N 
ATOM      7  C   UNL     1      -4.271   8.963   5.643  0.00  0.00    +0.144 C 
ATOM      8  H   UNL     1      -0.740   7.828   6.729  0.00  0.00    +0.156 HD
ATOM      9  H   UNL     1      -3.180  10.818   5.037  0.00  0.00    +0.151 HD
ENDROOT
BRANCH   7  10
ATOM     10  C   UNL     1      -5.262   9.708   6.500  0.00  0.00    -0.022 A 
ATOM     11  C   UNL     1      -4.845  10.313   7.671  0.00  0.00    +0.009 A 
ATOM     12  C   UNL     1      -5.750  11.002   8.455  0.00  0.00    +0.046 A 
ATOM     13  C   UNL     1      -7.082  11.076   8.072  0.00  0.00    +0.121 A 
ATOM     14  C   UNL     1      -7.499  10.464   6.899  0.00  0.00    +0.046 A 
ATOM     15  C   UNL     1      -6.588   9.782   6.115  0.00  0.00    +0.009 A 
BRANCH  13  16
ATOM     16  O   UNL     1      -7.975  11.748   8.844  0.00  0.00    -0.489 OA
BRANCH  16  17
ATOM     17  C   UNL     1      -7.499  12.261  10.090  0.00  0.00    +0.167 C 
ATOM     18  C   UNL     1      -6.877  13.641   9.869  0.00  0.00    +0.051 C 
ATOM     19  C   UNL     1      -8.667  12.380  11.072  0.00  0.00    +0.051 C 
ENDBRANCH  16  17
ENDBRANCH  13  16
ENDBRANCH   7  10
BRANCH   1  20
ATOM     20  C   UNL     1      -5.137   6.705   6.458  0.00  0.00    +0.339 C 
ATOM     21  O   UNL     1      -5.646   6.144   5.505  0.00  0.00    -0.245 OA
BRANCH  20  22
ATOM     22  O   UNL     1      -5.604   6.477   7.703  0.00  0.00    -0.462 OA
BRANCH  22  24
ATOM     23  C   UNL     1      -7.085   5.435   9.304  0.00  0.00    +0.048 C 
ATOM     24  C   UNL     1      -6.697   5.565   7.829  0.00  0.00    +0.229 C 
ENDBRANCH  22  24
ENDBRANCH  20  22
ENDBRANCH   1  20
BRANCH   2  25
ATOM     25  C   UNL     1      -2.540   5.906   7.231  0.00  0.00    +0.135 C 
BRANCH  25  26
ATOM     26  N   UNL     1      -1.690   5.112   6.334  0.00  0.00    -0.300 NA
ATOM     27  C   UNL     1      -1.610   3.715   6.783  0.00  0.00    +0.066 C 
ATOM     28  C   UNL     1      -0.655   2.942   5.871  0.00  0.00    -0.063 C 
ATOM     29  N   UNL     1      -1.135   3.020   4.485  0.00  0.00    +0.383 N 
ATOM     30  C   UNL     1      -1.214   4.417   4.035  0.00  0.00    -0.063 C 
ATOM     31  C   UNL     1      -2.170   5.190   4.947  0.00  0.00    +0.066 C 
ATOM     32  H   UNL     1      -2.149   2.594   4.452  0.00  0.00    -0.081 HD
BRANCH  29  33
ATOM     33  C   UNL     1      -0.285   2.226   3.588  0.00  0.00    -0.068 C 
ATOM     34  C   UNL     1      -0.302   0.762   4.032  0.00  0.00    -0.015 C 
ATOM     35  C   UNL     1       0.583  -0.065   3.098  0.00  0.00    -0.002 C 
ATOM     36  C   UNL     1       0.053   0.040   1.666  0.00  0.00    -0.000 C 
ATOM     37  C   UNL     1       0.071   1.504   1.222  0.00  0.00    -0.002 C 
ATOM     38  C   UNL     1      -0.815   2.331   2.156  0.00  0.00    -0.015 C 
ENDBRANCH  29  33
ENDBRANCH  25  26
ENDBRANCH   2  25
TORSDOF 9
