REMARK  Name = ZINC21225139
REMARK  7 active torsions:
REMARK  status: ('A' for Active; 'I' for Inactive)
REMARK    1  A    between atoms: C_1  and  C_2
REMARK    2  A    between atoms: C_2  and  C_30
REMARK    3  A    between atoms: C_6  and  C_16
REMARK    4  A    between atoms: C_18  and  O_25
REMARK    5  A    between atoms: C_19  and  O_23
REMARK    6  A    between atoms: O_23  and  C_24
REMARK    7  A    between atoms: O_25  and  C_26
REMARK                            x       y       z     vdW  Elec       q    Type
REMARK                         _______ _______ _______ _____ _____    ______ ____
ROOT
ATOM      1  C   UNL     1      -0.255  -1.290   4.148  0.00  0.00    +0.011 C 
ATOM      2  C   UNL     1       1.151  -1.754   3.759  0.00  0.00    -0.023 C 
ATOM      3  C   UNL     1       1.995  -0.553   3.340  0.00  0.00    +0.058 C 
ATOM      4  C   UNL     1       1.348   0.146   2.154  0.00  0.00    +0.017 C 
ATOM      5  C   UNL     1       0.665  -0.561   1.241  0.00  0.00    +0.036 C 
ATOM      6  C   UNL     1       0.002  -0.004   0.002  0.00  0.00    +0.137 C 
ATOM      7  N   UNL     1      -0.080   1.441  -0.029  0.00  0.00    -0.331 N 
ATOM      8  C   UNL     1       1.069   2.224  -0.077  0.00  0.00    +0.049 A 
ATOM      9  C   UNL     1       1.373   2.993  -1.191  0.00  0.00    +0.025 A 
ATOM     10  C   UNL     1       2.556   3.710  -1.223  0.00  0.00    +0.002 A 
ATOM     11  C   UNL     1       3.435   3.661  -0.156  0.00  0.00    +0.002 A 
ATOM     12  C   UNL     1       3.126   2.913   0.967  0.00  0.00    +0.025 A 
ATOM     13  C   UNL     1       1.932   2.216   1.009  0.00  0.00    +0.052 A 
ATOM     14  N   UNL     1       1.531   1.492   2.128  0.00  0.00    -0.316 N 
ATOM     15  C   UNL     1       0.508  -1.959   1.391  0.00  0.00    +0.163 C 
ATOM     16  O   UNL     1      -0.104  -2.575   0.540  0.00  0.00    -0.292 OA
ATOM     17  C   UNL     1       1.069  -2.709   2.562  0.00  0.00    +0.086 C 
ATOM     18  C   UNL     1       1.810  -2.463   4.944  0.00  0.00    +0.011 C 
ATOM     19  H   UNL     1      -1.062   1.936  -0.015  0.00  0.00    +0.147 HD
ATOM     20  H   UNL     1       1.360   2.088   3.037  0.00  0.00    +0.152 HD
ENDROOT
BRANCH   6  21
ATOM     21  C   UNL     1       0.778  -0.466  -1.205  0.00  0.00    -0.005 A 
ATOM     22  C   UNL     1       2.095  -0.866  -1.067  0.00  0.00    +0.056 A 
ATOM     23  C   UNL     1       2.809  -1.290  -2.175  0.00  0.00    +0.162 A 
ATOM     24  C   UNL     1       2.199  -1.315  -3.426  0.00  0.00    +0.163 A 
ATOM     25  C   UNL     1       0.880  -0.914  -3.558  0.00  0.00    +0.065 A 
ATOM     26  C   UNL     1       0.170  -0.495  -2.446  0.00  0.00    +0.027 A 
ATOM     27 BR   UNL     1      -1.633   0.045  -2.627  0.00  0.00    -0.050 Br
BRANCH  24  28
ATOM     28  O   UNL     1       2.897  -1.731  -4.516  0.00  0.00    -0.491 OA
ATOM     29  C   UNL     1       2.207  -1.729  -5.768  0.00  0.00    +0.277 C 
ENDBRANCH  24  28
BRANCH  23  30
ATOM     30  O   UNL     1       4.104  -1.684  -2.041  0.00  0.00    -0.491 OA
ATOM     31  C   UNL     1       4.665  -1.633  -0.727  0.00  0.00    +0.277 C 
ENDBRANCH  23  30
ENDBRANCH   6  21
TORSDOF 3
