REMARK  Name = ZINC48852759
REMARK  3 active torsions:
REMARK  status: ('A' for Active; 'I' for Inactive)
REMARK    1  A    between atoms: C_1  and  C_2
REMARK    2  A    between atoms: C_3  and  C_7
REMARK    3  A    between atoms: N_9  and  N_10
REMARK                            x       y       z     vdW  Elec       q    Type
REMARK                         _______ _______ _______ _____ _____    ______ ____
ROOT
ATOM      1  N   UNL     1      -4.827  -0.946   0.020  0.00  0.00    -0.218 N 
ATOM      2  C   UNL     1      -5.795  -1.878   0.122  0.00  0.00    +0.319 C 
ATOM      3  O   UNL     1      -6.964  -1.542   0.130  0.00  0.00    -0.251 OA
ATOM      4  N   UNL     1      -5.468  -3.182   0.214  0.00  0.00    -0.281 N 
ATOM      5  C   UNL     1      -4.106  -3.745   0.328  0.00  0.00    +0.113 C 
ATOM      6  C   UNL     1      -4.307  -5.289   0.424  0.00  0.00    +0.008 C 
ATOM      7  C   UNL     1      -4.753  -5.701  -1.013  0.00  0.00    +0.007 C 
ATOM      8  C   UNL     1      -6.149  -5.054  -1.176  0.00  0.00    +0.023 C 
ATOM      9  C   UNL     1      -6.411  -4.338   0.227  0.00  0.00    +0.078 C 
ATOM     10  C   UNL     1      -5.676  -5.324   1.195  0.00  0.00    +0.027 C 
ATOM     11  H   UNL     1      -3.899  -1.217  -0.060  0.00  0.00    +0.174 HD
ENDROOT
BRANCH   1  14
ATOM     12  C   UNL     1      -4.187   1.347   0.031  0.00  0.00    +0.263 C 
ATOM     13  O   UNL     1      -3.019   1.007   0.023  0.00  0.00    -0.269 OA
ATOM     14  N   UNL     1      -5.160   0.415   0.030  0.00  0.00    -0.229 N 
ATOM     15  H   UNL     1      -6.091   0.686   0.037  0.00  0.00    +0.173 HD
BRANCH  12  18
ATOM     16  C   UNL     1      -2.174   3.753   0.036  0.00  0.00    +0.087 C 
ATOM     17  C   UNL     1      -3.678   3.838   0.044  0.00  0.00    +0.114 A 
ATOM     18  C   UNL     1      -4.538   2.778   0.042  0.00  0.00    +0.079 A 
ATOM     19  C   UNL     1      -5.887   3.363   0.052  0.00  0.00    +0.054 A 
ATOM     20  C   UNL     1      -5.712   4.693   0.059  0.00  0.00    +0.196 A 
ATOM     21  O   UNL     1      -4.398   4.964   0.060  0.00  0.00    -0.467 OA
ENDBRANCH  12  18
ENDBRANCH   1  14
TORSDOF 2
