REMARK  Name = ZINC27642591
REMARK  13 active torsions:
REMARK  status: ('A' for Active; 'I' for Inactive)
REMARK    1  A    between atoms: C_1  and  C_2
REMARK    2  A    between atoms: C_3  and  C_4
REMARK    3  A    between atoms: C_4  and  C_5
REMARK    4  A    between atoms: C_5  and  C_7
REMARK    5  A    between atoms: C_5  and  C_8
REMARK    6  A    between atoms: C_8  and  C_10
REMARK    7  A    between atoms: C_8  and  O_35
REMARK    8  A    between atoms: C_11  and  C_12
REMARK    9  A    between atoms: C_14  and  O_34
REMARK   10  A    between atoms: C_25  and  C_28
REMARK   11  A    between atoms: C_28  and  C_29
REMARK   12  A    between atoms: C_29  and  C_30
REMARK   13  A    between atoms: C_30  and  C_31
REMARK                            x       y       z     vdW  Elec       q    Type
REMARK                         _______ _______ _______ _____ _____    ______ ____
ROOT
ATOM      1  C   UNL     1       4.242   2.170  -1.461  0.00  0.00    +0.051 C 
ATOM      2  C   UNL     1       5.661   1.560  -1.601  0.00  0.00    +0.126 C 
ATOM      3  C   UNL     1       5.859   0.578  -0.438  0.00  0.00    +0.077 C 
ATOM      4  C   UNL     1       4.571   0.588   0.395  0.00  0.00    +0.184 C 
ATOM      5  C   UNL     1       3.814   1.883  -0.010  0.00  0.00    +0.073 C 
ATOM      6  C   UNL     1       2.374   1.404  -0.013  0.00  0.00    +0.002 A 
ATOM      7  C   UNL     1       1.175   2.082   0.002  0.00  0.00    +0.007 A 
ATOM      8  C   UNL     1      -0.017   1.379   0.010  0.00  0.00    +0.001 A 
ATOM      9  C   UNL     1       0.002  -0.004   0.002  0.00  0.00    +0.007 A 
ATOM     10  C   UNL     1       1.202  -0.685  -0.016  0.00  0.00    -0.005 A 
ATOM     11  C   UNL     1       2.405   0.016  -0.026  0.00  0.00    +0.128 A 
ATOM     12  O   UNL     1       3.685  -0.448  -0.057  0.00  0.00    -0.488 OA
ENDROOT
BRANCH   1  14
ATOM     13  C   UNL     1       2.620   2.219  -3.285  0.00  0.00    +0.000 C 
ATOM     14  C   UNL     1       3.295   1.500  -2.423  0.00  0.00    -0.022 C 
BRANCH  13  15
ATOM     15  C   UNL     1       1.673   1.549  -4.247  0.00  0.00    +0.141 C 
BRANCH  15  16
ATOM     16  C   UNL     1       0.283   2.175  -4.113  0.00  0.00    +0.030 C 
ATOM     17  C   UNL     1      -0.225   1.986  -2.683  0.00  0.00    +0.011 C 
BRANCH  16  18
ATOM     18  C   UNL     1      -0.678   1.494  -5.090  0.00  0.00    +0.095 C 
BRANCH  18  21
ATOM     19  C   UNL     1      -4.329   3.397  -4.971  0.00  0.00    +0.106 C 
ATOM     20  C   UNL     1      -3.024   2.717  -5.014  0.00  0.00    -0.106 C 
ATOM     21  C   UNL     1      -1.983   2.174  -5.048  0.00  0.00    -0.102 C 
ENDBRANCH  18  21
ENDBRANCH  16  18
ENDBRANCH  15  16
BRANCH  15  22
ATOM     22  O   UNL     1       1.599   0.154  -3.949  0.00  0.00    -0.387 OA
ATOM     23  H   UNL     1       2.505  -0.467  -3.993  0.00  0.00    +0.210 HD
ENDBRANCH  15  22
ENDBRANCH  13  15
ENDBRANCH   1  14
BRANCH   2  24
ATOM     24  O   UNL     1       5.784   0.870  -2.846  0.00  0.00    -0.391 OA
ATOM     25  H   UNL     1       6.730   0.375  -3.110  0.00  0.00    +0.210 HD
ENDBRANCH   2  24
BRANCH  10  26
ATOM     26  C   UNL     1       1.210  -2.192  -0.024  0.00  0.00    +0.039 C 
BRANCH  26  27
ATOM     27  C   UNL     1       1.356  -2.709   1.409  0.00  0.00    +0.016 C 
BRANCH  27  28
ATOM     28  C   UNL     1       1.364  -4.239   1.400  0.00  0.00    +0.125 C 
BRANCH  28  29
ATOM     29  C   UNL     1       1.508  -4.748   2.811  0.00  0.00    +0.356 C 
ATOM     30  O   UNL     1       1.595  -3.967   3.729  0.00  0.00    -0.246 OA
ATOM     31  O   UNL     1       1.539  -6.068   3.048  0.00  0.00    -0.246 OA
ENDBRANCH  28  29
ENDBRANCH  27  28
ENDBRANCH  26  27
ENDBRANCH  10  26
TORSDOF 11
