REMARK  Name = ZINC39024945
REMARK  7 active torsions:
REMARK  status: ('A' for Active; 'I' for Inactive)
REMARK    1  A    between atoms: C_1  and  C_2
REMARK    2  A    between atoms: C_5  and  C_8
REMARK    3  A    between atoms: C_11  and  C_23
REMARK    4  A    between atoms: C_12  and  C_14
REMARK    5  A    between atoms: C_16  and  O_21
REMARK    6  A    between atoms: C_19  and  O_20
REMARK    7  A    between atoms: O_21  and  C_22
REMARK                            x       y       z     vdW  Elec       q    Type
REMARK                         _______ _______ _______ _____ _____    ______ ____
ROOT
ATOM      1  C   UNL     1       0.058  -4.245  -0.021  0.00  0.00    +0.084 C 
ATOM      2  N   UNL     1       0.069  -5.026  -1.066  0.00  0.00    -0.153 NA
ATOM      3  N   UNL     1       0.087  -6.372  -0.716  0.00  0.00    -0.158 NA
ATOM      4  C   UNL     1       0.089  -6.551   0.566  0.00  0.00    +0.051 C 
ATOM      5  C   UNL     1       0.076  -5.166   1.183  0.00  0.00    +0.119 C 
ATOM      6  C   UNL     1       0.106  -7.868   1.297  0.00  0.00    +0.063 C 
ENDROOT
BRANCH   1  11
ATOM      7  C   UNL     1      -0.018   1.503   0.010  0.00  0.00    +0.044 C 
ATOM      8  C   UNL     1       0.002  -0.004   0.002  0.00  0.00    -0.050 A 
ATOM      9  C   UNL     1       0.006  -0.686  -1.202  0.00  0.00    +0.004 A 
ATOM     10  C   UNL     1       0.024  -2.064  -1.218  0.00  0.00    +0.010 A 
ATOM     11  C   UNL     1       0.039  -2.774  -0.013  0.00  0.00    -0.001 A 
ATOM     12  C   UNL     1       0.036  -2.078   1.200  0.00  0.00    +0.010 A 
ATOM     13  C   UNL     1       0.023  -0.699   1.199  0.00  0.00    +0.004 A 
ENDBRANCH   1  11
BRANCH   5  14
ATOM     14  C   UNL     1       1.317  -4.938   2.007  0.00  0.00    +0.012 A 
ATOM     15  C   UNL     1       2.565  -5.123   1.443  0.00  0.00    +0.053 A 
ATOM     16  C   UNL     1       3.706  -4.912   2.202  0.00  0.00    +0.121 A 
ATOM     17  C   UNL     1       3.595  -4.517   3.527  0.00  0.00    +0.049 A 
ATOM     18  C   UNL     1       2.348  -4.333   4.091  0.00  0.00    +0.049 A 
ATOM     19  C   UNL     1       1.206  -4.538   3.330  0.00  0.00    +0.121 A 
BRANCH  19  20
ATOM     20  O   UNL     1      -0.022  -4.351   3.884  0.00  0.00    -0.506 OA
ATOM     21  H   UNL     1      -0.391  -5.143   4.298  0.00  0.00    +0.292 HD
ENDBRANCH  19  20
BRANCH  16  22
ATOM     22  O   UNL     1       4.934  -5.094   1.647  0.00  0.00    -0.495 OA
ATOM     23  C   UNL     1       6.067  -4.860   2.487  0.00  0.00    +0.277 C 
ENDBRANCH  16  22
ENDBRANCH   5  14
TORSDOF 4
