REMARK  Name = ZINC67514788
REMARK  5 active torsions:
REMARK  status: ('A' for Active; 'I' for Inactive)
REMARK    1  A    between atoms: C_1  and  C_2
REMARK    2  A    between atoms: C_3  and  N_21
REMARK    3  A    between atoms: C_5  and  C_7
REMARK    4  A    between atoms: N_9  and  C_10
REMARK    5  A    between atoms: C_13  and  C_15
REMARK                            x       y       z     vdW  Elec       q    Type
REMARK                         _______ _______ _______ _____ _____    ______ ____
ROOT
ATOM      1  C   UNL     1       1.076  -3.942  -0.026  0.00  0.00    +0.251 C 
ATOM      2  O   UNL     1       0.342  -4.913  -0.029  0.00  0.00    -0.270 OA
ATOM      3  N   UNL     1       2.413  -4.108  -0.034  0.00  0.00    -0.307 N 
ATOM      4  H   UNL     1       2.998  -3.334  -0.032  0.00  0.00    +0.149 HD
ENDROOT
BRANCH   1   9
ATOM      5  C   UNL     1      -0.018   1.503   0.010  0.00  0.00    +0.054 C 
ATOM      6  C   UNL     1       0.002  -0.004   0.002  0.00  0.00    +0.018 A 
ATOM      7  C   UNL     1      -1.056  -0.852   0.002  0.00  0.00    +0.137 A 
ATOM      8  C   UNL     1      -0.827  -2.207  -0.007  0.00  0.00    +0.053 A 
ATOM      9  C   UNL     1       0.505  -2.592  -0.016  0.00  0.00    +0.076 A 
ATOM     10  S   UNL     1       1.341  -1.018  -0.017  0.00  0.00    -0.087 S 
BRANCH   7  11
ATOM     11  N   UNL     1      -2.439  -0.325   0.012  0.00  0.00    +0.057 N 
ATOM     12  O   UNL     1      -3.377  -1.088   0.012  0.00  0.00    -0.126 OA
ATOM     13  O   UNL     1      -2.631   0.869   0.021  0.00  0.00    -0.126 OA
ENDBRANCH   7  11
ENDBRANCH   1   9
BRANCH   3  14
ATOM     14  C   UNL     1       2.984  -5.457  -0.044  0.00  0.00    +0.081 C 
ATOM     15  C   UNL     1       4.167  -5.731   0.887  0.00  0.00    +0.033 C 
ATOM     16  C   UNL     1       4.390  -5.625  -0.624  0.00  0.00    +0.041 C 
BRANCH  16  17
ATOM     17  C   UNL     1       4.686  -6.897  -1.375  0.00  0.00    -0.042 A 
ATOM     18  C   UNL     1       4.567  -8.119  -0.739  0.00  0.00    +0.004 A 
ATOM     19  C   UNL     1       4.838  -9.286  -1.427  0.00  0.00    +0.000 A 
ATOM     20  C   UNL     1       5.228  -9.232  -2.753  0.00  0.00    +0.000 A 
ATOM     21  C   UNL     1       5.346  -8.011  -3.389  0.00  0.00    +0.000 A 
ATOM     22  C   UNL     1       5.071  -6.844  -2.701  0.00  0.00    +0.004 A 
ENDBRANCH  16  17
ENDBRANCH   3  14
TORSDOF 4
