REMARK  Name = ZINC61409985
REMARK  3 active torsions:
REMARK  status: ('A' for Active; 'I' for Inactive)
REMARK    1  A    between atoms: C_1  and  C_2
REMARK    2  A    between atoms: C_4  and  C_19
REMARK    3  A    between atoms: C_9  and  C_10
REMARK                            x       y       z     vdW  Elec       q    Type
REMARK                         _______ _______ _______ _____ _____    ______ ____
ROOT
ATOM      1  C   UNL     1      -0.381   1.465   0.053  0.00  0.00    +0.045 C 
ATOM      2  C   UNL     1      -0.168  -0.026   0.025  0.00  0.00    -0.031 A 
ATOM      3  C   UNL     1      -0.261  -0.733  -1.175  0.00  0.00    +0.025 A 
ATOM      4  C   UNL     1      -0.069  -2.076  -1.191  0.00  0.00    +0.016 A 
ATOM      5  N   UNL     1       0.216  -2.759  -0.056  0.00  0.00    -0.326 N 
ATOM      6  H   UNL     1       0.349  -3.719  -0.097  0.00  0.00    +0.169 HD
ATOM      7  C   UNL     1       0.318  -2.126   1.128  0.00  0.00    +0.261 A 
ATOM      8  O   UNL     1       0.576  -2.757   2.138  0.00  0.00    -0.267 OA
ATOM      9  C   UNL     1       0.130  -0.721   1.195  0.00  0.00    +0.104 A 
ATOM     10  C   UNL     1      -0.173  -2.823  -2.496  0.00  0.00    +0.063 C 
ENDROOT
BRANCH   9  11
ATOM     11  C   UNL     1       0.242  -0.011   2.478  0.00  0.00    +0.253 C 
ATOM     12  O   UNL     1      -0.676  -0.046   3.275  0.00  0.00    -0.270 OA
ATOM     13  N   UNL     1       1.363   0.677   2.771  0.00  0.00    -0.287 N 
ATOM     14  C   UNL     1       1.558   1.298   4.093  0.00  0.00    +0.127 C 
ATOM     15  C   UNL     1       2.789   0.663   4.742  0.00  0.00    +0.123 C 
ATOM     16  N   UNL     1       3.897   0.603   3.798  0.00  0.00    -0.313 N 
ATOM     17  C   UNL     1       3.765   0.638   2.471  0.00  0.00    +0.230 C 
ATOM     18  O   UNL     1       4.756   0.499   1.787  0.00  0.00    -0.274 OA
ATOM     19  C   UNL     1       2.444   0.835   1.787  0.00  0.00    +0.203 C 
ATOM     20  H   UNL     1       4.794   0.532   4.160  0.00  0.00    +0.149 HD
ENDBRANCH   9  11
TORSDOF 1
