REMARK  Name = ZINC07253580
REMARK  6 active torsions:
REMARK  status: ('A' for Active; 'I' for Inactive)
REMARK    1  A    between atoms: C_1  and  C_2
REMARK    2  A    between atoms: C_5  and  N_9
REMARK    3  A    between atoms: C_10  and  C_12
REMARK    4  A    between atoms: C_12  and  N_13
REMARK    5  A    between atoms: C_15  and  C_24
REMARK    6  A    between atoms: N_26  and  C_27
REMARK                            x       y       z     vdW  Elec       q    Type
REMARK                         _______ _______ _______ _____ _____    ______ ____
ROOT
ATOM      1  N   UNL     1       2.277   0.947   0.032  0.00  0.00    -0.314 N 
ATOM      2  C   UNL     1       3.611   1.530  -0.150  0.00  0.00    +0.160 C 
ATOM      3  C   UNL     1       4.625   0.389  -0.309  0.00  0.00    +0.276 C 
ATOM      4  O   UNL     1       4.294  -0.332  -1.500  0.00  0.00    -0.476 OA
ATOM      5  C   UNL     1       2.979  -0.632  -1.687  0.00  0.00    +0.143 A 
ATOM      6  C   UNL     1       1.982  -0.009  -0.945  0.00  0.00    +0.073 A 
ATOM      7  C   UNL     1       0.650  -0.340  -1.173  0.00  0.00    +0.027 A 
ATOM      8  C   UNL     1       0.321  -1.282  -2.127  0.00  0.00    +0.002 A 
ATOM      9  C   UNL     1       1.314  -1.902  -2.861  0.00  0.00    +0.004 A 
ATOM     10  C   UNL     1       2.640  -1.579  -2.643  0.00  0.00    +0.047 A 
ENDROOT
BRANCH   3  11
ATOM     11  C   UNL     1       6.017   0.957  -0.427  0.00  0.00    +0.255 C 
ATOM     12  O   UNL     1       6.643   0.819  -1.456  0.00  0.00    -0.272 OA
ATOM     13  N   UNL     1       6.565   1.618   0.612  0.00  0.00    -0.315 N 
ATOM     14  C   UNL     1       7.917   2.170   0.497  0.00  0.00    +0.128 C 
ATOM     15  H   UNL     1       6.064   1.729   1.435  0.00  0.00    +0.148 HD
ENDBRANCH   3  11
BRANCH   1  16
ATOM     16  C   UNL     1       1.247   1.993   0.072  0.00  0.00    +0.201 C 
BRANCH  16  18
ATOM     17  N   UNL     1       0.115   3.498  -1.531  0.00  0.00    -0.284 N 
ATOM     18  C   UNL     1       1.090   2.597  -1.299  0.00  0.00    +0.235 C 
ATOM     19  O   UNL     1       1.844   2.276  -2.193  0.00  0.00    -0.274 OA
ATOM     20  H   UNL     1      -0.444   3.807  -0.801  0.00  0.00    +0.155 HD
BRANCH  17  25
ATOM     21  C   UNL     1      -0.716   5.486  -6.781  0.00  0.00    +0.047 C 
ATOM     22  C   UNL     1      -0.496   4.958  -5.387  0.00  0.00    -0.015 A 
ATOM     23  C   UNL     1       0.785   4.673  -4.951  0.00  0.00    +0.008 A 
ATOM     24  C   UNL     1       0.990   4.194  -3.672  0.00  0.00    +0.024 A 
ATOM     25  C   UNL     1      -0.091   3.988  -2.826  0.00  0.00    +0.036 A 
ATOM     26  C   UNL     1      -1.377   4.275  -3.264  0.00  0.00    +0.062 A 
ATOM     27  C   UNL     1      -1.577   4.760  -4.544  0.00  0.00    +0.128 A 
ATOM     28  F   UNL     1      -2.828   5.040  -4.973  0.00  0.00    -0.205 F 
ENDBRANCH  17  25
ENDBRANCH  16  18
ENDBRANCH   1  16
TORSDOF 4
