REMARK  Name = ZINC38990301
REMARK  9 active torsions:
REMARK  status: ('A' for Active; 'I' for Inactive)
REMARK    1  A    between atoms: C_1  and  C_2
REMARK    2  A    between atoms: C_2  and  N_3
REMARK    3  A    between atoms: C_4  and  C_6
REMARK    4  A    between atoms: C_8  and  N_17
REMARK    5  A    between atoms: C_18  and  C_20
REMARK    6  A    between atoms: C_23  and  C_25
REMARK    7  A    between atoms: C_27  and  C_33
REMARK    8  A    between atoms: C_29  and  C_32
REMARK    9  A    between atoms: C_30  and  O_31
REMARK                            x       y       z     vdW  Elec       q    Type
REMARK                         _______ _______ _______ _____ _____    ______ ____
ROOT
ATOM      1  N   UNL     1       3.174  -0.724  -1.931  0.00  0.00    -0.297 N 
ATOM      2  C   UNL     1       4.313  -0.643  -1.216  0.00  0.00    +0.261 C 
ATOM      3  O   UNL     1       5.129  -1.544  -1.267  0.00  0.00    -0.269 OA
ATOM      4  H   UNL     1       2.523  -0.005  -1.891  0.00  0.00    +0.150 HD
ENDROOT
BRANCH   1   6
ATOM      5  C   UNL     1       1.401  -2.173  -2.913  0.00  0.00    +0.132 C 
ATOM      6  C   UNL     1       2.917  -1.898  -2.770  0.00  0.00    +0.152 C 
ATOM      7  S   UNL     1       3.406  -3.457  -1.920  0.00  0.00    -0.106 S 
ATOM      8  C   UNL     1       2.029  -4.465  -2.418  0.00  0.00    -0.013 C 
ATOM      9  C   UNL     1       1.104  -3.652  -2.907  0.00  0.00    -0.046 C 
ATOM     10  C   UNL     1      -0.217  -4.199  -3.443  0.00  0.00    +0.032 C 
ATOM     11  C   UNL     1      -0.062  -5.692  -3.728  0.00  0.00    +0.005 C 
ATOM     12  C   UNL     1       0.495  -6.394  -2.486  0.00  0.00    +0.005 C 
ATOM     13  C   UNL     1       1.948  -5.961  -2.300  0.00  0.00    +0.042 C 
BRANCH   5  15
ATOM     14  N   UNL     1       0.163  -0.281  -1.912  0.00  0.00    -0.315 N 
ATOM     15  C   UNL     1       0.672  -1.520  -1.768  0.00  0.00    +0.223 C 
ATOM     16  O   UNL     1       0.543  -2.110  -0.716  0.00  0.00    -0.275 OA
ATOM     17  H   UNL     1       0.328   0.220  -2.726  0.00  0.00    +0.149 HD
BRANCH  14  19
ATOM     18  C   UNL     1      -1.092   1.713  -1.253  0.00  0.00    +0.024 C 
ATOM     19  C   UNL     1      -0.640   0.311  -0.839  0.00  0.00    +0.101 C 
ENDBRANCH  14  19
ENDBRANCH   5  15
ENDBRANCH   1   6
BRANCH   2  20
ATOM     20  C   UNL     1       4.570   0.532  -0.377  0.00  0.00    +0.131 C 
ATOM     21  N   UNL     1       3.798   1.575  -0.210  0.00  0.00    -0.148 NA
ATOM     22  N   UNL     1       4.269   2.457   0.581  0.00  0.00    -0.153 NA
ATOM     23  C   UNL     1       5.445   2.157   1.085  0.00  0.00    +0.080 C 
ATOM     24  C   UNL     1       5.787   0.799   0.493  0.00  0.00    +0.120 C 
BRANCH  23  25
ATOM     25  C   UNL     1       6.247   2.953   2.016  0.00  0.00    +0.040 A 
ATOM     26  C   UNL     1       7.494   2.483   2.454  0.00  0.00    +0.016 A 
ATOM     27  C   UNL     1       8.242   3.238   3.329  0.00  0.00    -0.049 A 
ATOM     28  C   UNL     1       7.768   4.460   3.782  0.00  0.00    +0.010 A 
ATOM     29  C   UNL     1       6.542   4.936   3.361  0.00  0.00    -0.008 A 
ATOM     30  C   UNL     1       5.775   4.196   2.475  0.00  0.00    +0.129 A 
ATOM     31  C   UNL     1       6.040   6.266   3.861  0.00  0.00    +0.047 C 
ATOM     32  C   UNL     1       9.582   2.733   3.798  0.00  0.00    +0.044 C 
BRANCH  30  33
ATOM     33  O   UNL     1       4.573   4.665   2.057  0.00  0.00    -0.506 OA
ATOM     34  H   UNL     1       3.831   4.400   2.617  0.00  0.00    +0.292 HD
ENDBRANCH  30  33
ENDBRANCH  23  25
ENDBRANCH   2  20
TORSDOF 6
