REMARK  Name = ZINC32716882
REMARK  9 active torsions:
REMARK  status: ('A' for Active; 'I' for Inactive)
REMARK    1  A    between atoms: C_1  and  C_2
REMARK    2  A    between atoms: C_2  and  C_3
REMARK    3  A    between atoms: C_2  and  C_4
REMARK    4  A    between atoms: C_2  and  C_5
REMARK    5  A    between atoms: C_12  and  C_14
REMARK    6  A    between atoms: N_16  and  C_17
REMARK    7  A    between atoms: C_17  and  C_18
REMARK    8  A    between atoms: C_18  and  S_19
REMARK    9  A    between atoms: S_19  and  N_22
REMARK                            x       y       z     vdW  Elec       q    Type
REMARK                         _______ _______ _______ _____ _____    ______ ____
ROOT
ATOM      1  C   UNL     1       7.519  -0.905  -6.482  0.00  0.00    +0.128 C 
ENDROOT
BRANCH   1   4
ATOM      2  C   UNL     1       5.865  -0.405  -4.764  0.00  0.00    +0.251 C 
ATOM      3  O   UNL     1       6.527   0.568  -4.453  0.00  0.00    -0.270 OA
ATOM      4  N   UNL     1       6.276  -1.206  -5.767  0.00  0.00    -0.309 N 
ATOM      5  H   UNL     1       5.749  -1.981  -6.016  0.00  0.00    +0.149 HD
BRANCH   2  12
ATOM      6  C   UNL     1       0.635  -0.396  -1.375  0.00  0.00    -0.001 C 
ATOM      7  C   UNL     1       0.629  -1.927  -1.386  0.00  0.00    +0.009 C 
ATOM      8  C   UNL     1       1.115  -2.413  -2.759  0.00  0.00    +0.043 C 
ATOM      9  C   UNL     1       2.370  -1.669  -3.109  0.00  0.00    -0.006 A 
ATOM     10  C   UNL     1       2.840  -0.535  -2.512  0.00  0.00    -0.036 A 
ATOM     11  C   UNL     1       4.030  -0.020  -3.003  0.00  0.00    +0.024 A 
ATOM     12  C   UNL     1       4.622  -0.705  -4.049  0.00  0.00    +0.074 A 
ATOM     13  S   UNL     1       3.477  -2.049  -4.299  0.00  0.00    -0.088 S 
ATOM     14  C   UNL     1       2.076   0.115  -1.362  0.00  0.00    +0.040 C 
BRANCH   6  16
ATOM     15  C   UNL     1      -0.091   1.636  -0.115  0.00  0.00    +0.011 C 
ATOM     16  C   UNL     1      -0.094   0.106  -0.127  0.00  0.00    -0.035 C 
ATOM     17  C   UNL     1       0.619  -0.414   1.124  0.00  0.00    +0.011 C 
ATOM     18  C   UNL     1      -1.537  -0.402  -0.140  0.00  0.00    +0.011 C 
ENDBRANCH   6  16
ENDBRANCH   2  12
ENDBRANCH   1   4
BRANCH   1  19
ATOM     19  C   UNL     1       7.753  -1.962  -7.564  0.00  0.00    +0.204 C 
BRANCH  19  20
ATOM     20  S   UNL     1       9.292  -1.590  -8.450  0.00  0.00    +0.033 S 
ATOM     21  O   UNL     1       9.146  -0.395  -9.205  0.00  0.00    -0.158 OA
ATOM     22  O   UNL     1      10.408  -1.770  -7.589  0.00  0.00    -0.158 OA
BRANCH  20  23
ATOM     23  N   UNL     1       9.433  -2.790  -9.582  0.00  0.00    -0.178 NA
ATOM     24  C   UNL     1      10.138  -4.040  -9.263  0.00  0.00    +0.128 C 
ATOM     25  C   UNL     1       9.195  -5.218  -9.538  0.00  0.00    +0.123 C 
ATOM     26  N   UNL     1       8.617  -5.053 -10.879  0.00  0.00    -0.314 N 
ATOM     27  C   UNL     1       7.912  -3.803 -11.198  0.00  0.00    +0.123 C 
ATOM     28  C   UNL     1       8.850  -2.627 -10.921  0.00  0.00    +0.128 C 
ATOM     29  C   UNL     1       8.735  -6.061 -11.829  0.00  0.00    +0.099 A 
ATOM     30  C   UNL     1       9.511  -7.182 -11.553  0.00  0.00    +0.042 A 
ATOM     31  C   UNL     1       9.620  -8.177 -12.507  0.00  0.00    +0.005 A 
ATOM     32  C   UNL     1       8.946  -8.017 -13.711  0.00  0.00    +0.018 A 
ATOM     33  C   UNL     1       8.193  -6.879 -13.918  0.00  0.00    +0.084 A 
ATOM     34  N   UNL     1       8.103  -5.948 -12.988  0.00  0.00    -0.350 N 
ATOM     35  H   UNL     1       7.564  -5.160 -13.158  0.00  0.00    +0.166 HD
ENDBRANCH  20  23
ENDBRANCH  19  20
ENDBRANCH   1  19
TORSDOF 6
