REMARK  Name = ZINC44784980
REMARK  5 active torsions:
REMARK  status: ('A' for Active; 'I' for Inactive)
REMARK    1  A    between atoms: C_1  and  C_2
REMARK    2  A    between atoms: C_7  and  N_10
REMARK    3  A    between atoms: C_11  and  C_13
REMARK    4  A    between atoms: C_13  and  C_19
REMARK    5  A    between atoms: N_20  and  O_21
REMARK                            x       y       z     vdW  Elec       q    Type
REMARK                         _______ _______ _______ _____ _____    ______ ____
ROOT
ATOM      1  C   UNL     1       2.641  -4.262  -1.256  0.00  0.00    +0.105 C 
ATOM      2  C   UNL     1       3.124  -5.697  -1.033  0.00  0.00    +0.024 C 
ATOM      3  C   UNL     1       1.939  -6.576  -0.627  0.00  0.00    +0.001 C 
ATOM      4  C   UNL     1       0.887  -6.558  -1.738  0.00  0.00    +0.000 C 
ATOM      5  C   UNL     1       0.405  -5.123  -1.961  0.00  0.00    +0.001 C 
ATOM      6  C   UNL     1       1.589  -4.244  -2.366  0.00  0.00    +0.024 C 
ENDROOT
BRANCH   1   7
ATOM      7  C   UNL     1       3.808  -3.396  -1.655  0.00  0.00    +0.147 C 
ATOM      8  N   UNL     1       3.759  -2.709  -2.748  0.00  0.00    -0.076 NA
ATOM      9  N   UNL     1       4.928  -3.337  -0.855  0.00  0.00    -0.343 N 
ATOM     10  H   UNL     1       4.936  -3.793   0.001  0.00  0.00    +0.144 HD
ATOM     11  H   UNL     1       5.707  -2.839  -1.147  0.00  0.00    +0.144 HD
BRANCH   8  12
ATOM     12  O   UNL     1       4.855  -1.895  -3.123  0.00  0.00    -0.408 OA
ATOM     13  H   UNL     1       4.725  -1.420  -3.955  0.00  0.00    +0.328 HD
ENDBRANCH   8  12
ENDBRANCH   1   7
BRANCH   1  15
ATOM     14  N   UNL     1       1.414  -2.536   0.023  0.00  0.00    -0.312 N 
ATOM     15  C   UNL     1       2.035  -3.732   0.018  0.00  0.00    +0.227 C 
ATOM     16  O   UNL     1       2.107  -4.382   1.040  0.00  0.00    -0.275 OA
ATOM     17  H   UNL     1       1.420  -1.984  -0.775  0.00  0.00    +0.149 HD
BRANCH  14  23
ATOM     18  C   UNL     1      -0.174   1.456  -0.021  0.00  0.00    +0.007 C 
ATOM     19  C   UNL     1      -0.108  -0.072  -0.012  0.00  0.00    -0.012 C 
ATOM     20  C   UNL     1      -1.526  -0.644   0.024  0.00  0.00    +0.003 C 
ATOM     21  C   UNL     1      -1.459  -2.173   0.033  0.00  0.00    +0.002 C 
ATOM     22  C   UNL     1      -0.688  -2.643   1.268  0.00  0.00    +0.022 C 
ATOM     23  C   UNL     1       0.730  -2.070   1.232  0.00  0.00    +0.073 C 
ATOM     24  C   UNL     1       0.663  -0.542   1.223  0.00  0.00    +0.025 C 
ENDBRANCH  14  23
ENDBRANCH   1  15
TORSDOF 4
