REMARK  Name = ZINC19198565
REMARK  5 active torsions:
REMARK  status: ('A' for Active; 'I' for Inactive)
REMARK    1  A    between atoms: C_6  and  N_7
REMARK    2  A    between atoms: C_8  and  C_10
REMARK    3  A    between atoms: C_10  and  N_11
REMARK    4  A    between atoms: C_13  and  N_20
REMARK    5  A    between atoms: C_15  and  C_18
REMARK                            x       y       z     vdW  Elec       q    Type
REMARK                         _______ _______ _______ _____ _____    ______ ____
ROOT
ATOM      1  C   UNL     1      -2.478  -2.828  -0.205  0.00  0.00    +0.220 C 
ENDROOT
BRANCH   1   2
ATOM      2  N   UNL     1      -2.193  -4.261  -0.312  0.00  0.00    -0.303 N 
ATOM      3  C   UNL     1      -2.018  -4.816  -1.536  0.00  0.00    +0.122 A 
ATOM      4  C   UNL     1      -1.753  -6.140  -1.677  0.00  0.00    +0.144 A 
ATOM      5  C   UNL     1      -1.655  -6.958  -0.551  0.00  0.00    +0.058 A 
ATOM      6  C   UNL     1      -1.832  -6.395   0.710  0.00  0.00    +0.118 A 
ATOM      7  C   UNL     1      -2.103  -5.005   0.807  0.00  0.00    +0.269 A 
ATOM      8  O   UNL     1      -2.257  -4.486   1.899  0.00  0.00    -0.266 OA
BRANCH   4   9
ATOM      9  N   UNL     1      -1.569  -6.716  -3.028  0.00  0.00    +0.058 N 
ATOM     10  O   UNL     1      -1.655  -6.008  -4.004  0.00  0.00    -0.126 OA
ATOM     11  O   UNL     1      -1.333  -7.895  -3.155  0.00  0.00    -0.126 OA
ENDBRANCH   4   9
BRANCH   6  12
ATOM     12  C   UNL     1      -1.738  -7.202   1.889  0.00  0.00    +0.105 C 
ATOM     13  N   UNL     1      -1.663  -7.843   2.824  0.00  0.00    -0.191 NA
ENDBRANCH   6  12
ENDBRANCH   1   2
BRANCH   1  15
ATOM     14  N   UNL     1      -1.199  -0.722   0.010  0.00  0.00    -0.284 N 
ATOM     15  C   UNL     1      -1.183  -2.065  -0.100  0.00  0.00    +0.237 C 
ATOM     16  O   UNL     1      -0.126  -2.659  -0.113  0.00  0.00    -0.274 OA
ATOM     17  H   UNL     1      -2.044  -0.253   0.097  0.00  0.00    +0.155 HD
BRANCH  14  23
ATOM     18  C   UNL     1       1.072  -0.453  -0.766  0.00  0.00    +0.024 A 
ATOM     19  C   UNL     1       2.256   0.258  -0.777  0.00  0.00    +0.016 A 
ATOM     20  C   UNL     1       2.377   1.416  -0.030  0.00  0.00    +0.013 A 
ATOM     21  C   UNL     1       1.312   1.866   0.730  0.00  0.00    +0.016 A 
ATOM     22  C   UNL     1       0.126   1.159   0.745  0.00  0.00    +0.024 A 
ATOM     23  C   UNL     1       0.002  -0.004  -0.004  0.00  0.00    +0.033 A 
ATOM     24  I   UNL     1       4.175   2.490  -0.050  0.00  0.00    -0.044 I 
ENDBRANCH  14  23
ENDBRANCH   1  15
TORSDOF 5
