REMARK  Name = ZINC66846403
REMARK  5 active torsions:
REMARK  status: ('A' for Active; 'I' for Inactive)
REMARK    1  A    between atoms: C_1  and  C_2
REMARK    2  A    between atoms: C_2  and  C_4
REMARK    3  A    between atoms: C_2  and  N_19
REMARK    4  A    between atoms: N_6  and  C_7
REMARK    5  A    between atoms: C_23  and  C_26
REMARK                            x       y       z     vdW  Elec       q    Type
REMARK                         _______ _______ _______ _____ _____    ______ ____
ROOT
ATOM      1  C   UNL     1      -1.494  -0.619  -0.283  0.00  0.00    +0.234 C 
ATOM      2  O   UNL     1      -1.767  -1.175  -1.326  0.00  0.00    -0.274 OA
ATOM      3  N   UNL     1      -2.435  -0.479   0.672  0.00  0.00    -0.284 N 
ATOM      4  H   UNL     1      -2.237   0.025   1.477  0.00  0.00    +0.155 HD
ENDROOT
BRANCH   3   5
ATOM      5  C   UNL     1      -3.698  -1.061   0.502  0.00  0.00    +0.036 A 
ATOM      6  C   UNL     1      -4.379  -1.573   1.601  0.00  0.00    +0.025 A 
ATOM      7  C   UNL     1      -5.623  -2.148   1.441  0.00  0.00    +0.029 A 
ATOM      8  C   UNL     1      -6.197  -2.216   0.180  0.00  0.00    +0.067 A 
ATOM      9  C   UNL     1      -5.515  -1.703  -0.926  0.00  0.00    +0.069 A 
ATOM     10  C   UNL     1      -4.268  -1.121  -0.760  0.00  0.00    +0.051 A 
ATOM     11  N   UNL     1      -6.331  -1.913  -2.035  0.00  0.00    -0.306 N 
ATOM     12  H   UNL     1      -6.122  -1.661  -2.948  0.00  0.00    +0.170 HD
ATOM     13  C   UNL     1      -7.457  -2.526  -1.624  0.00  0.00    +0.325 A 
ATOM     14  O   UNL     1      -8.380  -2.852  -2.347  0.00  0.00    -0.247 OA
ATOM     15  N   UNL     1      -7.407  -2.723  -0.293  0.00  0.00    -0.306 N 
ATOM     16  H   UNL     1      -8.095  -3.145   0.244  0.00  0.00    +0.170 HD
ENDBRANCH   3   5
BRANCH   1  18
ATOM     17  C   UNL     1      -0.149   1.443   0.014  0.00  0.00    +0.034 C 
ATOM     18  C   UNL     1      -0.104  -0.085  -0.055  0.00  0.00    +0.140 C 
BRANCH  18  19
ATOM     19  N   UNL     1       0.768  -0.499  -1.163  0.00  0.00    -0.287 NA
ATOM     20  C   UNL     1       2.184  -0.305  -0.819  0.00  0.00    +0.113 C 
ATOM     21  C   UNL     1       3.056  -0.805  -1.974  0.00  0.00    +0.176 C 
ATOM     22  O   UNL     1       2.691  -0.116  -3.173  0.00  0.00    -0.369 OA
ATOM     23  C   UNL     1       1.318  -0.284  -3.538  0.00  0.00    +0.165 C 
ATOM     24  C   UNL     1       0.428   0.221  -2.398  0.00  0.00    +0.121 C 
BRANCH  23  25
ATOM     25  C   UNL     1       1.029   0.504  -4.789  0.00  0.00    +0.018 A 
ATOM     26  C   UNL     1       1.808   1.600  -5.111  0.00  0.00    +0.009 A 
ATOM     27  C   UNL     1       1.544   2.323  -6.259  0.00  0.00    +0.001 A 
ATOM     28  C   UNL     1       0.500   1.951  -7.087  0.00  0.00    +0.003 A 
ATOM     29  C   UNL     1      -0.279   0.856  -6.767  0.00  0.00    +0.039 A 
ATOM     30  C   UNL     1      -0.012   0.128  -5.620  0.00  0.00    +0.129 A 
ATOM     31  F   UNL     1      -0.771  -0.946  -5.309  0.00  0.00    -0.205 F 
ENDBRANCH  23  25
ENDBRANCH  18  19
ENDBRANCH   1  18
TORSDOF 4
