REMARK  Name = ZINC39662840
REMARK  6 active torsions:
REMARK  status: ('A' for Active; 'I' for Inactive)
REMARK    1  A    between atoms: C_6  and  C_7
REMARK    2  A    between atoms: C_10  and  C_12
REMARK    3  A    between atoms: C_16  and  C_25
REMARK    4  A    between atoms: N_27  and  C_28
REMARK    5  A    between atoms: C_28  and  C_29
REMARK    6  A    between atoms: C_32  and  C_35
REMARK                            x       y       z     vdW  Elec       q    Type
REMARK                         _______ _______ _______ _____ _____    ______ ____
ROOT
ATOM      1  C   UNL     1      -5.028  -1.060   0.074  0.00  0.00    +0.282 C 
ATOM      2  O   UNL     1      -5.781  -2.015   0.024  0.00  0.00    -0.267 OA
ATOM      3  N   UNL     1      -5.524   0.192   0.045  0.00  0.00    -0.294 N 
ATOM      4  C   UNL     1      -4.773   1.468   0.088  0.00  0.00    +0.121 C 
ATOM      5  C   UNL     1      -5.514   2.392  -0.904  0.00  0.00    +0.100 C 
ATOM      6  C   UNL     1      -6.940   1.821  -0.982  0.00  0.00    -0.004 C 
ATOM      7  C   UNL     1      -6.946   0.604  -0.045  0.00  0.00    +0.115 C 
ATOM      8  C   UNL     1      -7.256   1.383  -2.408  0.00  0.00    -0.010 C 
ATOM      9  C   UNL     1      -8.698   0.871  -2.472  0.00  0.00    -0.082 C 
ATOM     10  N   UNL     1      -9.616   1.937  -2.051  0.00  0.00    +0.379 N 
ATOM     11  C   UNL     1      -9.366   2.288  -0.648  0.00  0.00    -0.082 C 
ATOM     12  C   UNL     1      -7.952   2.859  -0.507  0.00  0.00    -0.010 C 
ATOM     13  H   UNL     1      -9.473   2.750  -2.631  0.00  0.00    -0.086 HD
ATOM     14  H   UNL     1     -10.568   1.618  -2.152  0.00  0.00    -0.086 HD
ENDROOT
BRANCH   1  18
ATOM     15  C   UNL     1      -1.425  -0.873   0.304  0.00  0.00    +0.136 A 
ATOM     16  C   UNL     1      -1.573  -2.231   0.292  0.00  0.00    +0.050 A 
ATOM     17  C   UNL     1      -2.944  -2.494   0.204  0.00  0.00    +0.055 A 
ATOM     18  C   UNL     1      -3.581  -1.273   0.166  0.00  0.00    +0.190 A 
ATOM     19  O   UNL     1      -2.641  -0.307   0.233  0.00  0.00    -0.450 OA
BRANCH  15  25
ATOM     20  C   UNL     1      -0.124   1.248   0.397  0.00  0.00    +0.014 A 
ATOM     21  C   UNL     1       1.078   1.920   0.475  0.00  0.00    +0.039 A 
ATOM     22  C   UNL     1       2.267   1.212   0.545  0.00  0.00    +0.123 A 
ATOM     23  C   UNL     1       2.256  -0.174   0.535  0.00  0.00    +0.039 A 
ATOM     24  C   UNL     1       1.061  -0.857   0.457  0.00  0.00    +0.014 A 
ATOM     25  C   UNL     1      -0.141  -0.148   0.387  0.00  0.00    +0.017 A 
ATOM     26  F   UNL     1       3.442   1.875   0.622  0.00  0.00    -0.205 F 
ENDBRANCH  15  25
ENDBRANCH   1  18
BRANCH   5  27
ATOM     27  C   UNL     1      -5.540   3.807  -0.385  0.00  0.00    +0.218 C 
ATOM     28  O   UNL     1      -5.556   4.014   0.810  0.00  0.00    -0.275 OA
ATOM     29  N   UNL     1      -5.546   4.841  -1.248  0.00  0.00    -0.315 N 
ATOM     30  H   UNL     1      -5.534   4.676  -2.204  0.00  0.00    +0.149 HD
BRANCH  29  31
ATOM     31  C   UNL     1      -5.572   6.216  -0.744  0.00  0.00    +0.107 C 
BRANCH  31  32
ATOM     32  C   UNL     1      -5.574   7.192  -1.922  0.00  0.00    +0.006 C 
ATOM     33  C   UNL     1      -6.870   7.029  -2.718  0.00  0.00    +0.006 C 
ATOM     34  C   UNL     1      -6.872   8.005  -3.896  0.00  0.00    +0.015 C 
ATOM     35  C   UNL     1      -6.773   9.439  -3.371  0.00  0.00    +0.102 C 
ATOM     36  C   UNL     1      -5.476   9.602  -2.575  0.00  0.00    +0.015 C 
ATOM     37  C   UNL     1      -5.475   8.626  -1.397  0.00  0.00    +0.006 C 
BRANCH  35  38
ATOM     38  C   UNL     1      -6.774  10.400  -4.532  0.00  0.00    +0.359 C 
ATOM     39  O   UNL     1      -7.396  11.446  -4.456  0.00  0.00    -0.246 OA
ATOM     40  O   UNL     1      -6.154  10.132  -5.546  0.00  0.00    -0.246 OA
ENDBRANCH  35  38
ENDBRANCH  31  32
ENDBRANCH  29  31
ENDBRANCH   5  27
TORSDOF 6
