REMARK  Name = ZINC04294262
REMARK  8 active torsions:
REMARK  status: ('A' for Active; 'I' for Inactive)
REMARK    1  A    between atoms: C_1  and  C_2
REMARK    2  A    between atoms: C_3  and  C_24
REMARK    3  A    between atoms: C_4  and  C_16
REMARK    4  A    between atoms: C_10  and  C_12
REMARK    5  A    between atoms: C_12  and  C_13
REMARK    6  A    between atoms: C_13  and  C_14
REMARK    7  A    between atoms: C_14  and  O_15
REMARK    8  A    between atoms: C_19  and  C_22
REMARK                            x       y       z     vdW  Elec       q    Type
REMARK                         _______ _______ _______ _____ _____    ______ ____
ROOT
ATOM      1  C   UNL     1       0.640   1.236   0.151  0.00  0.00    +0.066 C 
ATOM      2  C   UNL     1       0.389  -0.247   0.058  0.00  0.00    +0.052 C 
ATOM      3  C   UNL     1      -0.881  -0.690  -0.181  0.00  0.00    +0.061 C 
ATOM      4  C   UNL     1      -1.087  -2.192  -0.267  0.00  0.00    +0.164 C 
ATOM      5  N   UNL     1       0.111  -3.019  -0.083  0.00  0.00    -0.208 N 
ATOM      6  C   UNL     1       1.315  -2.400   0.150  0.00  0.00    +0.237 C 
ATOM      7  N   UNL     1       1.407  -1.083   0.204  0.00  0.00    -0.218 NA
ATOM      8  N   UNL     1       2.238  -3.373   0.280  0.00  0.00    -0.201 NA
ATOM      9  C   UNL     1       1.681  -4.548   0.143  0.00  0.00    +0.115 C 
ATOM     10  N   UNL     1       0.356  -4.394  -0.085  0.00  0.00    -0.248 N 
ATOM     11  H   UNL     1      -0.295  -5.099  -0.223  0.00  0.00    +0.171 HD
ENDROOT
BRANCH   4  12
ATOM     12  C   UNL     1      -1.669  -2.510  -1.620  0.00  0.00    -0.021 A 
ATOM     13  C   UNL     1      -0.881  -2.397  -2.752  0.00  0.00    +0.007 A 
ATOM     14  C   UNL     1      -1.407  -2.686  -3.994  0.00  0.00    +0.019 A 
ATOM     15  C   UNL     1      -2.738  -3.095  -4.107  0.00  0.00    +0.052 A 
ATOM     16  C   UNL     1      -3.527  -3.208  -2.961  0.00  0.00    +0.019 A 
ATOM     17  C   UNL     1      -2.986  -2.920  -1.725  0.00  0.00    +0.007 A 
BRANCH  15  18
ATOM     18  C   UNL     1      -3.291  -3.396  -5.394  0.00  0.00    +0.099 C 
ATOM     19  N   UNL     1      -3.729  -3.636  -6.414  0.00  0.00    -0.191 NA
ENDBRANCH  15  18
ENDBRANCH   4  12
BRANCH   3  20
ATOM     20  C   UNL     1      -1.954   0.208  -0.340  0.00  0.00    +0.241 C 
ATOM     21  O   UNL     1      -1.743   1.407  -0.381  0.00  0.00    -0.271 OA
ATOM     22  N   UNL     1      -3.213  -0.259  -0.447  0.00  0.00    -0.325 N 
ATOM     23  H   UNL     1      -3.390  -1.206  -0.338  0.00  0.00    +0.145 HD
ATOM     24  H   UNL     1      -3.943   0.352  -0.633  0.00  0.00    +0.145 HD
ENDBRANCH   3  20
BRANCH   9  25
ATOM     25  C   UNL     1       2.402  -5.868   0.226  0.00  0.00    +0.075 C 
BRANCH  25  26
ATOM     26  C   UNL     1       3.888  -5.621   0.496  0.00  0.00    +0.035 C 
BRANCH  26  27
ATOM     27  C   UNL     1       4.621  -6.962   0.580  0.00  0.00    +0.156 C 
BRANCH  27  28
ATOM     28  O   UNL     1       6.008  -6.731   0.833  0.00  0.00    -0.395 OA
ATOM     29  H   UNL     1       6.536  -7.539   0.898  0.00  0.00    +0.209 HD
ENDBRANCH  27  28
ENDBRANCH  26  27
ENDBRANCH  25  26
ENDBRANCH   9  25
TORSDOF 7
