REMARK  Name = ZINC39675294
REMARK  10 active torsions:
REMARK  status: ('A' for Active; 'I' for Inactive)
REMARK    1  A    between atoms: C_1  and  C_2
REMARK    2  A    between atoms: C_2  and  C_4
REMARK    3  A    between atoms: C_2  and  N_14
REMARK    4  A    between atoms: C_4  and  C_5
REMARK    5  A    between atoms: C_5  and  C_6
REMARK    6  A    between atoms: C_9  and  O_12
REMARK    7  A    between atoms: O_12  and  C_13
REMARK    8  A    between atoms: C_15  and  C_17
REMARK    9  A    between atoms: C_28  and  C_30
REMARK   10  A    between atoms: C_30  and  C_31
REMARK                            x       y       z     vdW  Elec       q    Type
REMARK                         _______ _______ _______ _____ _____    ______ ____
ROOT
ATOM      1  C   UNL     1       2.736  -1.073  -2.455  0.00  0.00    +0.100 C 
ATOM      2  C   UNL     1       2.409  -2.561  -2.711  0.00  0.00    +0.121 C 
ATOM      3  N   UNL     1       3.675  -3.140  -3.221  0.00  0.00    -0.300 N 
ATOM      4  C   UNL     1       4.731  -2.493  -2.407  0.00  0.00    +0.115 C 
ATOM      5  C   UNL     1       4.261  -1.032  -2.254  0.00  0.00    -0.004 C 
ATOM      6  C   UNL     1       4.597  -0.513  -0.860  0.00  0.00    -0.010 C 
ATOM      7  C   UNL     1       6.118  -0.426  -0.705  0.00  0.00    -0.082 C 
ATOM      8  N   UNL     1       6.665   0.472  -1.728  0.00  0.00    +0.379 N 
ATOM      9  C   UNL     1       6.419  -0.082  -3.065  0.00  0.00    -0.082 C 
ATOM     10  C   UNL     1       4.910  -0.154  -3.320  0.00  0.00    -0.010 C 
ATOM     11  C   UNL     1       3.830  -4.049  -4.204  0.00  0.00    +0.220 C 
ATOM     12  O   UNL     1       4.941  -4.428  -4.509  0.00  0.00    -0.275 OA
ATOM     13  H   UNL     1       6.221   1.375  -1.653  0.00  0.00    -0.086 HD
ATOM     14  H   UNL     1       7.659   0.576  -1.587  0.00  0.00    -0.086 HD
ENDROOT
BRANCH   1  16
ATOM     15  N   UNL     1       1.682   0.710  -1.103  0.00  0.00    -0.312 N 
ATOM     16  C   UNL     1       2.031  -0.587  -1.215  0.00  0.00    +0.218 C 
ATOM     17  O   UNL     1       1.778  -1.363  -0.318  0.00  0.00    -0.275 OA
ATOM     18  H   UNL     1       1.885   1.331  -1.820  0.00  0.00    +0.149 HD
BRANCH  15  20
ATOM     19  C   UNL     1       2.030   1.520   1.179  0.00  0.00    +0.028 C 
ATOM     20  C   UNL     1       0.996   1.182   0.102  0.00  0.00    +0.070 C 
BRANCH  20  21
ATOM     21  C   UNL     1       0.181   2.433  -0.232  0.00  0.00    +0.026 C 
BRANCH  21  22
ATOM     22  C   UNL     1      -0.933   2.069  -1.215  0.00  0.00    +0.037 C 
BRANCH  22  23
ATOM     23  C   UNL     1      -1.736   3.301  -1.544  0.00  0.00    -0.047 A 
ATOM     24  C   UNL     1      -2.834   3.636  -0.773  0.00  0.00    +0.007 A 
ATOM     25  C   UNL     1      -3.571   4.765  -1.073  0.00  0.00    +0.046 A 
ATOM     26  C   UNL     1      -3.209   5.563  -2.148  0.00  0.00    +0.120 A 
ATOM     27  C   UNL     1      -2.107   5.225  -2.920  0.00  0.00    +0.046 A 
ATOM     28  C   UNL     1      -1.370   4.098  -2.612  0.00  0.00    +0.007 A 
BRANCH  26  29
ATOM     29  O   UNL     1      -3.934   6.674  -2.445  0.00  0.00    -0.495 OA
ATOM     30  C   UNL     1      -3.503   7.448  -3.566  0.00  0.00    +0.277 C 
ENDBRANCH  26  29
ENDBRANCH  22  23
ENDBRANCH  21  22
ENDBRANCH  20  21
ENDBRANCH  15  20
ENDBRANCH   1  16
BRANCH  11  31
ATOM     31  C   UNL     1       2.624  -4.595  -4.923  0.00  0.00    +0.131 C 
BRANCH  31  32
ATOM     32  C   UNL     1       3.068  -5.587  -5.968  0.00  0.00    -0.039 A 
ATOM     33  C   UNL     1       3.357  -5.157  -7.250  0.00  0.00    +0.005 A 
ATOM     34  C   UNL     1       3.764  -6.066  -8.208  0.00  0.00    +0.020 A 
ATOM     35  C   UNL     1       3.882  -7.406  -7.884  0.00  0.00    +0.041 A 
ATOM     36  C   UNL     1       3.593  -7.835  -6.601  0.00  0.00    +0.020 A 
ATOM     37  C   UNL     1       3.191  -6.924  -5.642  0.00  0.00    +0.005 A 
ATOM     38 CL   UNL     1       4.393  -8.549  -9.087  0.00  0.00    -0.084 Cl
ENDBRANCH  31  32
ENDBRANCH  11  31
TORSDOF 8
