REMARK  Name = ZINC43539322
REMARK  5 active torsions:
REMARK  status: ('A' for Active; 'I' for Inactive)
REMARK    1  A    between atoms: C_1  and  C_2
REMARK    2  A    between atoms: C_2  and  C_3
REMARK    3  A    between atoms: C_3  and  C_5
REMARK    4  A    between atoms: C_3  and  N_8
REMARK    5  A    between atoms: C_5  and  N_7
REMARK                            x       y       z     vdW  Elec       q    Type
REMARK                         _______ _______ _______ _____ _____    ______ ____
ROOT
ATOM      1  C   UNL     1       0.721  -0.470  -1.379  0.00  0.00    +0.108 C 
ENDROOT
BRANCH   1   2
ATOM      2  N   UNL     1      -0.092  -0.164  -2.564  0.00  0.00    -0.289 NA
ATOM      3  C   UNL     1      -1.381  -0.870  -2.515  0.00  0.00    +0.113 C 
ATOM      4  C   UNL     1      -2.218  -0.477  -3.735  0.00  0.00    +0.175 C 
ATOM      5  O   UNL     1      -1.484  -0.772  -4.926  0.00  0.00    -0.377 OA
ATOM      6  C   UNL     1      -0.224  -0.101  -5.007  0.00  0.00    +0.175 C 
ATOM      7  C   UNL     1       0.634  -0.489  -3.800  0.00  0.00    +0.113 C 
ENDBRANCH   1   2
BRANCH   1   9
ATOM      8  C   UNL     1       0.523  -2.936  -1.729  0.00  0.00    +0.006 C 
ATOM      9  C   UNL     1       1.501  -1.764  -1.617  0.00  0.00    +0.022 C 
ENDBRANCH   1   9
BRANCH   1  10
ATOM     10  C   UNL     1       1.687   0.660  -1.128  0.00  0.00    +0.064 C 
ATOM     11  S   UNL     1       1.741   1.903  -2.131  0.00  0.00    -0.039 S 
BRANCH  10  12
ATOM     12  N   UNL     1       2.504   0.621  -0.057  0.00  0.00    -0.354 N 
ATOM     13  H   UNL     1       2.471  -0.133   0.551  0.00  0.00    +0.143 HD
ATOM     14  H   UNL     1       3.126   1.348   0.105  0.00  0.00    +0.143 HD
ENDBRANCH  10  12
ENDBRANCH   1  10
TORSDOF 4
