REMARK  Name = ZINC67456920
REMARK  6 active torsions:
REMARK  status: ('A' for Active; 'I' for Inactive)
REMARK    1  A    between atoms: C_6  and  C_11
REMARK    2  A    between atoms: C_11  and  C_13
REMARK    3  A    between atoms: C_11  and  O_30
REMARK    4  A    between atoms: C_13  and  N_14
REMARK    5  A    between atoms: N_17  and  C_18
REMARK    6  A    between atoms: C_18  and  C_19
REMARK                            x       y       z     vdW  Elec       q    Type
REMARK                         _______ _______ _______ _____ _____    ______ ____
ROOT
ATOM      1  N   UNL     1       6.686  -3.771   1.361  0.00  0.00    -0.297 N 
ATOM      2  C   UNL     1       7.200  -4.259   2.507  0.00  0.00    +0.300 C 
ATOM      3  O   UNL     1       6.555  -4.203   3.536  0.00  0.00    -0.253 OA
ATOM      4  N   UNL     1       8.431  -4.809   2.513  0.00  0.00    -0.295 N 
ATOM      5  H   UNL     1       7.201  -3.815   0.540  0.00  0.00    +0.150 HD
ATOM      6  H   UNL     1       8.946  -4.854   1.692  0.00  0.00    +0.151 HD
ENDROOT
BRANCH   1   7
ATOM      7  C   UNL     1       5.349  -3.172   1.355  0.00  0.00    +0.141 C 
BRANCH   7   8
ATOM      8  C   UNL     1       5.008  -2.700  -0.060  0.00  0.00    +0.162 C 
BRANCH   8  14
ATOM      9  C   UNL     1      -0.016   1.357   0.009  0.00  0.00    +0.001 A 
ATOM     10  C   UNL     1       1.169   2.091   0.002  0.00  0.00    +0.001 A 
ATOM     11  C   UNL     1       2.378   1.468  -0.013  0.00  0.00    +0.008 A 
ATOM     12  C   UNL     1       2.438   0.063  -0.021  0.00  0.00    -0.018 A 
ATOM     13  C   UNL     1       3.668  -0.615  -0.036  0.00  0.00    +0.014 A 
ATOM     14  C   UNL     1       3.687  -1.976  -0.043  0.00  0.00    -0.017 A 
ATOM     15  C   UNL     1       2.502  -2.710  -0.036  0.00  0.00    +0.007 A 
ATOM     16  C   UNL     1       1.292  -2.087  -0.021  0.00  0.00    +0.009 A 
ATOM     17  C   UNL     1       1.233  -0.683  -0.013  0.00  0.00    -0.018 A 
ATOM     18  C   UNL     1       0.002  -0.004   0.002  0.00  0.00    +0.008 A 
ENDBRANCH   8  14
BRANCH   8  19
ATOM     19  O   UNL     1       4.921  -3.830  -0.931  0.00  0.00    -0.386 OA
ATOM     20  H   UNL     1       4.246  -4.473  -0.674  0.00  0.00    +0.210 HD
ENDBRANCH   8  19
ENDBRANCH   7   8
ENDBRANCH   1   7
BRANCH   4  21
ATOM     21  C   UNL     1       8.990  -5.340   3.758  0.00  0.00    +0.142 C 
BRANCH  21  22
ATOM     22  C   UNL     1      10.366  -5.895   3.495  0.00  0.00    -0.012 A 
ATOM     23  C   UNL     1      10.528  -7.223   3.125  0.00  0.00    +0.010 A 
ATOM     24  C   UNL     1      11.810  -7.692   2.893  0.00  0.00    +0.047 A 
ATOM     25  C   UNL     1      12.884  -6.822   3.037  0.00  0.00    +0.139 A 
ATOM     26  N   UNL     1      12.689  -5.563   3.391  0.00  0.00    -0.237 NA
ATOM     27  C   UNL     1      11.479  -5.086   3.614  0.00  0.00    +0.118 A 
ATOM     28  N   UNL     1      14.184  -7.283   2.805  0.00  0.00    -0.290 N 
ATOM     29  C   UNL     1      15.345  -6.581   3.003  0.00  0.00    +0.114 A 
ATOM     30  C   UNL     1      16.358  -7.398   2.658  0.00  0.00    +0.130 A 
ATOM     31  N   UNL     1      15.836  -8.568   2.259  0.00  0.00    -0.244 NA
ATOM     32  C   UNL     1      14.535  -8.514   2.348  0.00  0.00    +0.205 A 
ENDBRANCH  21  22
ENDBRANCH   4  21
TORSDOF 6
