REMARK  Name = ZINC08020403
REMARK  5 active torsions:
REMARK  status: ('A' for Active; 'I' for Inactive)
REMARK    1  A    between atoms: C_1  and  C_2
REMARK    2  A    between atoms: C_2  and  O_3
REMARK    3  A    between atoms: O_3  and  C_4
REMARK    4  A    between atoms: C_4  and  C_6
REMARK    5  A    between atoms: C_8  and  C_22
REMARK                            x       y       z     vdW  Elec       q    Type
REMARK                         _______ _______ _______ _____ _____    ______ ____
ROOT
ATOM      1  C   UNL     1      -0.013   1.086   0.008  0.00  0.00    +0.195 C 
ATOM      2  C   UNL     1      -0.726   1.578   1.269  0.00  0.00    +0.080 C 
ATOM      3  C   UNL     1      -1.010   3.050   1.142  0.00  0.00    +0.066 A 
ATOM      4  C   UNL     1      -0.984   3.881   2.265  0.00  0.00    +0.258 A 
ATOM      5  O   UNL     1      -0.732   3.427   3.370  0.00  0.00    -0.267 OA
ATOM      6  N   UNL     1      -1.244   5.196   2.103  0.00  0.00    -0.295 N 
ATOM      7  H   UNL     1      -1.230   5.809   2.893  0.00  0.00    +0.172 HD
ATOM      8  C   UNL     1      -1.525   5.688   0.866  0.00  0.00    +0.195 A 
ATOM      9  N   UNL     1      -1.551   4.909  -0.195  0.00  0.00    -0.201 NA
ATOM     10  C   UNL     1      -1.300   3.598  -0.096  0.00  0.00    +0.137 A 
ATOM     11  N   UNL     1      -1.330   2.791  -1.220  0.00  0.00    -0.269 N 
ATOM     12  C   UNL     1      -0.738   1.583  -1.214  0.00  0.00    +0.233 C 
ATOM     13  O   UNL     1      -0.790   0.886  -2.204  0.00  0.00    -0.275 OA
ATOM     14  N   UNL     1      -1.787   7.024   0.720  0.00  0.00    -0.329 N 
ATOM     15  H   UNL     1      -1.782   3.100  -2.021  0.00  0.00    +0.156 HD
ATOM     16  H   UNL     1      -1.988   7.386  -0.157  0.00  0.00    +0.145 HD
ATOM     17  H   UNL     1      -1.771   7.608   1.494  0.00  0.00    +0.145 HD
ENDROOT
BRANCH   2  18
ATOM     18  C   UNL     1      -2.022   0.828   1.438  0.00  0.00    -0.038 A 
ATOM     19  C   UNL     1      -2.995   0.901   0.459  0.00  0.00    +0.007 A 
ATOM     20  C   UNL     1      -4.182   0.209   0.610  0.00  0.00    +0.038 A 
ATOM     21  C   UNL     1      -4.401  -0.549   1.748  0.00  0.00    +0.123 A 
ATOM     22  C   UNL     1      -3.428  -0.617   2.731  0.00  0.00    +0.038 A 
ATOM     23  C   UNL     1      -2.239   0.071   2.575  0.00  0.00    +0.007 A 
ATOM     24  F   UNL     1      -5.563  -1.220   1.900  0.00  0.00    -0.205 F 
ENDBRANCH   2  18
BRANCH   1  25
ATOM     25  C   UNL     1       1.402   1.606  -0.003  0.00  0.00    +0.320 C 
ATOM     26  O   UNL     1       1.797   2.301   0.903  0.00  0.00    -0.250 OA
BRANCH  25  27
ATOM     27  O   UNL     1       2.223   1.298  -1.019  0.00  0.00    -0.464 OA
BRANCH  27  29
ATOM     28  C   UNL     1       4.352   1.379  -2.197  0.00  0.00    +0.048 C 
ATOM     29  C   UNL     1       3.571   1.834  -0.963  0.00  0.00    +0.229 C 
ENDBRANCH  27  29
ENDBRANCH  25  27
ENDBRANCH   1  25
TORSDOF 4
