REMARK  Name = ZINC04264444
REMARK  7 active torsions:
REMARK  status: ('A' for Active; 'I' for Inactive)
REMARK    1  A    between atoms: C_1  and  C_2
REMARK    2  A    between atoms: C_2  and  O_3
REMARK    3  A    between atoms: O_3  and  C_4
REMARK    4  A    between atoms: C_4  and  C_6
REMARK    5  A    between atoms: C_8  and  C_20
REMARK    6  A    between atoms: C_14  and  C_15
REMARK    7  A    between atoms: C_14  and  O_19
REMARK                            x       y       z     vdW  Elec       q    Type
REMARK                         _______ _______ _______ _____ _____    ______ ____
ROOT
ATOM      1  C   UNL     1       0.036  -0.874  -1.071  0.00  0.00    +0.181 C 
ATOM      2  C   UNL     1       0.686  -2.177  -1.550  0.00  0.00    +0.123 C 
ATOM      3  N   UNL     1      -0.362  -3.140  -1.891  0.00  0.00    -0.292 N 
ATOM      4  C   UNL     1      -1.556  -3.116  -1.280  0.00  0.00    +0.302 C 
ATOM      5  O   UNL     1      -2.389  -3.945  -1.594  0.00  0.00    -0.253 OA
ATOM      6  N   UNL     1      -1.868  -2.215  -0.336  0.00  0.00    -0.264 N 
ATOM      7  C   UNL     1      -0.906  -1.199   0.093  0.00  0.00    +0.246 C 
ATOM      8  H   UNL     1      -0.190  -3.808  -2.573  0.00  0.00    +0.151 HD
ATOM      9  H   UNL     1      -2.749  -2.237   0.070  0.00  0.00    +0.153 HD
ENDROOT
BRANCH   2  10
ATOM     10  C   UNL     1       1.551  -2.741  -0.453  0.00  0.00    -0.026 A 
ATOM     11  C   UNL     1       2.846  -2.287  -0.291  0.00  0.00    +0.005 A 
ATOM     12  C   UNL     1       3.638  -2.801   0.719  0.00  0.00    +0.000 A 
ATOM     13  C   UNL     1       3.138  -3.778   1.560  0.00  0.00    +0.000 A 
ATOM     14  C   UNL     1       1.845  -4.237   1.394  0.00  0.00    +0.000 A 
ATOM     15  C   UNL     1       1.051  -3.718   0.387  0.00  0.00    +0.005 A 
ENDBRANCH   2  10
BRANCH   7  16
ATOM     16  C   UNL     1      -1.654   0.068   0.514  0.00  0.00    +0.436 C 
ATOM     17  F   UNL     1      -0.733   1.087   0.777  0.00  0.00    -0.166 F 
ATOM     18  F   UNL     1      -2.510   0.468  -0.518  0.00  0.00    -0.166 F 
ATOM     19  F   UNL     1      -2.402  -0.194   1.666  0.00  0.00    -0.166 F 
ENDBRANCH   7  16
BRANCH   1  20
ATOM     20  C   UNL     1      -0.747  -0.251  -2.198  0.00  0.00    +0.317 C 
ATOM     21  O   UNL     1      -1.417  -0.945  -2.924  0.00  0.00    -0.250 OA
BRANCH  20  22
ATOM     22  O   UNL     1      -0.699   1.076  -2.394  0.00  0.00    -0.465 OA
BRANCH  22  24
ATOM     23  C   UNL     1      -1.301   3.126  -3.563  0.00  0.00    +0.048 C 
ATOM     24  C   UNL     1      -1.479   1.608  -3.498  0.00  0.00    +0.229 C 
ENDBRANCH  22  24
ENDBRANCH  20  22
ENDBRANCH   1  20
BRANCH   7  25
ATOM     25  O   UNL     1      -0.147  -1.695   1.197  0.00  0.00    -0.364 OA
ATOM     26  H   UNL     1      -0.682  -1.923   1.970  0.00  0.00    +0.212 HD
ENDBRANCH   7  25
TORSDOF 6
