REMARK  Name = ZINC11424071
REMARK  10 active torsions:
REMARK  status: ('A' for Active; 'I' for Inactive)
REMARK    1  A    between atoms: C_1  and  C_2
REMARK    2  A    between atoms: C_3  and  C_16
REMARK    3  A    between atoms: C_4  and  C_15
REMARK    4  A    between atoms: C_16  and  C_17
REMARK    5  A    between atoms: C_17  and  C_18
REMARK    6  A    between atoms: N_20  and  C_21
REMARK    7  A    between atoms: C_23  and  C_28
REMARK    8  A    between atoms: C_23  and  C_29
REMARK    9  A    between atoms: C_24  and  C_26
REMARK   10  A    between atoms: C_24  and  C_27
REMARK                            x       y       z     vdW  Elec       q    Type
REMARK                         _______ _______ _______ _____ _____    ______ ____
ROOT
ATOM      1  C   UNL     1       0.105   7.210  -2.379  0.00  0.00    +0.100 C 
ENDROOT
BRANCH   1   2
ATOM      2  C   UNL     1       0.113   5.703  -2.353  0.00  0.00    +0.214 C 
ATOM      3  O   UNL     1      -0.129   5.078  -3.364  0.00  0.00    -0.276 OA
ATOM      4  N   UNL     1       0.389   5.051  -1.207  0.00  0.00    -0.313 N 
ATOM      5  H   UNL     1       0.582   5.550  -0.398  0.00  0.00    +0.149 HD
BRANCH   4   6
ATOM      6  C   UNL     1       0.396   3.583  -1.181  0.00  0.00    +0.070 C 
ATOM      7  C   UNL     1       1.298   3.104  -0.042  0.00  0.00    +0.009 C 
ATOM      8  C   UNL     1       1.320   1.577  -0.002  0.00  0.00    -0.072 C 
ATOM      9  C   UNL     1      -1.042   1.551  -0.852  0.00  0.00    -0.072 C 
ATOM     10  C   UNL     1      -1.022   3.076  -0.918  0.00  0.00    +0.009 C 
ATOM     11  C   UNL     1      -0.944   0.975  -2.269  0.00  0.00    -0.010 C 
ATOM     12  C   UNL     1      -2.415   1.129  -0.282  0.00  0.00    -0.010 C 
ATOM     13  C   UNL     1       2.035   1.156   1.301  0.00  0.00    -0.010 C 
ATOM     14  C   UNL     1       2.151   1.041  -1.172  0.00  0.00    -0.010 C 
ATOM     15  N   UNL     1      -0.027   0.947   0.053  0.00  0.00    +0.386 N 
ATOM     16  H   UNL     1      -0.375   1.022   1.016  0.00  0.00    -0.084 HD
ATOM     17  H   UNL     1       0.074  -0.044  -0.199  0.00  0.00    -0.084 HD
ENDBRANCH   4   6
ENDBRANCH   1   2
BRANCH   1  18
ATOM     18  C   UNL     1      -0.234   7.694  -3.790  0.00  0.00    +0.048 C 
BRANCH  18  21
ATOM     19  C   UNL     1      -2.691   9.159  -3.240  0.00  0.00    +0.066 C 
ATOM     20  C   UNL     1      -1.420   9.907  -3.552  0.00  0.00    +0.045 A 
ATOM     21  C   UNL     1      -0.242   9.201  -3.816  0.00  0.00    -0.005 A 
ATOM     22  C   UNL     1       0.894   9.888  -4.101  0.00  0.00    +0.047 A 
ATOM     23  N   UNL     1       0.861  11.251  -4.119  0.00  0.00    -0.217 N 
ATOM     24  C   UNL     1      -0.309  11.903  -3.851  0.00  0.00    +0.164 A 
ATOM     25  N   UNL     1      -1.420  11.222  -3.572  0.00  0.00    -0.232 NA
ATOM     26  C   UNL     1      -0.041  13.286  -3.941  0.00  0.00    +0.046 A 
ATOM     27  C   UNL     1      -0.827  14.435  -3.774  0.00  0.00    +0.014 A 
ATOM     28  C   UNL     1      -0.268  15.667  -3.932  0.00  0.00    +0.001 A 
ATOM     29  C   UNL     1       1.081  15.805  -4.258  0.00  0.00    +0.002 A 
ATOM     30  C   UNL     1       1.875  14.715  -4.427  0.00  0.00    +0.030 A 
ATOM     31  C   UNL     1       1.334  13.422  -4.272  0.00  0.00    +0.095 A 
ATOM     32  N   UNL     1       1.855  12.204  -4.375  0.00  0.00    -0.165 NA
ATOM     33  C   UNL     1       2.177   9.154  -4.396  0.00  0.00    +0.066 C 
ENDBRANCH  18  21
ENDBRANCH   1  18
TORSDOF 4
