REMARK  Name = ZINC61320757
REMARK  5 active torsions:
REMARK  status: ('A' for Active; 'I' for Inactive)
REMARK    1  A    between atoms: C_1  and  C_2
REMARK    2  A    between atoms: C_5  and  C_8
REMARK    3  A    between atoms: C_8  and  N_9
REMARK    4  A    between atoms: N_9  and  C_10
REMARK    5  A    between atoms: C_15  and  N_16
REMARK                            x       y       z     vdW  Elec       q    Type
REMARK                         _______ _______ _______ _____ _____    ______ ____
ROOT
ATOM      1  C   UNL     1      -1.547  -6.072  -0.220  0.00  0.00    +0.049 A 
ATOM      2  C   UNL     1      -0.485  -6.960  -0.132  0.00  0.00    +0.030 A 
ATOM      3  C   UNL     1      -0.718  -8.322  -0.161  0.00  0.00    -0.024 A 
ATOM      4  C   UNL     1      -2.014  -8.806  -0.277  0.00  0.00    +0.038 A 
ATOM      5  C   UNL     1      -3.081  -7.922  -0.364  0.00  0.00    +0.048 A 
ATOM      6  C   UNL     1      -2.851  -6.555  -0.330  0.00  0.00    +0.047 A 
ATOM      7  N   UNL     1      -2.244 -10.188  -0.306  0.00  0.00    -0.285 N 
ATOM      8  C   UNL     1      -1.307 -11.044   0.141  0.00  0.00    +0.218 C 
ATOM      9  O   UNL     1      -1.516 -12.238   0.096  0.00  0.00    -0.275 OA
ATOM     10  C   UNL     1      -0.003 -10.537   0.696  0.00  0.00    +0.101 C 
ATOM     11  C   UNL     1       0.436  -9.287  -0.067  0.00  0.00    +0.046 C 
ATOM     12  H   UNL     1      -3.084 -10.529  -0.650  0.00  0.00    +0.155 HD
ENDROOT
BRANCH   6  13
ATOM     13  N   UNL     1      -3.925  -5.661  -0.412  0.00  0.00    -0.356 N 
ATOM     14  H   UNL     1      -3.763  -4.705  -0.392  0.00  0.00    +0.142 HD
ATOM     15  H   UNL     1      -4.831  -5.998  -0.489  0.00  0.00    +0.142 HD
ENDBRANCH   6  13
BRANCH   1  16
ATOM     16  N   UNL     1      -1.310  -4.691  -0.191  0.00  0.00    -0.337 N 
ATOM     17  H   UNL     1      -2.054  -4.070  -0.248  0.00  0.00    +0.147 HD
BRANCH  16  18
ATOM     18  C   UNL     1       0.059  -4.184  -0.075  0.00  0.00    +0.158 C 
BRANCH  18  23
ATOM     19  C   UNL     1      -0.018   1.503   0.010  0.00  0.00    +0.067 C 
ATOM     20  C   UNL     1       0.002  -0.004   0.002  0.00  0.00    +0.056 A 
ATOM     21  C   UNL     1       0.006  -0.689  -1.200  0.00  0.00    +0.134 A 
ATOM     22  N   UNL     1       0.024  -2.010  -1.207  0.00  0.00    -0.255 NA
ATOM     23  C   UNL     1       0.039  -2.677  -0.067  0.00  0.00    +0.076 A 
ATOM     24  C   UNL     1       0.035  -1.992   1.135  0.00  0.00    +0.136 A 
ATOM     25  N   UNL     1       0.022  -0.671   1.143  0.00  0.00    -0.257 NA
ENDBRANCH  18  23
ENDBRANCH  16  18
ENDBRANCH   1  16
TORSDOF 4
