REMARK  Name = ZINC21251951
REMARK  8 active torsions:
REMARK  status: ('A' for Active; 'I' for Inactive)
REMARK    1  A    between atoms: C_1  and  O_2
REMARK    2  A    between atoms: O_2  and  C_3
REMARK    3  A    between atoms: C_5  and  C_13
REMARK    4  A    between atoms: C_7  and  O_11
REMARK    5  A    between atoms: C_8  and  O_9
REMARK    6  A    between atoms: O_9  and  C_10
REMARK    7  A    between atoms: O_11  and  C_12
REMARK    8  A    between atoms: C_18  and  C_28
REMARK                            x       y       z     vdW  Elec       q    Type
REMARK                         _______ _______ _______ _____ _____    ______ ____
ROOT
ATOM      1  C   UNL     1       0.002  -0.004   0.002  0.00  0.00    +0.032 C 
ATOM      2  C   UNL     1      -0.739  -0.525  -1.228  0.00  0.00    +0.059 C 
ATOM      3  C   UNL     1      -0.730  -2.045  -1.231  0.00  0.00    +0.017 C 
ATOM      4  C   UNL     1      -0.764  -2.727  -0.074  0.00  0.00    +0.039 C 
ATOM      5  C   UNL     1      -0.794  -4.231   0.068  0.00  0.00    +0.172 C 
ATOM      6  N   UNL     1      -0.518  -4.954  -1.156  0.00  0.00    -0.329 N 
ATOM      7  C   UNL     1      -1.377  -4.871  -2.251  0.00  0.00    +0.049 A 
ATOM      8  C   UNL     1      -2.124  -5.961  -2.667  0.00  0.00    +0.025 A 
ATOM      9  C   UNL     1      -3.044  -5.804  -3.690  0.00  0.00    +0.002 A 
ATOM     10  C   UNL     1      -3.216  -4.572  -4.294  0.00  0.00    +0.002 A 
ATOM     11  C   UNL     1      -2.455  -3.486  -3.895  0.00  0.00    +0.025 A 
ATOM     12  C   UNL     1      -1.524  -3.646  -2.884  0.00  0.00    +0.052 A 
ATOM     13  N   UNL     1      -0.697  -2.609  -2.465  0.00  0.00    -0.316 N 
ATOM     14  C   UNL     1      -0.771  -2.036   1.160  0.00  0.00    +0.163 C 
ATOM     15  O   UNL     1      -0.822  -2.679   2.191  0.00  0.00    -0.292 OA
ATOM     16  C   UNL     1      -0.718  -0.540   1.245  0.00  0.00    +0.088 C 
ATOM     17  H   UNL     1       0.382  -5.581  -1.233  0.00  0.00    +0.147 HD
ATOM     18  H   UNL     1       0.020  -2.247  -3.216  0.00  0.00    +0.152 HD
ENDROOT
BRANCH   1  21
ATOM     19  C   UNL     1       1.156   3.595   0.010  0.00  0.00    +0.165 A 
ATOM     20  C   UNL     1       1.170   2.208   0.003  0.00  0.00    +0.053 A 
ATOM     21  C   UNL     1      -0.018   1.503   0.010  0.00  0.00    -0.036 A 
ATOM     22  C   UNL     1      -1.226   2.176   0.020  0.00  0.00    +0.053 A 
ATOM     23  C   UNL     1      -1.249   3.562   0.033  0.00  0.00    +0.165 A 
ATOM     24  C   UNL     1      -0.056   4.275   0.025  0.00  0.00    +0.204 A 
BRANCH  19  26
ATOM     25  C   UNL     1       3.533   3.523  -0.013  0.00  0.00    +0.277 C 
ATOM     26  O   UNL     1       2.326   4.288   0.002  0.00  0.00    -0.491 OA
ENDBRANCH  19  26
BRANCH  24  27
ATOM     27  O   UNL     1      -0.074   5.636   0.033  0.00  0.00    -0.488 OA
ATOM     28  C   UNL     1      -0.095   6.292  -1.237  0.00  0.00    +0.277 C 
ENDBRANCH  24  27
BRANCH  23  29
ATOM     29  O   UNL     1      -2.437   4.223   0.048  0.00  0.00    -0.491 OA
ATOM     30  C   UNL     1      -3.623   3.426   0.055  0.00  0.00    +0.277 C 
ENDBRANCH  23  29
ENDBRANCH   1  21
BRANCH   5  31
ATOM     31  C   UNL     1      -2.158  -4.636   0.565  0.00  0.00    +0.130 A 
ATOM     32  C   UNL     1      -2.474  -4.941   1.836  0.00  0.00    +0.047 A 
ATOM     33  C   UNL     1      -3.850  -5.262   1.851  0.00  0.00    +0.041 A 
ATOM     34  C   UNL     1      -4.294  -5.134   0.588  0.00  0.00    +0.195 A 
ATOM     35  O   UNL     1      -3.266  -4.749  -0.186  0.00  0.00    -0.466 OA
ENDBRANCH   5  31
TORSDOF 5
