REMARK  Name = ZINC00798498
REMARK  5 active torsions:
REMARK  status: ('A' for Active; 'I' for Inactive)
REMARK    1  A    between atoms: C_4  and  N_16
REMARK    2  A    between atoms: C_5  and  C_7
REMARK    3  A    between atoms: N_9  and  C_10
REMARK    4  A    between atoms: C_10  and  C_11
REMARK    5  A    between atoms: C_17  and  C_19
REMARK                            x       y       z     vdW  Elec       q    Type
REMARK                         _______ _______ _______ _____ _____    ______ ____
ROOT
ATOM      1  C   UNL     1      -4.256   0.654   5.409  0.00  0.00    +0.001 A 
ATOM      2  C   UNL     1      -5.577   0.324   5.666  0.00  0.00    +0.002 A 
ATOM      3  C   UNL     1      -6.468   0.149   4.627  0.00  0.00    +0.024 A 
ATOM      4  C   UNL     1      -6.045   0.309   3.314  0.00  0.00    +0.046 A 
ATOM      5  C   UNL     1      -4.708   0.638   3.050  0.00  0.00    +0.058 A 
ATOM      6  C   UNL     1      -3.817   0.812   4.112  0.00  0.00    +0.015 A 
ENDROOT
BRANCH   5   7
ATOM      7  C   UNL     1      -4.245   0.805   1.659  0.00  0.00    +0.246 C 
ATOM      8  O   UNL     1      -4.998   0.565   0.735  0.00  0.00    -0.270 OA
ATOM      9  N   UNL     1      -2.988   1.224   1.413  0.00  0.00    -0.304 N 
ATOM     10  H   UNL     1      -2.387   1.415   2.150  0.00  0.00    +0.149 HD
BRANCH   9  11
ATOM     11  C   UNL     1      -2.529   1.390   0.032  0.00  0.00    +0.179 C 
BRANCH  11  12
ATOM     12  C   UNL     1      -1.098   1.864   0.032  0.00  0.00    +0.122 A 
ATOM     13  C   UNL     1      -0.008   1.075   0.021  0.00  0.00    +0.046 A 
ATOM     14  C   UNL     1       1.117   1.932   0.020  0.00  0.00    +0.041 A 
ATOM     15  C   UNL     1       0.647   3.192   0.035  0.00  0.00    +0.195 A 
ATOM     16  O   UNL     1      -0.695   3.145   0.045  0.00  0.00    -0.466 OA
ENDBRANCH  11  12
ENDBRANCH   9  11
ENDBRANCH   5   7
BRANCH   4  17
ATOM     17  N   UNL     1      -6.945   0.139   2.264  0.00  0.00    -0.282 N 
ATOM     18  C   UNL     1      -8.232   0.510   2.412  0.00  0.00    +0.261 C 
ATOM     19  O   UNL     1      -8.586   1.079   3.423  0.00  0.00    -0.271 OA
ATOM     20  H   UNL     1      -6.644  -0.247   1.426  0.00  0.00    +0.155 HD
BRANCH  18  21
ATOM     21  C   UNL     1      -9.230   0.218   1.322  0.00  0.00    +0.296 C 
ATOM     22  C   UNL     1      -9.425  -1.299   1.191  0.00  0.00    +0.283 C 
ATOM     23  O   UNL     1     -10.387  -1.540   0.159  0.00  0.00    -0.484 OA
ATOM     24  C   UNL     1     -11.518  -0.783   0.188  0.00  0.00    +0.162 A 
ATOM     25  C   UNL     1     -12.628  -1.190  -0.537  0.00  0.00    +0.049 A 
ATOM     26  C   UNL     1     -13.783  -0.430  -0.519  0.00  0.00    +0.004 A 
ATOM     27  C   UNL     1     -13.834   0.737   0.219  0.00  0.00    +0.004 A 
ATOM     28  C   UNL     1     -12.731   1.148   0.944  0.00  0.00    +0.049 A 
ATOM     29  C   UNL     1     -11.570   0.390   0.932  0.00  0.00    +0.163 A 
ATOM     30  O   UNL     1     -10.493   0.805   1.654  0.00  0.00    -0.473 OA
ENDBRANCH  18  21
ENDBRANCH   4  17
TORSDOF 5
