REMARK  Name = ZINC20109990
REMARK  5 active torsions:
REMARK  status: ('A' for Active; 'I' for Inactive)
REMARK    1  A    between atoms: C_3  and  N_32
REMARK    2  A    between atoms: C_6  and  C_7
REMARK    3  A    between atoms: C_7  and  O_8
REMARK    4  A    between atoms: O_8  and  C_9
REMARK    5  A    between atoms: C_12  and  C_16
REMARK                            x       y       z     vdW  Elec       q    Type
REMARK                         _______ _______ _______ _____ _____    ______ ____
ROOT
ATOM      1  C   UNL     1       2.382   0.042  -5.180  0.00  0.00    +0.139 A 
ATOM      2  C   UNL     1       3.432  -0.510  -4.461  0.00  0.00    +0.047 A 
ATOM      3  C   UNL     1       3.406  -0.494  -3.080  0.00  0.00    +0.008 A 
ATOM      4  C   UNL     1       2.335   0.072  -2.413  0.00  0.00    -0.034 A 
ATOM      5  C   UNL     1       1.284   0.618  -3.127  0.00  0.00    +0.028 A 
ATOM      6  C   UNL     1       1.308   0.609  -4.509  0.00  0.00    +0.083 A 
ATOM      7 CL   UNL     1      -0.008   1.302  -5.405  0.00  0.00    -0.080 Cl
ENDROOT
BRANCH   4   8
ATOM      8  C   UNL     1       2.309   0.087  -0.907  0.00  0.00    +0.089 C 
ATOM      9  C   UNL     1       1.097  -0.666  -0.427  0.00  0.00    +0.024 C 
ATOM     10  C   UNL     1       0.002  -0.004   0.002  0.00  0.00    +0.015 C 
ATOM     11  C   UNL     1      -1.219  -0.748   0.483  0.00  0.00    +0.051 C 
ATOM     12  C   UNL     1      -1.331  -2.082  -0.259  0.00  0.00    +0.014 C 
ATOM     13  C   UNL     1      -0.052  -2.888  -0.007  0.00  0.00    +0.080 C 
ATOM     14  C   UNL     1       1.134  -2.072  -0.443  0.00  0.00    +0.162 C 
ATOM     15  O   UNL     1       2.143  -2.638  -0.815  0.00  0.00    -0.292 OA
ATOM     16  N   UNL     1      -0.017   1.363   0.009  0.00  0.00    -0.320 N 
ATOM     17  C   UNL     1       1.147   2.082   0.002  0.00  0.00    +0.015 C 
ATOM     18  C   UNL     1       2.293   1.515  -0.429  0.00  0.00    +0.024 C 
ATOM     19  C   UNL     1       3.498   2.240  -0.447  0.00  0.00    +0.162 C 
ATOM     20  O   UNL     1       4.516   1.695  -0.826  0.00  0.00    -0.292 OA
ATOM     21  C   UNL     1       3.550   3.677  -0.006  0.00  0.00    +0.080 C 
ATOM     22  C   UNL     1       2.183   4.324  -0.254  0.00  0.00    +0.014 C 
ATOM     23  C   UNL     1       1.119   3.511   0.486  0.00  0.00    +0.051 C 
ATOM     24  H   UNL     1      -0.977   1.900   0.021  0.00  0.00    +0.152 HD
ENDBRANCH   4   8
BRANCH   1  25
ATOM     25  O   UNL     1       2.406   0.028  -6.539  0.00  0.00    -0.486 OA
BRANCH  25  26
ATOM     26  C   UNL     1       3.544  -0.572  -7.162  0.00  0.00    +0.264 C 
BRANCH  26  32
ATOM     27  C   UNL     1       2.774  -1.523  -9.346  0.00  0.00    +0.009 A 
ATOM     28  C   UNL     1       2.634  -1.451 -10.719  0.00  0.00    +0.033 A 
ATOM     29  C   UNL     1       3.123  -0.357 -11.407  0.00  0.00    +0.126 A 
ATOM     30  C   UNL     1       3.748   0.668 -10.722  0.00  0.00    +0.033 A 
ATOM     31  C   UNL     1       3.885   0.598  -9.348  0.00  0.00    +0.009 A 
ATOM     32  C   UNL     1       3.395  -0.496  -8.659  0.00  0.00    -0.010 A 
BRANCH  29  33
ATOM     33  N   UNL     1       2.977  -0.282 -12.878  0.00  0.00    +0.056 N 
ATOM     34  O   UNL     1       3.408   0.683 -13.485  0.00  0.00    -0.126 OA
ATOM     35  O   UNL     1       2.426  -1.185 -13.482  0.00  0.00    -0.126 OA
ENDBRANCH  29  33
ENDBRANCH  26  32
ENDBRANCH  25  26
ENDBRANCH   1  25
TORSDOF 5
