REMARK  Name = ZINC21317786
REMARK  4 active torsions:
REMARK  status: ('A' for Active; 'I' for Inactive)
REMARK    1  A    between atoms: C_1  and  C_2
REMARK    2  A    between atoms: N_11  and  C_12
REMARK    3  A    between atoms: C_12  and  C_13
REMARK    4  A    between atoms: C_26  and  C_28
REMARK                            x       y       z     vdW  Elec       q    Type
REMARK                         _______ _______ _______ _____ _____    ______ ____
ROOT
ATOM      1  C   UNL     1       1.822  -1.518   0.607  0.00  0.00    +0.204 C 
ATOM      2  O   UNL     1       1.716  -2.045  -0.480  0.00  0.00    -0.277 OA
ATOM      3  N   UNL     1       1.014  -0.492   0.941  0.00  0.00    -0.259 N 
ATOM      4  C   UNL     1       1.125   0.125   2.194  0.00  0.00    +0.058 A 
ATOM      5  C   UNL     1       0.704  -0.525   3.342  0.00  0.00    +0.025 A 
ATOM      6  C   UNL     1       0.800   0.110   4.567  0.00  0.00    +0.002 A 
ATOM      7  C   UNL     1       1.312   1.392   4.650  0.00  0.00    +0.002 A 
ATOM      8  C   UNL     1       1.743   2.044   3.509  0.00  0.00    +0.025 A 
ATOM      9  C   UNL     1       1.661   1.411   2.281  0.00  0.00    +0.055 A 
ATOM     10  N   UNL     1       2.141   2.030   1.121  0.00  0.00    -0.284 N 
ATOM     11  C   UNL     1       1.388   2.062  -0.000  0.00  0.00    +0.219 C 
ATOM     12  O   UNL     1       1.848   2.527  -1.022  0.00  0.00    -0.275 OA
ATOM     13  C   UNL     1      -0.019   1.525   0.010  0.00  0.00    +0.128 C 
ATOM     14  C   UNL     1       0.002  -0.004   0.002  0.00  0.00    +0.194 C 
ATOM     15  H   UNL     1       3.139   2.494   1.118  0.00  0.00    +0.155 HD
ENDROOT
BRANCH  14  16
ATOM     16  C   UNL     1      -1.372  -0.533   0.417  0.00  0.00    +0.409 C 
ATOM     17  F   UNL     1      -2.340  -0.075  -0.483  0.00  0.00    -0.169 F 
ATOM     18  F   UNL     1      -1.355  -1.932   0.409  0.00  0.00    -0.169 F 
ATOM     19  F   UNL     1      -1.679  -0.078   1.703  0.00  0.00    -0.169 F 
ENDBRANCH  14  16
BRANCH   1  20
ATOM     20  C   UNL     1       2.859  -2.009   1.584  0.00  0.00    +0.020 C 
BRANCH  20  30
ATOM     21  C   UNL     1       3.535  -4.380   3.090  0.00  0.00    -0.008 C 
ATOM     22  C   UNL     1       4.432  -3.803   1.992  0.00  0.00    -0.039 C 
ATOM     23  C   UNL     1       5.199  -4.933   1.311  0.00  0.00    -0.051 A 
ATOM     24  C   UNL     1       5.778  -6.000   1.994  0.00  0.00    +0.010 A 
ATOM     25  C   UNL     1       6.439  -6.963   1.309  0.00  0.00    +0.045 A 
ATOM     26  S   UNL     1       6.273  -6.395  -0.378  0.00  0.00    -0.101 S 
ATOM     27  C   UNL     1       5.343  -4.927  -0.043  0.00  0.00    -0.010 A 
ATOM     28  C   UNL     1       4.818  -3.898  -0.992  0.00  0.00    +0.024 C 
ATOM     29  C   UNL     1       4.398  -2.671  -0.165  0.00  0.00    -0.072 C 
ATOM     30  N   UNL     1       3.605  -3.124   0.987  0.00  0.00    +0.390 N 
ATOM     31  H   UNL     1       2.881  -3.863   0.612  0.00  0.00    -0.080 HD
ENDBRANCH  20  30
ENDBRANCH   1  20
TORSDOF 3
