REMARK  Name = ZINC13575319
REMARK  7 active torsions:
REMARK  status: ('A' for Active; 'I' for Inactive)
REMARK    1  A    between atoms: C_3  and  O_30
REMARK    2  A    between atoms: C_6  and  C_7
REMARK    3  A    between atoms: C_7  and  C_8
REMARK    4  A    between atoms: C_8  and  N_9
REMARK    5  A    between atoms: C_10  and  C_12
REMARK    6  A    between atoms: C_12  and  N_13
REMARK    7  A    between atoms: C_17  and  C_18
REMARK                            x       y       z     vdW  Elec       q    Type
REMARK                         _______ _______ _______ _____ _____    ______ ____
ROOT
ATOM      1  N   UNL     1      -0.959   1.507  -5.269  0.00  0.00    -0.219 N 
ATOM      2  C   UNL     1      -1.035   0.233  -5.616  0.00  0.00    +0.261 C 
ATOM      3  O   UNL     1      -1.756  -0.549  -5.025  0.00  0.00    -0.269 OA
ATOM      4  C   UNL     1      -0.201  -0.192  -6.758  0.00  0.00    +0.080 C 
ATOM      5  C   UNL     1      -0.075  -1.417  -7.328  0.00  0.00    +0.028 C 
ATOM      6  S   UNL     1       0.599   1.350  -7.181  0.00  0.00    -0.026 S 
ATOM      7  C   UNL     1      -0.162   2.371  -5.930  0.00  0.00    +0.286 C 
ATOM      8  O   UNL     1      -0.000   3.559  -5.723  0.00  0.00    -0.262 OA
ENDROOT
BRANCH   5   9
ATOM      9  C   UNL     1       0.694  -1.573  -8.570  0.00  0.00    -0.020 A 
ATOM     10  C   UNL     1       1.142  -0.444  -9.265  0.00  0.00    +0.012 A 
ATOM     11  C   UNL     1       1.869  -0.594 -10.425  0.00  0.00    +0.050 A 
ATOM     12  C   UNL     1       2.148  -1.863 -10.917  0.00  0.00    +0.166 A 
ATOM     13  C   UNL     1       1.700  -2.994 -10.232  0.00  0.00    +0.167 A 
ATOM     14  C   UNL     1       0.976  -2.852  -9.065  0.00  0.00    +0.057 A 
ATOM     15  O   UNL     1       2.102  -4.105 -10.916  0.00  0.00    -0.453 OA
ATOM     16  C   UNL     1       2.445  -3.640 -12.235  0.00  0.00    +0.466 C 
ATOM     17  O   UNL     1       2.830  -2.269 -12.026  0.00  0.00    -0.453 OA
ENDBRANCH   5   9
BRANCH   1  18
ATOM     18  C   UNL     1      -1.762   1.991  -4.143  0.00  0.00    +0.213 C 
BRANCH  18  20
ATOM     19  N   UNL     1      -1.517   2.235  -1.694  0.00  0.00    -0.314 N 
ATOM     20  C   UNL     1      -0.975   1.851  -2.866  0.00  0.00    +0.231 C 
ATOM     21  O   UNL     1       0.148   1.391  -2.893  0.00  0.00    -0.274 OA
ATOM     22  H   UNL     1      -2.414   2.603  -1.673  0.00  0.00    +0.149 HD
BRANCH  19  23
ATOM     23  C   UNL     1      -0.751   2.099  -0.453  0.00  0.00    +0.109 C 
BRANCH  23  24
ATOM     24  C   UNL     1      -1.590   2.604   0.722  0.00  0.00    +0.054 C 
BRANCH  24  30
ATOM     25  C   UNL     1      -0.893   1.300   2.742  0.00  0.00    +0.007 A 
ATOM     26  C   UNL     1      -0.168   1.167   3.910  0.00  0.00    +0.045 A 
ATOM     27  C   UNL     1       0.644   2.205   4.343  0.00  0.00    +0.117 A 
ATOM     28  C   UNL     1       0.729   3.373   3.600  0.00  0.00    +0.045 A 
ATOM     29  C   UNL     1       0.005   3.500   2.430  0.00  0.00    +0.007 A 
ATOM     30  C   UNL     1      -0.803   2.463   2.000  0.00  0.00    -0.046 A 
BRANCH  27  31
ATOM     31  O   UNL     1       1.354   2.078   5.495  0.00  0.00    -0.507 OA
ATOM     32  H   UNL     1       0.882   2.380   6.283  0.00  0.00    +0.292 HD
ENDBRANCH  27  31
ENDBRANCH  24  30
ENDBRANCH  23  24
ENDBRANCH  19  23
ENDBRANCH  18  20
ENDBRANCH   1  18
TORSDOF 7
