REMARK  Name = ZINC43220997
REMARK  7 active torsions:
REMARK  status: ('A' for Active; 'I' for Inactive)
REMARK    1  A    between atoms: C_1  and  C_2
REMARK    2  A    between atoms: C_2  and  C_3
REMARK    3  A    between atoms: C_6  and  N_9
REMARK    4  A    between atoms: C_14  and  C_27
REMARK    5  A    between atoms: C_17  and  C_22
REMARK    6  A    between atoms: C_17  and  C_24
REMARK    7  A    between atoms: C_22  and  O_23
REMARK                            x       y       z     vdW  Elec       q    Type
REMARK                         _______ _______ _______ _____ _____    ______ ____
ROOT
ATOM      1  N   UNL     1      -5.323  -1.969   0.042  0.00  0.00    -0.210 N 
ATOM      2  C   UNL     1      -6.029  -2.228   1.191  0.00  0.00    +0.229 C 
ATOM      3  O   UNL     1      -5.751  -1.891   2.322  0.00  0.00    -0.275 OA
ATOM      4  C   UNL     1      -7.173  -2.990   0.755  0.00  0.00    +0.077 C 
ATOM      5  C   UNL     1      -8.529  -3.359   1.197  0.00  0.00    -0.027 C 
ATOM      6  N   UNL     1      -9.103  -3.990  -0.041  0.00  0.00    +0.397 N 
ATOM      7  C   UNL     1      -8.343  -3.467  -1.215  0.00  0.00    +0.071 C 
ATOM      8  C   UNL     1      -7.476  -2.332  -0.650  0.00  0.00    +0.088 C 
ATOM      9  C   UNL     1      -6.042  -2.229  -1.090  0.00  0.00    +0.229 C 
ATOM     10  O   UNL     1      -5.613  -2.355  -2.216  0.00  0.00    -0.275 OA
ATOM     11  H   UNL     1      -9.005  -4.993   0.010  0.00  0.00    -0.083 HD
ATOM     12  H   UNL     1     -10.078  -3.745  -0.129  0.00  0.00    -0.083 HD
ENDROOT
BRANCH   5  13
ATOM     13  C   UNL     1      -8.473  -4.350   2.331  0.00  0.00    -0.061 A 
ATOM     14  C   UNL     1      -8.246  -5.688   2.068  0.00  0.00    +0.003 A 
ATOM     15  C   UNL     1      -8.195  -6.598   3.107  0.00  0.00    +0.015 A 
ATOM     16  C   UNL     1      -8.371  -6.169   4.411  0.00  0.00    +0.018 A 
ATOM     17  C   UNL     1      -8.598  -4.830   4.673  0.00  0.00    +0.015 A 
ATOM     18  C   UNL     1      -8.644  -3.921   3.634  0.00  0.00    +0.003 A 
ATOM     19 BR   UNL     1      -8.301  -7.413   5.833  0.00  0.00    -0.050 Br
ENDBRANCH   5  13
BRANCH   1  23
ATOM     20  C   UNL     1      -1.412  -0.526   0.013  0.00  0.00    -0.048 A 
ATOM     21  C   UNL     1      -2.050  -0.765   1.216  0.00  0.00    +0.005 A 
ATOM     22  C   UNL     1      -3.345  -1.244   1.229  0.00  0.00    +0.024 A 
ATOM     23  C   UNL     1      -4.008  -1.483   0.032  0.00  0.00    +0.044 A 
ATOM     24  C   UNL     1      -3.365  -1.241  -1.174  0.00  0.00    +0.024 A 
ATOM     25  C   UNL     1      -2.071  -0.758  -1.181  0.00  0.00    +0.005 A 
BRANCH  20  27
ATOM     26  C   UNL     1      -0.019   1.526   0.010  0.00  0.00    +0.009 C 
ATOM     27  C   UNL     1       0.002  -0.004   0.002  0.00  0.00    +0.032 C 
ENDBRANCH  20  27
ENDBRANCH   1  23
BRANCH   7  28
ATOM     28  C   UNL     1      -9.292  -2.917  -2.249  0.00  0.00    +0.348 C 
ATOM     29  O   UNL     1     -10.495  -2.971  -2.061  0.00  0.00    -0.248 OA
ATOM     30  O   UNL     1      -8.856  -2.419  -3.272  0.00  0.00    -0.248 OA
ENDBRANCH   7  28
BRANCH   7  31
ATOM     31  C   UNL     1      -7.479  -4.574  -1.823  0.00  0.00    +0.155 C 
BRANCH  31  32
ATOM     32  O   UNL     1      -8.319  -5.635  -2.281  0.00  0.00    -0.396 OA
ATOM     33  H   UNL     1      -7.838  -6.374  -2.679  0.00  0.00    +0.209 HD
ENDBRANCH  31  32
ENDBRANCH   7  31
TORSDOF 6
