REMARK  Name = ZINC04580757
REMARK  5 active torsions:
REMARK  status: ('A' for Active; 'I' for Inactive)
REMARK    1  A    between atoms: C_1  and  C_2
REMARK    2  A    between atoms: C_2  and  C_28
REMARK    3  A    between atoms: C_7  and  C_9
REMARK    4  A    between atoms: C_14  and  O_15
REMARK    5  A    between atoms: N_18  and  C_21
REMARK                            x       y       z     vdW  Elec       q    Type
REMARK                         _______ _______ _______ _____ _____    ______ ____
ROOT
ATOM      1  C   UNL     1       2.438   0.514   0.593  0.00  0.00    +0.002 C 
ATOM      2  C   UNL     1       1.429   1.361  -0.185  0.00  0.00    +0.045 C 
ATOM      3  C   UNL     1       0.002   0.806   0.003  0.00  0.00    +0.086 C 
ATOM      4  C   UNL     1      -0.597   1.635   1.171  0.00  0.00    +0.077 C 
ATOM      5  C   UNL     1       0.525   2.613   1.578  0.00  0.00    -0.023 C 
ATOM      6  C   UNL     1      -1.726   2.397   0.515  0.00  0.00    +0.229 C 
ATOM      7  O   UNL     1      -2.466   3.175   1.078  0.00  0.00    -0.275 OA
ATOM      8  N   UNL     1      -1.782   2.079  -0.783  0.00  0.00    -0.210 N 
ATOM      9  C   UNL     1      -0.843   1.193  -1.190  0.00  0.00    +0.229 C 
ATOM     10  O   UNL     1      -0.700   0.770  -2.317  0.00  0.00    -0.275 OA
ATOM     11  N   UNL     1       1.358   2.709   0.379  0.00  0.00    +0.395 N 
ATOM     12  H   UNL     1       0.934   3.355  -0.297  0.00  0.00    -0.083 HD
ATOM     13  H   UNL     1       2.298   3.041   0.626  0.00  0.00    -0.083 HD
ENDROOT
BRANCH   8  14
ATOM     14  C   UNL     1      -2.730   2.627  -1.659  0.00  0.00    +0.044 A 
ATOM     15  C   UNL     1      -4.074   2.306  -1.518  0.00  0.00    +0.025 A 
ATOM     16  C   UNL     1      -5.006   2.852  -2.379  0.00  0.00    +0.022 A 
ATOM     17  C   UNL     1      -4.602   3.709  -3.387  0.00  0.00    +0.041 A 
ATOM     18  C   UNL     1      -3.263   4.026  -3.532  0.00  0.00    +0.022 A 
ATOM     19  C   UNL     1      -2.327   3.488  -2.671  0.00  0.00    +0.025 A 
ATOM     20 CL   UNL     1      -5.776   4.388  -4.471  0.00  0.00    -0.084 Cl
ENDBRANCH   8  14
BRANCH   5  21
ATOM     21  C   UNL     1      -0.056   3.952   1.954  0.00  0.00    -0.019 A 
ATOM     22  C   UNL     1      -0.192   4.940   0.998  0.00  0.00    +0.005 A 
ATOM     23  C   UNL     1      -0.725   6.168   1.342  0.00  0.00    +0.000 A 
ATOM     24  C   UNL     1      -1.124   6.411   2.643  0.00  0.00    +0.004 A 
ATOM     25  C   UNL     1      -0.990   5.427   3.603  0.00  0.00    +0.045 A 
ATOM     26  C   UNL     1      -0.461   4.191   3.259  0.00  0.00    +0.118 A 
BRANCH  26  27
ATOM     27  O   UNL     1      -0.333   3.219   4.200  0.00  0.00    -0.507 OA
ATOM     28  H   UNL     1       0.512   3.234   4.669  0.00  0.00    +0.292 HD
ENDBRANCH  26  27
ENDBRANCH   5  21
BRANCH   2  29
ATOM     29  C   UNL     1       1.791   1.395  -1.648  0.00  0.00    +0.346 C 
ATOM     30  O   UNL     1       2.375   0.463  -2.147  0.00  0.00    -0.248 OA
ATOM     31  O   UNL     1       1.463   2.461  -2.396  0.00  0.00    -0.248 OA
ENDBRANCH   2  29
TORSDOF 4
