REMARK  Name = ZINC40658035
REMARK  7 active torsions:
REMARK  status: ('A' for Active; 'I' for Inactive)
REMARK    1  A    between atoms: C_4  and  N_32
REMARK    2  A    between atoms: C_5  and  C_7
REMARK    3  A    between atoms: N_9  and  N_10
REMARK    4  A    between atoms: C_12  and  N_29
REMARK    5  A    between atoms: C_13  and  N_17
REMARK    6  A    between atoms: N_17  and  N_18
REMARK    7  A    between atoms: C_19  and  C_21
REMARK                            x       y       z     vdW  Elec       q    Type
REMARK                         _______ _______ _______ _____ _____    ______ ____
ROOT
ATOM      1  N   UNL     1       0.166  -4.258  -0.291  0.00  0.00    -0.246 N 
ATOM      2  C   UNL     1      -1.011  -4.978  -0.427  0.00  0.00    +0.171 A 
ATOM      3  C   UNL     1      -0.986  -6.369  -0.473  0.00  0.00    +0.208 A 
ATOM      4  C   UNL     1      -2.194  -7.045  -0.610  0.00  0.00    +0.171 A 
ATOM      5  N   UNL     1      -3.323  -6.343  -0.692  0.00  0.00    -0.217 NA
ATOM      6  C   UNL     1      -3.305  -5.026  -0.645  0.00  0.00    +0.225 A 
ATOM      7  N   UNL     1      -2.182  -4.350  -0.511  0.00  0.00    -0.217 NA
ATOM      8  H   UNL     1       1.015  -4.723  -0.231  0.00  0.00    +0.172 HD
ENDROOT
BRANCH   1  11
ATOM      9  C   UNL     1       1.272  -2.158  -0.108  0.00  0.00    +0.262 C 
ATOM     10  O   UNL     1       2.336  -2.741  -0.033  0.00  0.00    -0.269 OA
ATOM     11  N   UNL     1       0.128  -2.858  -0.241  0.00  0.00    -0.231 N 
ATOM     12  H   UNL     1      -0.721  -2.393  -0.301  0.00  0.00    +0.173 HD
BRANCH   9  17
ATOM     13  C   UNL     1       0.587   1.419  -1.025  0.00  0.00    +0.001 A 
ATOM     14  C   UNL     1       1.161   2.085   0.044  0.00  0.00    +0.002 A 
ATOM     15  C   UNL     1       1.770   1.375   1.063  0.00  0.00    +0.033 A 
ATOM     16  C   UNL     1       1.810  -0.003   1.020  0.00  0.00    +0.138 A 
ATOM     17  C   UNL     1       1.233  -0.681  -0.055  0.00  0.00    +0.068 A 
ATOM     18  C   UNL     1       0.620   0.041  -1.080  0.00  0.00    +0.015 A 
BRANCH  16  19
ATOM     19  N   UNL     1       2.462  -0.761   2.111  0.00  0.00    +0.057 N 
ATOM     20  O   UNL     1       3.064  -0.173   2.979  0.00  0.00    -0.126 OA
ATOM     21  O   UNL     1       2.395  -1.968   2.133  0.00  0.00    -0.126 OA
ENDBRANCH  16  19
ENDBRANCH   9  17
ENDBRANCH   1  11
BRANCH   3  22
ATOM     22  N   UNL     1       0.292  -7.109  -0.378  0.00  0.00    +0.063 N 
ATOM     23  O   UNL     1       0.716  -7.447   0.702  0.00  0.00    -0.126 OA
ATOM     24  O   UNL     1       0.912  -7.376  -1.381  0.00  0.00    -0.126 OA
ENDBRANCH   3  22
BRANCH   4  25
ATOM     25  N   UNL     1      -2.223  -8.431  -0.661  0.00  0.00    -0.246 N 
ATOM     26  H   UNL     1      -1.397  -8.935  -0.600  0.00  0.00    +0.172 HD
BRANCH  25  27
ATOM     27  N   UNL     1      -3.445  -9.101  -0.799  0.00  0.00    -0.231 N 
ATOM     28  C   UNL     1      -3.473 -10.448  -0.848  0.00  0.00    +0.262 C 
ATOM     29  O   UNL     1      -2.438 -11.080  -0.773  0.00  0.00    -0.269 OA
ATOM     30  H   UNL     1      -4.271  -8.596  -0.859  0.00  0.00    +0.173 HD
BRANCH  28  31
ATOM     31  C   UNL     1      -4.762 -11.155  -0.994  0.00  0.00    +0.057 A 
ATOM     32  C   UNL     1      -5.952 -10.431  -1.087  0.00  0.00    +0.016 A 
ATOM     33  C   UNL     1      -7.152 -11.096  -1.222  0.00  0.00    +0.021 A 
ATOM     34  C   UNL     1      -7.179 -12.481  -1.266  0.00  0.00    +0.042 A 
ATOM     35  C   UNL     1      -6.003 -13.206  -1.175  0.00  0.00    +0.040 A 
ATOM     36  C   UNL     1      -4.794 -12.551  -1.045  0.00  0.00    +0.054 A 
ATOM     37 CL   UNL     1      -3.319 -13.460  -0.939  0.00  0.00    -0.083 Cl
ATOM     38 CL   UNL     1      -8.694 -13.311  -1.437  0.00  0.00    -0.083 Cl
ENDBRANCH  28  31
ENDBRANCH  25  27
ENDBRANCH   4  25
TORSDOF 7
