REMARK  Name = ZINC38064781
REMARK  11 active torsions:
REMARK  status: ('A' for Active; 'I' for Inactive)
REMARK    1  A    between atoms: C_1  and  C_2
REMARK    2  A    between atoms: C_2  and  C_3
REMARK    3  A    between atoms: C_3  and  C_5
REMARK    4  A    between atoms: C_3  and  N_6
REMARK    5  A    between atoms: N_6  and  C_7
REMARK    6  A    between atoms: C_7  and  C_9
REMARK    7  A    between atoms: C_7  and  C_20
REMARK    8  A    between atoms: C_11  and  O_18
REMARK    9  A    between atoms: C_12  and  O_16
REMARK   10  A    between atoms: O_16  and  C_17
REMARK   11  A    between atoms: O_18  and  C_19
REMARK                            x       y       z     vdW  Elec       q    Type
REMARK                         _______ _______ _______ _____ _____    ______ ____
ROOT
ATOM      1  C   UNL     1      -3.373  -0.623  -1.482  0.00  0.00    +0.048 C 
ENDROOT
BRANCH   1   2
ATOM      2  C   UNL     1      -3.805  -0.185  -2.858  0.00  0.00    -0.035 A 
ATOM      3  C   UNL     1      -2.856   0.174  -3.797  0.00  0.00    +0.053 A 
ATOM      4  C   UNL     1      -3.251   0.577  -5.062  0.00  0.00    +0.162 A 
ATOM      5  C   UNL     1      -4.604   0.620  -5.385  0.00  0.00    +0.163 A 
ATOM      6  C   UNL     1      -5.551   0.259  -4.440  0.00  0.00    +0.065 A 
ATOM      7  C   UNL     1      -5.150  -0.147  -3.180  0.00  0.00    +0.024 A 
ATOM      8 BR   UNL     1      -6.442  -0.645  -1.893  0.00  0.00    -0.050 Br
BRANCH   5   9
ATOM      9  O   UNL     1      -4.997   1.015  -6.626  0.00  0.00    -0.491 OA
ATOM     10  C   UNL     1      -6.402   1.035  -6.886  0.00  0.00    +0.277 C 
ENDBRANCH   5   9
BRANCH   4  11
ATOM     11  O   UNL     1      -2.318   0.930  -5.987  0.00  0.00    -0.491 OA
ATOM     12  C   UNL     1      -0.949   0.862  -5.586  0.00  0.00    +0.277 C 
ENDBRANCH   4  11
ENDBRANCH   1   2
BRANCH   1  13
ATOM     13  C   UNL     1      -3.110  -2.107  -1.487  0.00  0.00    +0.201 C 
ATOM     14  O   UNL     1      -1.972  -2.521  -1.549  0.00  0.00    -0.277 OA
ATOM     15  N   UNL     1      -4.140  -2.974  -1.424  0.00  0.00    -0.330 N 
ATOM     16  H   UNL     1      -5.052  -2.646  -1.441  0.00  0.00    +0.145 HD
ATOM     17  H   UNL     1      -3.968  -3.927  -1.360  0.00  0.00    +0.145 HD
ENDBRANCH   1  13
BRANCH   1  18
ATOM     18  N   UNL     1      -2.147   0.091  -1.103  0.00  0.00    +0.391 N 
ATOM     19  H   UNL     1      -1.443  -0.049  -1.813  0.00  0.00    -0.084 HD
ATOM     20  H   UNL     1      -1.809  -0.265  -0.221  0.00  0.00    -0.084 HD
BRANCH  18  21
ATOM     21  C   UNL     1      -2.435   1.525  -0.975  0.00  0.00    -0.074 C 
ATOM     22  C   UNL     1      -3.399   1.750   0.192  0.00  0.00    -0.014 C 
BRANCH  21  24
ATOM     23  C   UNL     1      -0.217   2.164  -1.934  0.00  0.00    +0.002 C 
ATOM     24  C   UNL     1      -1.133   2.285  -0.714  0.00  0.00    -0.019 C 
ENDBRANCH  21  24
ENDBRANCH  18  21
ENDBRANCH   1  18
TORSDOF 7
