REMARK  Name = ZINC67626280
REMARK  11 active torsions:
REMARK  status: ('A' for Active; 'I' for Inactive)
REMARK    1  A    between atoms: C_1  and  C_2
REMARK    2  A    between atoms: N_5  and  C_8
REMARK    3  A    between atoms: C_8  and  C_9
REMARK    4  A    between atoms: C_9  and  C_11
REMARK    5  A    between atoms: C_9  and  O_27
REMARK    6  A    between atoms: C_11  and  N_12
REMARK    7  A    between atoms: N_15  and  C_16
REMARK    8  A    between atoms: C_16  and  C_18
REMARK    9  A    between atoms: C_16  and  C_19
REMARK   10  A    between atoms: C_22  and  S_25
REMARK   11  A    between atoms: S_25  and  C_26
REMARK                            x       y       z     vdW  Elec       q    Type
REMARK                         _______ _______ _______ _____ _____    ______ ____
ROOT
ATOM      1  N   UNL     1       0.630  -6.349   4.007  0.00  0.00    -0.297 N 
ATOM      2  C   UNL     1       0.786  -7.662   4.270  0.00  0.00    +0.300 C 
ATOM      3  O   UNL     1       0.440  -8.491   3.452  0.00  0.00    -0.253 OA
ATOM      4  N   UNL     1       1.328  -8.054   5.441  0.00  0.00    -0.293 N 
ATOM      5  H   UNL     1       0.906  -5.687   4.660  0.00  0.00    +0.150 HD
ATOM      6  H   UNL     1       1.605  -7.392   6.093  0.00  0.00    +0.151 HD
ENDROOT
BRANCH   4   7
ATOM      7  C   UNL     1       1.499  -9.481   5.727  0.00  0.00    +0.102 C 
ATOM      8  C   UNL     1       2.817  -9.968   5.122  0.00  0.00    +0.033 C 
BRANCH   7   9
ATOM      9  C   UNL     1       1.521  -9.694   7.218  0.00  0.00    -0.027 A 
ATOM     10  C   UNL     1       2.183  -8.795   8.034  0.00  0.00    +0.006 A 
ATOM     11  C   UNL     1       2.207  -8.988   9.401  0.00  0.00    +0.015 A 
ATOM     12  C   UNL     1       1.563 -10.088   9.957  0.00  0.00    +0.008 A 
ATOM     13  C   UNL     1       0.899 -10.989   9.134  0.00  0.00    +0.015 A 
ATOM     14  C   UNL     1       0.875 -10.787   7.769  0.00  0.00    +0.006 A 
BRANCH  12  15
ATOM     15  S   UNL     1       1.591 -10.338  11.701  0.00  0.00    -0.129 S 
ATOM     16  C   UNL     1       0.640 -11.864  11.940  0.00  0.00    +0.090 C 
ENDBRANCH  12  15
ENDBRANCH   7   9
ENDBRANCH   4   7
BRANCH   1  17
ATOM     17  C   UNL     1       0.041  -5.922   2.735  0.00  0.00    +0.135 C 
BRANCH  17  18
ATOM     18  C   UNL     1      -0.023  -4.394   2.690  0.00  0.00    +0.115 C 
BRANCH  18  19
ATOM     19  O   UNL     1       1.303  -3.862   2.691  0.00  0.00    -0.392 OA
ATOM     20  H   UNL     1       1.841  -4.147   1.940  0.00  0.00    +0.210 HD
ENDBRANCH  18  19
BRANCH  18  21
ATOM     21  C   UNL     1      -0.750  -3.952   1.419  0.00  0.00    -0.046 C 
BRANCH  21  26
ATOM     22  C   UNL     1      -2.158   1.567   1.124  0.00  0.00    +0.007 C 
ATOM     23  C   UNL     1      -2.222   0.038   1.151  0.00  0.00    -0.018 C 
ATOM     24  C   UNL     1      -1.674  -0.474   2.486  0.00  0.00    -0.016 C 
ATOM     25  C   UNL     1      -1.667  -2.005   2.474  0.00  0.00    -0.078 C 
ATOM     26  N   UNL     1      -0.817  -2.485   1.378  0.00  0.00    +0.381 N 
ATOM     27  C   UNL     1      -1.376  -2.057   0.090  0.00  0.00    -0.078 C 
ATOM     28  C   UNL     1      -1.372  -0.529   0.010  0.00  0.00    -0.016 C 
ATOM     29  H   UNL     1       0.112  -2.105   1.483  0.00  0.00    -0.082 HD
ENDBRANCH  21  26
ENDBRANCH  18  21
ENDBRANCH  17  18
ENDBRANCH   1  17
TORSDOF 8
