REMARK  Name = ZINC10343003
REMARK  3 active torsions:
REMARK  status: ('A' for Active; 'I' for Inactive)
REMARK    1  A    between atoms: C_5  and  N_7
REMARK    2  A    between atoms: C_10  and  C_13
REMARK    3  A    between atoms: N_15  and  C_16
REMARK                            x       y       z     vdW  Elec       q    Type
REMARK                         _______ _______ _______ _____ _____    ______ ____
ROOT
ATOM      1  N   UNL     1       1.359   2.036   0.000  0.00  0.00    -0.328 N 
ATOM      2  C   UNL     1      -0.019   1.526   0.010  0.00  0.00    +0.106 C 
ATOM      3  C   UNL     1       0.002  -0.004   0.002  0.00  0.00    +0.031 C 
ATOM      4  C   UNL     1       0.738  -0.493  -1.249  0.00  0.00    +0.078 C 
ATOM      5  C   UNL     1       2.153   0.091  -1.260  0.00  0.00    +0.031 C 
ATOM      6  C   UNL     1       2.070   1.619  -1.215  0.00  0.00    +0.106 C 
ENDROOT
BRANCH   1  11
ATOM      7  C   UNL     1       0.765   5.604  -0.655  0.00  0.00    +0.002 A 
ATOM      8  C   UNL     1       1.420   6.181   0.417  0.00  0.00    +0.003 A 
ATOM      9  C   UNL     1       2.055   5.385   1.353  0.00  0.00    +0.040 A 
ATOM     10  C   UNL     1       2.032   4.009   1.221  0.00  0.00    +0.144 A 
ATOM     11  C   UNL     1       1.379   3.427   0.140  0.00  0.00    +0.065 A 
ATOM     12  C   UNL     1       0.743   4.230  -0.796  0.00  0.00    +0.026 A 
ATOM     13  F   UNL     1       2.648   3.231   2.139  0.00  0.00    -0.204 F 
ENDBRANCH   1  11
BRANCH   4  14
ATOM     14  C   UNL     1       0.814  -1.998  -1.233  0.00  0.00    +0.217 C 
ATOM     15  O   UNL     1       0.328  -2.620  -0.312  0.00  0.00    -0.275 OA
ATOM     16  N   UNL     1       1.421  -2.653  -2.241  0.00  0.00    -0.305 N 
ATOM     17  H   UNL     1       1.810  -2.155  -2.978  0.00  0.00    +0.149 HD
BRANCH  16  18
ATOM     18  C   UNL     1       1.496  -4.116  -2.226  0.00  0.00    +0.151 C 
ATOM     19  C   UNL     1       1.582  -4.623  -3.665  0.00  0.00    +0.042 C 
ATOM     20  C   UNL     1       2.222  -6.029  -3.659  0.00  0.00    +0.079 C 
ATOM     21  S   UNL     1       3.340  -5.919  -2.212  0.00  0.00    -0.086 S 
ATOM     22  C   UNL     1       2.688  -4.537  -1.397  0.00  0.00    +0.209 C 
ATOM     23  O   UNL     1       3.100  -4.019  -0.381  0.00  0.00    -0.283 OA
ENDBRANCH  16  18
ENDBRANCH   4  14
TORSDOF 3
