REMARK  Name = ZINC08867388
REMARK  6 active torsions:
REMARK  status: ('A' for Active; 'I' for Inactive)
REMARK    1  A    between atoms: C_1  and  C_2
REMARK    2  A    between atoms: C_2  and  C_29
REMARK    3  A    between atoms: C_7  and  C_9
REMARK    4  A    between atoms: C_14  and  O_15
REMARK    5  A    between atoms: N_19  and  C_22
REMARK    6  A    between atoms: C_22  and  C_23
REMARK                            x       y       z     vdW  Elec       q    Type
REMARK                         _______ _______ _______ _____ _____    ______ ____
ROOT
ATOM      1  C   UNL     1      -1.759   2.242   1.456  0.00  0.00    +0.002 C 
ATOM      2  C   UNL     1      -1.329   1.940   0.019  0.00  0.00    +0.045 C 
ATOM      3  C   UNL     1      -2.413   1.113  -0.704  0.00  0.00    +0.086 C 
ATOM      4  C   UNL     1      -3.276   2.160  -1.458  0.00  0.00    +0.077 C 
ATOM      5  C   UNL     1      -2.631   3.521  -1.121  0.00  0.00    -0.023 C 
ATOM      6  C   UNL     1      -3.022   1.837  -2.914  0.00  0.00    +0.225 C 
ATOM      7  O   UNL     1      -3.510   2.423  -3.857  0.00  0.00    -0.275 OA
ATOM      8  N   UNL     1      -2.177   0.803  -2.999  0.00  0.00    -0.237 N 
ATOM      9  C   UNL     1      -1.772   0.319  -1.819  0.00  0.00    +0.225 C 
ATOM     10  O   UNL     1      -1.010  -0.612  -1.668  0.00  0.00    -0.275 OA
ATOM     11  N   UNL     1      -1.256   3.177  -0.759  0.00  0.00    +0.395 N 
ATOM     12  H   UNL     1      -0.693   3.031  -1.605  0.00  0.00    -0.083 HD
ATOM     13  H   UNL     1      -0.840   3.927  -0.195  0.00  0.00    -0.083 HD
ENDROOT
BRANCH   5  14
ATOM     14  C   UNL     1      -2.676   4.434  -2.319  0.00  0.00    -0.018 A 
ATOM     15  C   UNL     1      -1.587   4.519  -3.165  0.00  0.00    +0.020 A 
ATOM     16  C   UNL     1      -1.629   5.354  -4.266  0.00  0.00    +0.018 A 
ATOM     17  C   UNL     1      -2.758   6.114  -4.518  0.00  0.00    +0.019 A 
ATOM     18  C   UNL     1      -3.847   6.036  -3.672  0.00  0.00    +0.047 A 
ATOM     19  C   UNL     1      -3.808   5.196  -2.569  0.00  0.00    +0.119 A 
ATOM     20 BR   UNL     1      -0.139   5.463  -5.426  0.00  0.00    -0.050 Br
BRANCH  19  21
ATOM     21  O   UNL     1      -4.878   5.118  -1.735  0.00  0.00    -0.507 OA
ATOM     22  H   UNL     1      -4.855   5.752  -1.005  0.00  0.00    +0.292 HD
ENDBRANCH  19  21
ENDBRANCH   5  14
BRANCH   2  23
ATOM     23  C   UNL     1      -0.014   1.204   0.009  0.00  0.00    +0.346 C 
ATOM     24  O   UNL     1       0.287   0.492   0.937  0.00  0.00    -0.248 OA
ATOM     25  O   UNL     1       0.820   1.336  -1.034  0.00  0.00    -0.248 OA
ENDBRANCH   2  23
BRANCH   8  26
ATOM     26  C   UNL     1      -1.733   0.246  -4.279  0.00  0.00    +0.151 C 
BRANCH  26  27
ATOM     27  C   UNL     1      -2.680  -0.843  -4.709  0.00  0.00    -0.030 A 
ATOM     28  C   UNL     1      -2.447  -2.152  -4.329  0.00  0.00    +0.005 A 
ATOM     29  C   UNL     1      -3.319  -3.151  -4.720  0.00  0.00    +0.000 A 
ATOM     30  C   UNL     1      -4.419  -2.843  -5.499  0.00  0.00    +0.000 A 
ATOM     31  C   UNL     1      -4.649  -1.535  -5.883  0.00  0.00    +0.000 A 
ATOM     32  C   UNL     1      -3.780  -0.535  -5.489  0.00  0.00    +0.005 A 
ENDBRANCH  26  27
ENDBRANCH   8  26
TORSDOF 5
