REMARK  Name = ZINC38576892
REMARK  7 active torsions:
REMARK  status: ('A' for Active; 'I' for Inactive)
REMARK    1  A    between atoms: C_1  and  C_2
REMARK    2  A    between atoms: C_5  and  C_9
REMARK    3  A    between atoms: C_6  and  O_8
REMARK    4  A    between atoms: C_11  and  C_15
REMARK    5  A    between atoms: N_17  and  C_18
REMARK    6  A    between atoms: C_24  and  O_28
REMARK    7  A    between atoms: O_28  and  C_29
REMARK                            x       y       z     vdW  Elec       q    Type
REMARK                         _______ _______ _______ _____ _____    ______ ____
ROOT
ATOM      1  C   UNL     1      -1.142  -7.207   0.947  0.00  0.00    +0.245 C 
ATOM      2  O   UNL     1      -2.078  -7.334   0.185  0.00  0.00    -0.273 OA
ATOM      3  N   UNL     1      -1.201  -7.745   2.181  0.00  0.00    -0.286 N 
ATOM      4  H   UNL     1      -0.453  -7.644   2.791  0.00  0.00    +0.151 HD
ENDROOT
BRANCH   3   5
ATOM      5  C   UNL     1      -2.395  -8.481   2.604  0.00  0.00    +0.224 C 
ATOM      6  N   UNL     1      -2.152  -9.209   3.856  0.00  0.00    -0.316 N 
ATOM      7  C   UNL     1      -2.925  -8.859   4.966  0.00  0.00    +0.043 A 
ATOM      8  C   UNL     1      -2.835  -9.442   6.242  0.00  0.00    +0.027 A 
ATOM      9  C   UNL     1      -3.643  -9.029   7.275  0.00  0.00    +0.047 A 
ATOM     10  C   UNL     1      -4.577  -8.020   7.092  0.00  0.00    +0.121 A 
ATOM     11  C   UNL     1      -4.686  -7.426   5.841  0.00  0.00    +0.062 A 
ATOM     12  C   UNL     1      -3.874  -7.844   4.811  0.00  0.00    +0.035 A 
ATOM     13  S   UNL     1      -3.735  -7.331   3.113  0.00  0.00    -0.082 S 
ATOM     14  H   UNL     1      -1.480  -9.906   3.911  0.00  0.00    +0.149 HD
BRANCH  10  15
ATOM     15  O   UNL     1      -5.372  -7.619   8.120  0.00  0.00    -0.495 OA
ATOM     16  C   UNL     1      -5.196  -8.282   9.374  0.00  0.00    +0.277 C 
ENDBRANCH  10  15
ENDBRANCH   3   5
BRANCH   1  19
ATOM     17  C   UNL     1       0.058  -4.259  -0.033  0.00  0.00    +0.095 C 
ATOM     18  C   UNL     1       0.069  -5.037   1.067  0.00  0.00    +0.041 C 
ATOM     19  C   UNL     1       0.086  -6.450   0.512  0.00  0.00    +0.238 C 
ATOM     20  N   UNL     1       0.083  -6.239  -0.945  0.00  0.00    -0.170 NA
ATOM     21  N   UNL     1       0.062  -5.025  -1.156  0.00  0.00    -0.153 NA
BRANCH  17  26
ATOM     22  C   UNL     1      -0.018   1.503   0.010  0.00  0.00    +0.044 C 
ATOM     23  C   UNL     1       0.002  -0.004   0.002  0.00  0.00    -0.047 A 
ATOM     24  C   UNL     1       0.006  -0.686  -1.202  0.00  0.00    +0.004 A 
ATOM     25  C   UNL     1       0.024  -2.066  -1.219  0.00  0.00    +0.014 A 
ATOM     26  C   UNL     1       0.039  -2.776  -0.021  0.00  0.00    +0.043 A 
ATOM     27  C   UNL     1       0.036  -2.084   1.194  0.00  0.00    +0.126 A 
ATOM     28  C   UNL     1       0.023  -0.698   1.197  0.00  0.00    +0.049 A 
BRANCH  27  29
ATOM     29  O   UNL     1       0.051  -2.767   2.368  0.00  0.00    -0.506 OA
ATOM     30  H   UNL     1       0.939  -2.954   2.704  0.00  0.00    +0.292 HD
ENDBRANCH  27  29
ENDBRANCH  17  26
ENDBRANCH   1  19
TORSDOF 5
