REMARK  Name = ZINC39673927
REMARK  6 active torsions:
REMARK  status: ('A' for Active; 'I' for Inactive)
REMARK    1  A    between atoms: C_1  and  C_2
REMARK    2  A    between atoms: C_4  and  C_12
REMARK    3  A    between atoms: C_12  and  C_13
REMARK    4  A    between atoms: C_13  and  N_14
REMARK    5  A    between atoms: C_15  and  C_17
REMARK    6  A    between atoms: C_28  and  C_30
REMARK                            x       y       z     vdW  Elec       q    Type
REMARK                         _______ _______ _______ _____ _____    ______ ____
ROOT
ATOM      1  N   UNL     1      -4.803   4.306   1.372  0.00  0.00    -0.315 N 
ATOM      2  C   UNL     1      -4.411   3.791   2.554  0.00  0.00    +0.218 C 
ATOM      3  O   UNL     1      -3.253   3.472   2.722  0.00  0.00    -0.275 OA
ATOM      4  H   UNL     1      -5.730   4.561   1.238  0.00  0.00    +0.149 HD
ENDROOT
BRANCH   2   5
ATOM      5  C   UNL     1      -5.411   3.612   3.667  0.00  0.00    +0.100 C 
ATOM      6  C   UNL     1      -4.990   2.443   4.585  0.00  0.00    +0.121 C 
ATOM      7  N   UNL     1      -4.247   3.086   5.694  0.00  0.00    -0.300 N 
ATOM      8  C   UNL     1      -5.004   4.330   5.972  0.00  0.00    +0.115 C 
ATOM      9  C   UNL     1      -5.422   4.848   4.582  0.00  0.00    -0.004 C 
ATOM     10  C   UNL     1      -4.420   5.884   4.082  0.00  0.00    -0.010 C 
ATOM     11  C   UNL     1      -4.490   7.127   4.974  0.00  0.00    -0.082 C 
ATOM     12  N   UNL     1      -5.850   7.678   4.942  0.00  0.00    +0.379 N 
ATOM     13  C   UNL     1      -6.796   6.710   5.511  0.00  0.00    -0.082 C 
ATOM     14  C   UNL     1      -6.823   5.449   4.641  0.00  0.00    -0.010 C 
ATOM     15  C   UNL     1      -3.134   2.641   6.310  0.00  0.00    +0.212 C 
ATOM     16  O   UNL     1      -2.639   3.287   7.210  0.00  0.00    -0.276 OA
ATOM     17  C   UNL     1      -2.504   1.341   5.882  0.00  0.00    +0.109 C 
ATOM     18  H   UNL     1      -5.879   8.530   5.482  0.00  0.00    -0.086 HD
ATOM     19  H   UNL     1      -6.109   7.878   3.988  0.00  0.00    -0.086 HD
ENDBRANCH   2   5
BRANCH   1  20
ATOM     20  C   UNL     1      -3.831   4.481   0.290  0.00  0.00    +0.109 C 
BRANCH  20  21
ATOM     21  C   UNL     1      -4.530   5.078  -0.932  0.00  0.00    +0.056 C 
BRANCH  21  25
ATOM     22  C   UNL     1      -3.832   2.987  -3.117  0.00  0.00    +0.063 C 
ATOM     23  C   UNL     1      -3.222   4.360  -2.994  0.00  0.00    +0.017 A 
ATOM     24  H   UNL     1      -1.884   4.408  -4.589  0.00  0.00    +0.166 HD
ATOM     25  C   UNL     1      -3.530   5.258  -2.045  0.00  0.00    -0.018 A 
ATOM     26  C   UNL     1      -2.711   6.446  -2.297  0.00  0.00    +0.003 A 
ATOM     27  C   UNL     1      -2.580   7.686  -1.669  0.00  0.00    +0.010 A 
ATOM     28  C   UNL     1      -1.701   8.607  -2.163  0.00  0.00    +0.001 A 
ATOM     29  C   UNL     1      -0.935   8.320  -3.285  0.00  0.00    +0.002 A 
ATOM     30  C   UNL     1      -1.048   7.103  -3.921  0.00  0.00    +0.026 A 
ATOM     31  C   UNL     1      -1.937   6.150  -3.435  0.00  0.00    +0.047 A 
ATOM     32  N   UNL     1      -2.268   4.873  -3.830  0.00  0.00    -0.358 N 
ENDBRANCH  21  25
ENDBRANCH  20  21
ENDBRANCH   1  20
TORSDOF 4
