REMARK  Name = ZINC06800949
REMARK  8 active torsions:
REMARK  status: ('A' for Active; 'I' for Inactive)
REMARK    1  A    between atoms: C_1  and  C_2
REMARK    2  A    between atoms: C_2  and  C_3
REMARK    3  A    between atoms: C_3  and  C_5
REMARK    4  A    between atoms: C_3  and  N_6
REMARK    5  A    between atoms: C_7  and  C_9
REMARK    6  A    between atoms: C_9  and  N_10
REMARK    7  A    between atoms: N_19  and  C_22
REMARK    8  A    between atoms: C_22  and  C_23
REMARK                            x       y       z     vdW  Elec       q    Type
REMARK                         _______ _______ _______ _____ _____    ______ ____
ROOT
ATOM      1  N   UNL     1      -1.740   6.669  -1.876  0.00  0.00    -0.284 N 
ATOM      2  C   UNL     1      -2.338   7.768  -1.277  0.00  0.00    +0.061 A 
ATOM      3  C   UNL     1      -3.332   7.622  -0.322  0.00  0.00    +0.046 A 
ATOM      4  C   UNL     1      -3.898   8.743   0.255  0.00  0.00    +0.043 A 
ATOM      5  C   UNL     1      -3.475  10.015  -0.107  0.00  0.00    +0.021 A 
ATOM      6  C   UNL     1      -2.482  10.178  -1.049  0.00  0.00    +0.017 A 
ATOM      7  C   UNL     1      -1.905   9.056  -1.639  0.00  0.00    +0.063 A 
ATOM      8  C   UNL     1      -0.841   9.174  -2.651  0.00  0.00    +0.264 A 
ATOM      9  O   UNL     1      -0.433  10.264  -3.004  0.00  0.00    -0.267 OA
ATOM     10  N   UNL     1      -0.329   8.040  -3.178  0.00  0.00    -0.261 N 
ATOM     11  C   UNL     1      -0.772   6.832  -2.795  0.00  0.00    +0.333 A 
ATOM     12  O   UNL     1      -0.277   5.843  -3.300  0.00  0.00    -0.246 OA
ATOM     13 CL   UNL     1      -5.149   8.559   1.445  0.00  0.00    -0.083 Cl
ENDROOT
BRANCH  10  14
ATOM     14  C   UNL     1       0.730   8.130  -4.186  0.00  0.00    +0.126 C 
ATOM     15  C   UNL     1       0.102   8.196  -5.580  0.00  0.00    +0.027 C 
ENDBRANCH  10  14
BRANCH   1  16
ATOM     16  C   UNL     1      -2.171   5.318  -1.509  0.00  0.00    +0.222 C 
BRANCH  16  18
ATOM     17  N   UNL     1      -1.559   3.593   0.154  0.00  0.00    -0.311 N 
ATOM     18  C   UNL     1      -1.339   4.821  -0.356  0.00  0.00    +0.233 C 
ATOM     19  O   UNL     1      -0.470   5.525   0.113  0.00  0.00    -0.274 OA
ATOM     20  H   UNL     1      -2.254   3.029  -0.221  0.00  0.00    +0.149 HD
BRANCH  17  21
ATOM     21  C   UNL     1      -0.750   3.109   1.275  0.00  0.00    +0.070 C 
ATOM     22  C   UNL     1      -1.354   3.604   2.591  0.00  0.00    +0.028 C 
BRANCH  21  24
ATOM     23  C   UNL     1      -0.013   1.086   0.008  0.00  0.00    +0.005 C 
ATOM     24  C   UNL     1      -0.729   1.579   1.267  0.00  0.00    +0.018 C 
ENDBRANCH  21  24
ENDBRANCH  17  21
ENDBRANCH  16  18
ENDBRANCH   1  16
TORSDOF 5
