REMARK  Name = ZINC40399268
REMARK  5 active torsions:
REMARK  status: ('A' for Active; 'I' for Inactive)
REMARK    1  A    between atoms: C_1  and  C_2
REMARK    2  A    between atoms: C_2  and  C_3
REMARK    3  A    between atoms: C_8  and  N_9
REMARK    4  A    between atoms: C_10  and  C_12
REMARK    5  A    between atoms: N_26  and  C_27
REMARK                            x       y       z     vdW  Elec       q    Type
REMARK                         _______ _______ _______ _____ _____    ______ ____
ROOT
ATOM      1  C   UNL     1       4.808  -0.007   1.223  0.00  0.00    +0.122 C 
ATOM      2  C   UNL     1       4.342  -0.923   2.356  0.00  0.00    +0.114 C 
ATOM      3  C   UNL     1       5.254  -0.764   3.543  0.00  0.00    +0.219 C 
ATOM      4  O   UNL     1       4.793  -0.801   4.664  0.00  0.00    -0.275 OA
ATOM      5  N   UNL     1       6.575  -0.582   3.374  0.00  0.00    -0.270 N 
ATOM      6  C   UNL     1       7.116  -0.431   2.109  0.00  0.00    +0.138 A 
ATOM      7  C   UNL     1       6.293  -0.161   1.030  0.00  0.00    +0.069 A 
ATOM      8  C   UNL     1       6.859  -0.033  -0.242  0.00  0.00    +0.258 A 
ATOM      9  O   UNL     1       6.158   0.194  -1.216  0.00  0.00    -0.267 OA
ATOM     10  N   UNL     1       8.197  -0.166  -0.372  0.00  0.00    -0.295 N 
ATOM     11  H   UNL     1       8.608  -0.096  -1.248  0.00  0.00    +0.172 HD
ATOM     12  C   UNL     1       8.968  -0.397   0.726  0.00  0.00    +0.202 A 
ATOM     13  N   UNL     1       8.438  -0.519   1.924  0.00  0.00    -0.200 NA
ATOM     14  N   UNL     1      10.326  -0.503   0.580  0.00  0.00    -0.285 N 
ATOM     15  H   UNL     1       7.158  -0.556   4.149  0.00  0.00    +0.156 HD
ATOM     16  H   UNL     1      10.724  -0.466  -0.305  0.00  0.00    +0.155 HD
ENDROOT
BRANCH  14  17
ATOM     17  C   UNL     1      11.140  -0.667   1.706  0.00  0.00    +0.034 A 
ATOM     18  C   UNL     1      10.697  -1.428   2.780  0.00  0.00    +0.025 A 
ATOM     19  C   UNL     1      11.502  -1.587   3.890  0.00  0.00    +0.022 A 
ATOM     20  C   UNL     1      12.750  -0.990   3.933  0.00  0.00    +0.041 A 
ATOM     21  C   UNL     1      13.194  -0.232   2.865  0.00  0.00    +0.022 A 
ATOM     22  C   UNL     1      12.396  -0.074   1.749  0.00  0.00    +0.025 A 
ATOM     23 CL   UNL     1      13.760  -1.193   5.331  0.00  0.00    -0.084 Cl
ENDBRANCH  14  17
BRANCH   1  25
ATOM     24  N   UNL     1       3.405   0.553  -0.736  0.00  0.00    -0.285 N 
ATOM     25  C   UNL     1       4.095  -0.381  -0.051  0.00  0.00    +0.225 C 
ATOM     26  O   UNL     1       4.142  -1.521  -0.460  0.00  0.00    -0.275 OA
ATOM     27  H   UNL     1       3.414   1.477  -0.440  0.00  0.00    +0.155 HD
BRANCH  24  33
ATOM     28  C   UNL     1       1.480   0.831  -2.167  0.00  0.00    -0.026 A 
ATOM     29  C   UNL     1       0.765   0.474  -3.294  0.00  0.00    +0.005 A 
ATOM     30  C   UNL     1       1.237  -0.525  -4.126  0.00  0.00    +0.000 A 
ATOM     31  C   UNL     1       2.425  -1.169  -3.834  0.00  0.00    +0.002 A 
ATOM     32  C   UNL     1       3.144  -0.816  -2.709  0.00  0.00    +0.023 A 
ATOM     33  C   UNL     1       2.676   0.190  -1.874  0.00  0.00    +0.037 A 
BRANCH  28  35
ATOM     34  C   UNL     1       1.605   3.253  -1.651  0.00  0.00    +0.009 C 
ATOM     35  C   UNL     1       0.965   1.919  -1.261  0.00  0.00    +0.033 C 
ENDBRANCH  28  35
ENDBRANCH  24  33
ENDBRANCH   1  25
TORSDOF 4
