REMARK  Name = ZINC22234323
REMARK  9 active torsions:
REMARK  status: ('A' for Active; 'I' for Inactive)
REMARK    1  A    between atoms: C_1  and  C_2
REMARK    2  A    between atoms: C_4  and  C_25
REMARK    3  A    between atoms: N_8  and  N_9
REMARK    4  A    between atoms: C_10  and  C_12
REMARK    5  A    between atoms: C_12  and  C_14
REMARK    6  A    between atoms: C_12  and  N_17
REMARK    7  A    between atoms: C_14  and  C_15
REMARK    8  A    between atoms: C_14  and  C_16
REMARK    9  A    between atoms: C_18  and  C_20
REMARK                            x       y       z     vdW  Elec       q    Type
REMARK                         _______ _______ _______ _____ _____    ______ ____
ROOT
ATOM      1  N   UNL     1       2.703   3.853  -0.518  0.00  0.00    -0.233 N 
ATOM      2  C   UNL     1       2.469   5.149  -0.231  0.00  0.00    +0.250 C 
ATOM      3  O   UNL     1       1.330   5.555  -0.141  0.00  0.00    -0.272 OA
ATOM      4  H   UNL     1       3.732   3.504  -0.685  0.00  0.00    +0.173 HD
ENDROOT
BRANCH   1  12
ATOM      5  C   UNL     1       4.804  -0.500  -1.603  0.00  0.00    +0.066 C 
ATOM      6  C   UNL     1       3.384  -0.049  -1.379  0.00  0.00    +0.044 A 
ATOM      7  C   UNL     1       2.338  -0.954  -1.466  0.00  0.00    +0.046 A 
ATOM      8  C   UNL     1       1.047  -0.498  -1.251  0.00  0.00    +0.044 A 
ATOM      9  N   UNL     1       0.852   0.780  -0.972  0.00  0.00    -0.219 NA
ATOM     10  C   UNL     1       1.874   1.620  -0.896  0.00  0.00    +0.232 A 
ATOM     11  N   UNL     1       3.120   1.216  -1.095  0.00  0.00    -0.219 NA
ATOM     12  N   UNL     1       1.634   2.951  -0.602  0.00  0.00    -0.232 N 
ATOM     13  C   UNL     1      -0.121  -1.447  -1.335  0.00  0.00    +0.066 C 
ATOM     14  H   UNL     1       0.605   3.300  -0.435  0.00  0.00    +0.173 HD
ENDBRANCH   1  12
BRANCH   2  15
ATOM     15  C   UNL     1       3.624   6.095  -0.024  0.00  0.00    +0.163 C 
BRANCH  15  16
ATOM     16  N   UNL     1       3.146   7.477  -0.114  0.00  0.00    -0.297 N 
ATOM     17  C   UNL     1       3.996   8.463  -0.463  0.00  0.00    +0.280 C 
ATOM     18  O   UNL     1       5.161   8.205  -0.704  0.00  0.00    -0.267 OA
ATOM     19  H   UNL     1       2.093   7.710   0.103  0.00  0.00    +0.150 HD
BRANCH  17  20
ATOM     20  C   UNL     1       3.517   9.846  -0.554  0.00  0.00    +0.189 A 
ATOM     21  C   UNL     1       4.268  10.934  -0.894  0.00  0.00    +0.054 A 
ATOM     22  C   UNL     1       3.411  12.045  -0.855  0.00  0.00    +0.042 A 
ATOM     23  C   UNL     1       2.189  11.592  -0.496  0.00  0.00    +0.196 A 
ATOM     24  O   UNL     1       2.256  10.265  -0.320  0.00  0.00    -0.458 OA
ENDBRANCH  17  20
ENDBRANCH  15  16
BRANCH  15  25
ATOM     25  C   UNL     1       4.237   5.857   1.358  0.00  0.00    +0.012 C 
ATOM     26  C   UNL     1       5.462   6.756   1.535  0.00  0.00    +0.009 C 
ATOM     27  C   UNL     1       3.203   6.184   2.437  0.00  0.00    +0.009 C 
ENDBRANCH  15  25
ENDBRANCH   2  15
TORSDOF 5
