REMARK  Name = ZINC67318132
REMARK  5 active torsions:
REMARK  status: ('A' for Active; 'I' for Inactive)
REMARK    1  A    between atoms: C_3  and  N_13
REMARK    2  A    between atoms: C_5  and  S_7
REMARK    3  A    between atoms: S_7  and  C_10
REMARK    4  A    between atoms: N_16  and  C_17
REMARK    5  A    between atoms: C_17  and  C_18
REMARK                            x       y       z     vdW  Elec       q    Type
REMARK                         _______ _______ _______ _____ _____    ______ ____
ROOT
ATOM      1  N   UNL     1       3.584   2.124  -0.021  0.00  0.00    -0.269 N 
ATOM      2  C   UNL     1       3.569   3.468  -0.116  0.00  0.00    +0.304 C 
ATOM      3  O   UNL     1       2.510   4.066  -0.103  0.00  0.00    -0.252 OA
ATOM      4  N   UNL     1       4.727   4.149  -0.225  0.00  0.00    -0.294 N 
ATOM      5  H   UNL     1       4.429   1.652   0.046  0.00  0.00    +0.156 HD
ATOM      6  H   UNL     1       5.571   3.672  -0.236  0.00  0.00    +0.151 HD
ENDROOT
BRANCH   1   9
ATOM      7  C   UNL     1       0.112   1.159  -0.754  0.00  0.00    +0.004 A 
ATOM      8  C   UNL     1       1.298   1.867  -0.757  0.00  0.00    +0.023 A 
ATOM      9  C   UNL     1       2.381   1.409  -0.020  0.00  0.00    +0.037 A 
ATOM     10  C   UNL     1       2.268   0.238   0.719  0.00  0.00    +0.050 A 
ATOM     11  C   UNL     1       1.080  -0.466   0.718  0.00  0.00    +0.096 A 
ATOM     12  C   UNL     1       0.003  -0.006  -0.018  0.00  0.00    +0.027 A 
BRANCH  11  13
ATOM     13  S   UNL     1       0.936  -1.952   1.654  0.00  0.00    +0.058 S 
ATOM     14  O   UNL     1      -0.072  -2.701   0.992  0.00  0.00    -0.164 OA
ATOM     15  O   UNL     1       2.264  -2.450   1.750  0.00  0.00    -0.164 OA
BRANCH  13  16
ATOM     16  C   UNL     1       0.349  -1.419   3.286  0.00  0.00    +0.485 C 
ATOM     17  F   UNL     1       1.278  -0.539   3.852  0.00  0.00    -0.183 F 
ATOM     18  F   UNL     1      -0.884  -0.772   3.150  0.00  0.00    -0.183 F 
ENDBRANCH  13  16
ENDBRANCH  11  13
ENDBRANCH   1   9
BRANCH   4  19
ATOM     19  C   UNL     1       4.710   5.610  -0.329  0.00  0.00    +0.160 C 
BRANCH  19  20
ATOM     20  C   UNL     1       6.123   6.122  -0.439  0.00  0.00    +0.051 A 
ATOM     21  C   UNL     1       6.892   6.552   0.582  0.00  0.00    +0.110 A 
ATOM     22  N   UNL     1       8.088   6.922   0.042  0.00  0.00    -0.336 N 
ATOM     23  C   UNL     1       8.013   6.709  -1.293  0.00  0.00    +0.087 A 
ATOM     24  N   UNL     1       6.838   6.224  -1.571  0.00  0.00    -0.346 N 
ATOM     25  C   UNL     1       9.139   6.996  -2.258  0.00  0.00    +0.072 C 
ATOM     26  C   UNL     1      10.155   7.905  -1.553  0.00  0.00    +0.009 C 
ATOM     27  C   UNL     1      10.482   7.322  -0.175  0.00  0.00    +0.022 C 
ATOM     28  C   UNL     1       9.260   7.455   0.740  0.00  0.00    +0.123 C 
ATOM     29  H   UNL     1       6.527   5.979  -2.457  0.00  0.00    +0.167 HD
ENDBRANCH  19  20
ENDBRANCH   4  19
TORSDOF 5
