REMARK  Name = ZINC42944040
REMARK  7 active torsions:
REMARK  status: ('A' for Active; 'I' for Inactive)
REMARK    1  A    between atoms: C_1  and  C_2
REMARK    2  A    between atoms: C_2  and  C_4
REMARK    3  A    between atoms: C_2  and  N_22
REMARK    4  A    between atoms: C_4  and  C_6
REMARK    5  A    between atoms: C_4  and  S_13
REMARK    6  A    between atoms: S_13  and  C_14
REMARK    7  A    between atoms: C_18  and  N_20
REMARK                            x       y       z     vdW  Elec       q    Type
REMARK                         _______ _______ _______ _____ _____    ______ ____
ROOT
ATOM      1  C   UNL     1       0.836  -0.542   1.172  0.00  0.00    +0.069 C 
ENDROOT
BRANCH   1   2
ATOM      2  C   UNL     1       0.970  -2.042   1.114  0.00  0.00    -0.035 A 
ATOM      3  C   UNL     1      -0.158  -2.839   1.174  0.00  0.00    +0.007 A 
ATOM      4  C   UNL     1      -0.036  -4.215   1.120  0.00  0.00    +0.038 A 
ATOM      5  C   UNL     1       1.217  -4.794   1.008  0.00  0.00    +0.123 A 
ATOM      6  C   UNL     1       2.346  -3.995   0.949  0.00  0.00    +0.038 A 
ATOM      7  C   UNL     1       2.221  -2.619   0.997  0.00  0.00    +0.007 A 
ATOM      8  F   UNL     1       1.337  -6.139   0.956  0.00  0.00    -0.205 F 
ENDBRANCH   1   2
BRANCH   1  10
ATOM      9  C   UNL     1      -0.112   1.466   0.026  0.00  0.00    -0.013 C 
ATOM     10  C   UNL     1      -0.025  -0.062   0.002  0.00  0.00    -0.060 C 
BRANCH  10  11
ATOM     11  N   UNL     1       0.581  -0.498  -1.263  0.00  0.00    +0.381 N 
ATOM     12  H   UNL     1       1.508  -0.107  -1.345  0.00  0.00    -0.090 HD
ATOM     13  H   UNL     1       0.639  -1.505  -1.279  0.00  0.00    -0.090 HD
ATOM     14  H   UNL     1       0.014  -0.181  -2.035  0.00  0.00    -0.090 HD
ENDBRANCH  10  11
ENDBRANCH   1  10
BRANCH   1  15
ATOM     15  S   UNL     1       0.051  -0.065   2.736  0.00  0.00    -0.080 S 
BRANCH  15  16
ATOM     16  C   UNL     1       1.261  -0.454   3.957  0.00  0.00    +0.192 A 
ATOM     17  N   UNL     1       2.386  -1.046   3.584  0.00  0.00    -0.207 NA
ATOM     18  C   UNL     1       3.323  -1.354   4.478  0.00  0.00    +0.122 A 
ATOM     19  C   UNL     1       3.107  -1.046   5.818  0.00  0.00    +0.086 A 
ATOM     20  C   UNL     1       1.913  -0.425   6.172  0.00  0.00    +0.122 A 
ATOM     21  N   UNL     1       1.024  -0.142   5.223  0.00  0.00    -0.207 NA
ATOM     22  N   UNL     1       4.497  -1.973   4.080  0.00  0.00    -0.343 N 
ATOM     23  H   UNL     1       4.641  -2.185   3.144  0.00  0.00    +0.144 HD
ATOM     24  H   UNL     1       5.176  -2.195   4.737  0.00  0.00    +0.144 HD
BRANCH  20  25
ATOM     25  N   UNL     1       1.655  -0.100   7.495  0.00  0.00    -0.343 N 
ATOM     26  H   UNL     1       2.309  -0.306   8.181  0.00  0.00    +0.144 HD
ATOM     27  H   UNL     1       0.821   0.333   7.734  0.00  0.00    +0.144 HD
ENDBRANCH  20  25
ENDBRANCH  15  16
ENDBRANCH   1  15
TORSDOF 6
