REMARK  Name = ZINC67571559
REMARK  12 active torsions:
REMARK  status: ('A' for Active; 'I' for Inactive)
REMARK    1  A    between atoms: C_1  and  C_2
REMARK    2  A    between atoms: C_2  and  C_22
REMARK    3  A    between atoms: C_4  and  N_10
REMARK    4  A    between atoms: C_6  and  C_8
REMARK    5  A    between atoms: C_6  and  C_9
REMARK    6  A    between atoms: C_11  and  C_13
REMARK    7  A    between atoms: C_13  and  N_14
REMARK    8  A    between atoms: C_15  and  O_17
REMARK    9  A    between atoms: O_17  and  C_18
REMARK   10  A    between atoms: C_18  and  C_19
REMARK   11  A    between atoms: C_18  and  C_20
REMARK   12  A    between atoms: C_18  and  C_21
REMARK                            x       y       z     vdW  Elec       q    Type
REMARK                         _______ _______ _______ _____ _____    ______ ____
ROOT
ATOM      1  N   UNL     1      -2.928  -2.409   0.180  0.00  0.00    -0.311 N 
ATOM      2  C   UNL     1      -3.243  -3.683  -0.127  0.00  0.00    +0.231 C 
ATOM      3  O   UNL     1      -2.365  -4.479  -0.386  0.00  0.00    -0.274 OA
ATOM      4  H   UNL     1      -3.630  -1.773   0.387  0.00  0.00    +0.149 HD
ENDROOT
BRANCH   1   8
ATOM      5  C   UNL     1      -0.019   1.542   0.011  0.00  0.00    -0.010 C 
ATOM      6  C   UNL     1       0.002  -0.004   0.002  0.00  0.00    -0.072 C 
ATOM      7  C   UNL     1      -1.446  -0.479  -0.047  0.00  0.00    +0.009 C 
ATOM      8  C   UNL     1      -1.522  -1.985   0.202  0.00  0.00    +0.070 C 
ATOM      9  C   UNL     1      -0.931  -2.270   1.582  0.00  0.00    +0.009 C 
ATOM     10  C   UNL     1       0.522  -1.810   1.643  0.00  0.00    -0.072 C 
ATOM     11  N   UNL     1       0.711  -0.443   1.191  0.00  0.00    +0.386 N 
ATOM     12  C   UNL     1       1.408  -2.784   0.859  0.00  0.00    -0.010 C 
ATOM     13  C   UNL     1       0.968  -1.882   3.122  0.00  0.00    -0.010 C 
ATOM     14  C   UNL     1       0.733  -0.436  -1.274  0.00  0.00    -0.010 C 
ATOM     15  H   UNL     1       1.713  -0.290   1.042  0.00  0.00    -0.084 HD
ATOM     16  H   UNL     1       0.464   0.186   1.962  0.00  0.00    -0.084 HD
ENDBRANCH   1   8
BRANCH   2  17
ATOM     17  C   UNL     1      -4.685  -4.119  -0.149  0.00  0.00    +0.203 C 
BRANCH  17  18
ATOM     18  N   UNL     1      -4.762  -5.537  -0.508  0.00  0.00    -0.273 N 
ATOM     19  C   UNL     1      -5.960  -6.147  -0.590  0.00  0.00    +0.401 C 
ATOM     20  O   UNL     1      -6.978  -5.521  -0.367  0.00  0.00    -0.226 OA
ATOM     21  H   UNL     1      -3.950  -6.037  -0.687  0.00  0.00    +0.153 HD
BRANCH  19  22
ATOM     22  O   UNL     1      -6.031  -7.451  -0.920  0.00  0.00    -0.445 OA
BRANCH  22  23
ATOM     23  C   UNL     1      -7.334  -8.033  -0.989  0.00  0.00    +0.107 C 
ATOM     24  C   UNL     1      -8.167  -7.297  -2.040  0.00  0.00    +0.055 C 
ATOM     25  C   UNL     1      -7.214  -9.509  -1.375  0.00  0.00    +0.055 C 
ATOM     26  C   UNL     1      -8.017  -7.917   0.375  0.00  0.00    +0.055 C 
ENDBRANCH  22  23
ENDBRANCH  19  22
ENDBRANCH  17  18
ENDBRANCH   2  17
TORSDOF 5
