REMARK  Name = ZINC07756907
REMARK  8 active torsions:
REMARK  status: ('A' for Active; 'I' for Inactive)
REMARK    1  A    between atoms: C_1  and  C_2
REMARK    2  A    between atoms: C_4  and  C_26
REMARK    3  A    between atoms: C_5  and  O_9
REMARK    4  A    between atoms: C_6  and  C_8
REMARK    5  A    between atoms: O_9  and  C_10
REMARK    6  A    between atoms: C_10  and  C_11
REMARK    7  A    between atoms: N_13  and  C_14
REMARK    8  A    between atoms: C_14  and  C_15
REMARK                            x       y       z     vdW  Elec       q    Type
REMARK                         _______ _______ _______ _____ _____    ______ ____
ROOT
ATOM      1  C   UNL     1       1.160  -6.258  -0.038  0.00  0.00    +0.251 C 
ATOM      2  O   UNL     1       0.045  -6.736  -0.035  0.00  0.00    -0.272 OA
ATOM      3  N   UNL     1       2.239  -7.065  -0.048  0.00  0.00    -0.309 N 
ATOM      4  H   UNL     1       3.131  -6.683  -0.051  0.00  0.00    +0.149 HD
ENDROOT
BRANCH   1   5
ATOM      5  C   UNL     1       1.338  -4.761  -0.031  0.00  0.00    +0.324 C 
BRANCH   5   6
ATOM      6  O   UNL     1       0.057  -4.129  -0.021  0.00  0.00    -0.482 OA
BRANCH   6  11
ATOM      7  C   UNL     1      -0.018   1.503   0.010  0.00  0.00    +0.044 C 
ATOM      8  C   UNL     1       0.002  -0.004   0.002  0.00  0.00    -0.050 A 
ATOM      9  C   UNL     1       0.006  -0.688  -1.200  0.00  0.00    +0.010 A 
ATOM     10  C   UNL     1       0.024  -2.069  -1.210  0.00  0.00    -0.008 A 
ATOM     11  C   UNL     1       0.039  -2.770  -0.013  0.00  0.00    +0.127 A 
ATOM     12  C   UNL     1       0.036  -2.082   1.191  0.00  0.00    -0.008 A 
ATOM     13  C   UNL     1       0.023  -0.701   1.196  0.00  0.00    +0.010 A 
ATOM     14  C   UNL     1       0.052  -2.841   2.493  0.00  0.00    +0.047 C 
ATOM     15  C   UNL     1       0.027  -2.813  -2.520  0.00  0.00    +0.047 C 
ENDBRANCH   6  11
ENDBRANCH   5   6
ENDBRANCH   1   5
BRANCH   3  16
ATOM     16  C   UNL     1       2.066  -8.520  -0.055  0.00  0.00    +0.152 C 
BRANCH  16  17
ATOM     17  C   UNL     1       3.438  -9.196  -0.066  0.00  0.00    +0.228 C 
ATOM     18  C   UNL     1       3.264 -10.717  -0.184  0.00  0.00    +0.275 C 
ATOM     19  O   UNL     1       4.564 -11.318  -0.177  0.00  0.00    -0.485 OA
ATOM     20  C   UNL     1       5.436 -10.879   0.771  0.00  0.00    +0.162 A 
ATOM     21  C   UNL     1       6.553 -11.643   1.074  0.00  0.00    +0.049 A 
ATOM     22  C   UNL     1       7.449 -11.209   2.032  0.00  0.00    +0.004 A 
ATOM     23  C   UNL     1       7.235 -10.012   2.691  0.00  0.00    +0.004 A 
ATOM     24  C   UNL     1       6.123  -9.247   2.394  0.00  0.00    +0.049 A 
ATOM     25  C   UNL     1       5.219  -9.678   1.435  0.00  0.00    +0.163 A 
ATOM     26  O   UNL     1       4.124  -8.917   1.160  0.00  0.00    -0.480 OA
ENDBRANCH  16  17
ENDBRANCH   3  16
TORSDOF 5
