REMARK  Name = ZINC62349356
REMARK  5 active torsions:
REMARK  status: ('A' for Active; 'I' for Inactive)
REMARK    1  A    between atoms: C_1  and  C_2
REMARK    2  A    between atoms: C_4  and  N_17
REMARK    3  A    between atoms: C_6  and  C_9
REMARK    4  A    between atoms: C_7  and  C_8
REMARK    5  A    between atoms: C_11  and  C_14
REMARK                            x       y       z     vdW  Elec       q    Type
REMARK                         _______ _______ _______ _____ _____    ______ ____
ROOT
ATOM      1  C   UNL     1       0.022   1.503   0.039  0.00  0.00    +0.044 C 
ATOM      2  C   UNL     1       0.022  -0.004   0.016  0.00  0.00    -0.045 A 
ATOM      3  C   UNL     1      -0.118  -0.674  -1.185  0.00  0.00    +0.026 A 
ATOM      4  C   UNL     1      -0.119  -2.064  -1.215  0.00  0.00    +0.026 A 
ATOM      5  C   UNL     1       0.021  -2.783  -0.037  0.00  0.00    +0.036 A 
ATOM      6  C   UNL     1       0.162  -2.106   1.174  0.00  0.00    +0.044 A 
ATOM      7  C   UNL     1       0.167  -0.710   1.193  0.00  0.00    -0.035 A 
ATOM      8  C   UNL     1       0.325   0.026   2.498  0.00  0.00    +0.045 C 
ENDROOT
BRANCH   6   9
ATOM      9  C   UNL     1       0.312  -2.865   2.434  0.00  0.00    +0.259 A 
ATOM     10  N   UNL     1       1.118  -3.883   2.631  0.00  0.00    -0.192 NA
ATOM     11  C   UNL     1       0.996  -4.326   3.885  0.00  0.00    +0.175 A 
ATOM     12  N   UNL     1       0.112  -3.601   4.509  0.00  0.00    -0.061 NA
ATOM     13  O   UNL     1      -0.349  -2.630   3.581  0.00  0.00    -0.333 OA
BRANCH  11  14
ATOM     14  C   UNL     1       1.758  -5.481   4.482  0.00  0.00    +0.060 C 
ATOM     15  C   UNL     1       1.334  -5.965   5.870  0.00  0.00    +0.012 C 
ATOM     16  C   UNL     1       2.643  -5.191   5.696  0.00  0.00    +0.012 C 
ENDBRANCH  11  14
ENDBRANCH   6   9
BRANCH   4  17
ATOM     17  N   UNL     1      -0.261  -2.737  -2.431  0.00  0.00    -0.358 N 
ATOM     18  H   UNL     1      -0.359  -2.234  -3.255  0.00  0.00    +0.142 HD
ATOM     19  H   UNL     1      -0.262  -3.707  -2.451  0.00  0.00    +0.142 HD
ENDBRANCH   4  17
TORSDOF 3
