REMARK  Name = ZINC08914778
REMARK  3 active torsions:
REMARK  status: ('A' for Active; 'I' for Inactive)
REMARK    1  A    between atoms: C_1  and  C_2
REMARK    2  A    between atoms: C_2  and  C_19
REMARK    3  A    between atoms: N_15  and  N_16
REMARK                            x       y       z     vdW  Elec       q    Type
REMARK                         _______ _______ _______ _____ _____    ______ ____
ROOT
ATOM      1  C   UNL     1       1.186   6.005  -0.297  0.00  0.00    +0.023 C 
ATOM      2  C   UNL     1       0.697   4.567  -0.482  0.00  0.00    +0.015 C 
ATOM      3  C   UNL     1       1.755   3.598   0.026  0.00  0.00    +0.053 C 
ATOM      4  C   UNL     1       1.270   2.154   0.002  0.00  0.00    -0.021 A 
ATOM      5  C   UNL     1      -0.022   1.778   0.012  0.00  0.00    +0.006 A 
ATOM      6  S   UNL     1       0.002  -0.004   0.002  0.00  0.00    -0.072 S 
ATOM      7  C   UNL     1       1.748  -0.244  -0.023  0.00  0.00    +0.118 A 
ATOM      8  C   UNL     1       2.255   1.071  -0.022  0.00  0.00    +0.076 A 
ATOM      9  C   UNL     1       3.679   1.227  -0.042  0.00  0.00    +0.261 A 
ATOM     10  O   UNL     1       4.211   2.324  -0.043  0.00  0.00    -0.267 OA
ATOM     11  N   UNL     1       4.397   0.079  -0.059  0.00  0.00    -0.294 N 
ATOM     12  H   UNL     1       5.496   0.117  -0.075  0.00  0.00    +0.172 HD
ATOM     13  C   UNL     1       3.822  -1.154  -0.058  0.00  0.00    +0.210 A 
ATOM     14  N   UNL     1       2.508  -1.333  -0.040  0.00  0.00    -0.208 NA
ATOM     15  N   UNL     1       4.636  -2.259  -0.075  0.00  0.00    -0.253 N 
ATOM     16  C   UNL     1      -1.276   2.610   0.019  0.00  0.00    +0.112 C 
ATOM     17  S   UNL     1      -0.832   4.315   0.474  0.00  0.00    -0.149 S 
ATOM     18  C   UNL     1       0.428   4.303  -1.964  0.00  0.00    +0.023 C 
ATOM     19  H   UNL     1       5.729  -2.137  -0.090  0.00  0.00    +0.169 HD
ENDROOT
BRANCH  15  20
ATOM     20  N   UNL     1       4.088  -3.511  -0.074  0.00  0.00    -0.254 NA
ATOM     21  H   UNL     1       4.891  -4.262  -0.090  0.00  0.00    +0.140 HD
ATOM     22  H   UNL     1       3.479  -3.644   0.832  0.00  0.00    +0.140 HD
ENDBRANCH  15  20
TORSDOF 1
