REMARK  Name = ZINC16033237
REMARK  8 active torsions:
REMARK  status: ('A' for Active; 'I' for Inactive)
REMARK    1  A    between atoms: C_1  and  C_2
REMARK    2  A    between atoms: C_12  and  C_19
REMARK    3  A    between atoms: C_15  and  C_18
REMARK    4  A    between atoms: N_21  and  C_22
REMARK    5  A    between atoms: C_24  and  O_30
REMARK    6  A    between atoms: C_27  and  O_28
REMARK    7  A    between atoms: O_28  and  C_29
REMARK    8  A    between atoms: O_30  and  C_31
REMARK                            x       y       z     vdW  Elec       q    Type
REMARK                         _______ _______ _______ _____ _____    ______ ____
ROOT
ATOM      1  C   UNL     1      -0.012   1.443  -0.029  0.00  0.00    +0.046 C 
ATOM      2  C   UNL     1       0.021  -0.063  -0.029  0.00  0.00    -0.028 A 
ATOM      3  C   UNL     1       0.038  -0.751  -1.225  0.00  0.00    +0.025 A 
ATOM      4  C   UNL     1       0.068  -2.134  -1.234  0.00  0.00    +0.042 A 
ATOM      5  C   UNL     1       0.081  -2.832  -0.038  0.00  0.00    +0.027 A 
ATOM      6  C   UNL     1       0.064  -2.148   1.157  0.00  0.00    +0.005 A 
ATOM      7  C   UNL     1       0.040  -0.757   1.179  0.00  0.00    +0.042 A 
ATOM      8  N   UNL     1       0.036  -0.295   2.497  0.00  0.00    -0.283 N 
ATOM      9  C   UNL     1       0.060  -1.303   3.389  0.00  0.00    +0.243 C 
ATOM     10  O   UNL     1       0.063  -1.199   4.597  0.00  0.00    -0.273 OA
ATOM     11  C   UNL     1       0.069  -2.585   2.597  0.00  0.00    +0.135 C 
ATOM     12  C   UNL     1       1.323  -3.406   2.920  0.00  0.00    +0.110 C 
ATOM     13  C   UNL     1       0.787  -4.755   3.456  0.00  0.00    +0.034 C 
ATOM     14  C   UNL     1      -0.647  -4.398   3.923  0.00  0.00    +0.053 C 
ATOM     15  N   UNL     1      -1.106  -3.417   2.904  0.00  0.00    -0.296 NA
ATOM     16  C   UNL     1      -1.540  -5.641   3.921  0.00  0.00    +0.024 C 
ATOM     17 CL   UNL     1       0.090  -2.994  -2.743  0.00  0.00    -0.084 Cl
ATOM     18  H   UNL     1       0.019   0.644   2.741  0.00  0.00    +0.155 HD
ATOM     19  H   UNL     1      -1.864  -2.855   3.259  0.00  0.00    +0.123 HD
ENDROOT
BRANCH  12  20
ATOM     20  C   UNL     1       2.147  -2.711   3.973  0.00  0.00    +0.223 C 
ATOM     21  O   UNL     1       1.901  -2.885   5.148  0.00  0.00    -0.275 OA
ATOM     22  N   UNL     1       3.158  -1.897   3.609  0.00  0.00    -0.282 N 
ATOM     23  H   UNL     1       3.302  -1.692   2.672  0.00  0.00    +0.155 HD
BRANCH  22  24
ATOM     24  C   UNL     1       4.000  -1.347   4.585  0.00  0.00    +0.079 A 
ATOM     25  C   UNL     1       4.307  -2.071   5.727  0.00  0.00    +0.072 A 
ATOM     26  C   UNL     1       5.140  -1.525   6.690  0.00  0.00    +0.122 A 
ATOM     27  C   UNL     1       5.668  -0.254   6.512  0.00  0.00    +0.049 A 
ATOM     28  C   UNL     1       5.363   0.470   5.375  0.00  0.00    +0.051 A 
ATOM     29  C   UNL     1       4.536  -0.073   4.406  0.00  0.00    +0.141 A 
BRANCH  29  30
ATOM     30  O   UNL     1       4.242   0.638   3.284  0.00  0.00    -0.493 OA
ATOM     31  C   UNL     1       4.826   1.937   3.168  0.00  0.00    +0.277 C 
ENDBRANCH  29  30
BRANCH  26  32
ATOM     32  O   UNL     1       5.441  -2.234   7.810  0.00  0.00    -0.495 OA
ATOM     33  C   UNL     1       6.306  -1.610   8.761  0.00  0.00    +0.277 C 
ENDBRANCH  26  32
ENDBRANCH  22  24
ENDBRANCH  12  20
TORSDOF 4
