REMARK  Name = ZINC12364067
REMARK  7 active torsions:
REMARK  status: ('A' for Active; 'I' for Inactive)
REMARK    1  A    between atoms: C_1  and  C_2
REMARK    2  A    between atoms: C_4  and  C_17
REMARK    3  A    between atoms: C_5  and  C_16
REMARK    4  A    between atoms: N_6  and  C_7
REMARK    5  A    between atoms: C_11  and  N_13
REMARK    6  A    between atoms: N_18  and  N_19
REMARK    7  A    between atoms: C_20  and  C_22
REMARK                            x       y       z     vdW  Elec       q    Type
REMARK                         _______ _______ _______ _____ _____    ______ ____
ROOT
ATOM      1  C   UNL     1       2.535   5.618  -1.152  0.00  0.00    +0.064 C 
ATOM      2  C   UNL     1       1.419   6.080  -0.250  0.00  0.00    +0.022 A 
ATOM      3  C   UNL     1       1.111   7.362   0.020  0.00  0.00    +0.032 A 
ATOM      4  C   UNL     1      -0.034   7.333   0.936  0.00  0.00    +0.016 A 
ATOM      5  C   UNL     1      -0.328   6.014   1.140  0.00  0.00    +0.030 A 
ATOM      6  N   UNL     1       0.555   5.266   0.425  0.00  0.00    -0.317 N 
ATOM      7  C   UNL     1      -1.438   5.481   2.008  0.00  0.00    +0.064 C 
ENDROOT
BRANCH   6   8
ATOM      8  C   UNL     1       0.573   3.865   0.385  0.00  0.00    +0.049 A 
ATOM      9  C   UNL     1      -0.495   3.172  -0.169  0.00  0.00    +0.026 A 
ATOM     10  C   UNL     1      -0.473   1.792  -0.212  0.00  0.00    +0.004 A 
ATOM     11  C   UNL     1       0.607   1.099   0.304  0.00  0.00    +0.033 A 
ATOM     12  C   UNL     1       1.672   1.787   0.856  0.00  0.00    +0.128 A 
ATOM     13  C   UNL     1       1.658   3.168   0.897  0.00  0.00    +0.058 A 
BRANCH  12  14
ATOM     14  N   UNL     1       2.829   1.043   1.403  0.00  0.00    +0.056 N 
ATOM     15  O   UNL     1       2.842  -0.175   1.367  0.00  0.00    -0.126 OA
ATOM     16  O   UNL     1       3.768   1.647   1.889  0.00  0.00    -0.126 OA
ENDBRANCH  12  14
ENDBRANCH   6   8
BRANCH   4  17
ATOM     17  C   UNL     1      -0.731   8.494   1.516  0.00  0.00    +0.140 C 
ATOM     18  N   UNL     1      -0.481   9.689   1.074  0.00  0.00    -0.187 NA
BRANCH  18  19
ATOM     19  N   UNL     1       0.099   9.861  -0.190  0.00  0.00    -0.203 N 
ATOM     20  C   UNL     1       0.481  11.089  -0.595  0.00  0.00    +0.263 C 
ATOM     21  O   UNL     1       0.244  12.059   0.100  0.00  0.00    -0.268 OA
ATOM     22  H   UNL     1       0.225   9.097  -0.774  0.00  0.00    +0.178 HD
BRANCH  20  23
ATOM     23  C   UNL     1       1.188  11.256  -1.884  0.00  0.00    +0.041 A 
ATOM     24  C   UNL     1       1.375  10.172  -2.748  0.00  0.00    +0.033 A 
ATOM     25  C   UNL     1       2.036  10.374  -3.943  0.00  0.00    +0.111 A 
ATOM     26  N   UNL     1       2.498  11.566  -4.269  0.00  0.00    -0.263 NA
ATOM     27  C   UNL     1       2.348  12.613  -3.482  0.00  0.00    +0.111 A 
ATOM     28  C   UNL     1       1.694  12.502  -2.270  0.00  0.00    +0.033 A 
ENDBRANCH  20  23
ENDBRANCH  18  19
ENDBRANCH   4  17
TORSDOF 5
