REMARK  Name = ZINC38563696
REMARK  11 active torsions:
REMARK  status: ('A' for Active; 'I' for Inactive)
REMARK    1  A    between atoms: C_1  and  C_2
REMARK    2  A    between atoms: C_2  and  O_3
REMARK    3  A    between atoms: O_3  and  C_4
REMARK    4  A    between atoms: C_7  and  C_12
REMARK    5  A    between atoms: C_9  and  O_10
REMARK    6  A    between atoms: O_10  and  C_11
REMARK    7  A    between atoms: C_14  and  C_26
REMARK    8  A    between atoms: N_28  and  C_29
REMARK    9  A    between atoms: C_29  and  C_30
REMARK   10  A    between atoms: C_30  and  C_32
REMARK   11  A    between atoms: C_30  and  O_38
REMARK                            x       y       z     vdW  Elec       q    Type
REMARK                         _______ _______ _______ _____ _____    ______ ____
ROOT
ATOM      1  C   UNL     1      -1.992  -6.059  -0.013  0.00  0.00    +0.076 C 
ATOM      2  N   UNL     1      -3.191  -6.592   0.084  0.00  0.00    -0.244 NA
ATOM      3  C   UNL     1      -3.426  -7.904   0.227  0.00  0.00    +0.126 C 
ATOM      4  C   UNL     1      -2.404  -8.790   0.576  0.00  0.00    +0.039 C 
ATOM      5  C   UNL     1      -1.118  -8.272   0.563  0.00  0.00    -0.008 C 
ATOM      6  C   UNL     1       0.076  -8.655   1.116  0.00  0.00    +0.004 A 
ATOM      7  C   UNL     1       0.503  -9.869   1.702  0.00  0.00    +0.010 A 
ATOM      8  C   UNL     1       1.768  -9.896   2.211  0.00  0.00    +0.001 A 
ATOM      9  C   UNL     1       2.633  -8.803   2.177  0.00  0.00    +0.002 A 
ATOM     10  C   UNL     1       2.309  -7.606   1.613  0.00  0.00    +0.026 A 
ATOM     11  C   UNL     1       1.012  -7.498   1.038  0.00  0.00    +0.044 A 
ATOM     12  N   UNL     1       0.464  -6.502   0.385  0.00  0.00    -0.372 N 
ATOM     13  C   UNL     1      -0.810  -6.954  -0.136  0.00  0.00    +0.160 C 
ATOM     14  H   UNL     1       0.845  -5.618   0.268  0.00  0.00    +0.161 HD
ENDROOT
BRANCH   1  18
ATOM     15  C   UNL     1      -1.500  -1.847   0.004  0.00  0.00    +0.162 A 
ATOM     16  C   UNL     1      -0.555  -2.653  -0.620  0.00  0.00    +0.050 A 
ATOM     17  C   UNL     1      -0.710  -4.021  -0.628  0.00  0.00    +0.013 A 
ATOM     18  C   UNL     1      -1.823  -4.603  -0.006  0.00  0.00    +0.002 A 
ATOM     19  C   UNL     1      -2.775  -3.788   0.623  0.00  0.00    +0.059 A 
ATOM     20  C   UNL     1      -2.608  -2.418   0.630  0.00  0.00    +0.162 A 
BRANCH  20  21
ATOM     21  O   UNL     1      -3.527  -1.625   1.243  0.00  0.00    -0.491 OA
ATOM     22  C   UNL     1      -4.636  -2.277   1.864  0.00  0.00    +0.277 C 
ENDBRANCH  20  21
BRANCH  15  23
ATOM     23  O   UNL     1      -1.341  -0.498   0.007  0.00  0.00    -0.489 OA
BRANCH  23  25
ATOM     24  C   UNL     1      -0.177   1.547  -0.543  0.00  0.00    +0.048 C 
ATOM     25  C   UNL     1      -0.184   0.021  -0.652  0.00  0.00    +0.226 C 
ENDBRANCH  23  25
ENDBRANCH  15  23
ENDBRANCH   1  18
BRANCH   3  26
ATOM     26  C   UNL     1      -4.795  -8.423   0.010  0.00  0.00    +0.262 C 
ATOM     27  O   UNL     1      -5.021  -9.611   0.137  0.00  0.00    -0.269 OA
ATOM     28  N   UNL     1      -5.790  -7.580  -0.327  0.00  0.00    -0.307 N 
ATOM     29  H   UNL     1      -5.609  -6.632  -0.428  0.00  0.00    +0.149 HD
BRANCH  28  30
ATOM     30  C   UNL     1      -7.145  -8.094  -0.541  0.00  0.00    +0.140 C 
BRANCH  30  31
ATOM     31  C   UNL     1      -8.077  -6.938  -0.910  0.00  0.00    +0.162 C 
BRANCH  31  32
ATOM     32  C   UNL     1      -9.492  -7.446  -1.010  0.00  0.00    -0.018 A 
ATOM     33  C   UNL     1      -9.910  -8.108  -2.149  0.00  0.00    +0.006 A 
ATOM     34  C   UNL     1     -11.208  -8.574  -2.241  0.00  0.00    +0.000 A 
ATOM     35  C   UNL     1     -12.088  -8.378  -1.194  0.00  0.00    +0.000 A 
ATOM     36  C   UNL     1     -11.670  -7.717  -0.054  0.00  0.00    +0.000 A 
ATOM     37  C   UNL     1     -10.371  -7.255   0.040  0.00  0.00    +0.006 A 
ENDBRANCH  31  32
BRANCH  31  38
ATOM     38  O   UNL     1      -7.678  -6.388  -2.167  0.00  0.00    -0.386 OA
ATOM     39  H   UNL     1      -7.704  -7.020  -2.899  0.00  0.00    +0.210 HD
ENDBRANCH  31  38
ENDBRANCH  30  31
ENDBRANCH  28  30
ENDBRANCH   3  26
TORSDOF 9
