REMARK  Name = ZINC66763766
REMARK  2 active torsions:
REMARK  status: ('A' for Active; 'I' for Inactive)
REMARK    1  A    between atoms: C_4  and  C_7
REMARK    2  A    between atoms: C_15  and  C_17
REMARK                            x       y       z     vdW  Elec       q    Type
REMARK                         _______ _______ _______ _____ _____    ______ ____
ROOT
ATOM      1  C   UNL     1       3.015  -0.941   0.311  0.00  0.00    +0.021 C 
ATOM      2  C   UNL     1       2.967  -1.738  -0.990  0.00  0.00    +0.010 C 
ATOM      3  C   UNL     1       4.327  -1.711  -1.643  0.00  0.00    +0.020 C 
ATOM      4  C   UNL     1       5.156  -2.925  -1.188  0.00  0.00    +0.108 C 
ATOM      5  N   UNL     1       4.982  -3.211   0.250  0.00  0.00    -0.298 N 
ATOM      6  C   UNL     1       4.949  -2.171   1.254  0.00  0.00    +0.108 C 
ATOM      7  C   UNL     1       3.487  -1.710   1.472  0.00  0.00    +0.027 C 
ATOM      8  C   UNL     1       4.849  -4.493   0.642  0.00  0.00    +0.247 C 
ATOM      9  O   UNL     1       4.773  -4.762   1.826  0.00  0.00    -0.270 OA
ENDROOT
BRANCH   8  10
ATOM     10  C   UNL     1       4.795  -5.571  -0.364  0.00  0.00    +0.039 A 
ATOM     11  C   UNL     1       5.757  -5.631  -1.378  0.00  0.00    +0.015 A 
ATOM     12  C   UNL     1       5.709  -6.636  -2.317  0.00  0.00    +0.028 A 
ATOM     13  C   UNL     1       4.704  -7.594  -2.262  0.00  0.00    +0.067 A 
ATOM     14  C   UNL     1       3.739  -7.540  -1.251  0.00  0.00    +0.068 A 
ATOM     15  C   UNL     1       3.787  -6.535  -0.302  0.00  0.00    +0.041 A 
ATOM     16  N   UNL     1       2.880  -8.617  -1.457  0.00  0.00    -0.306 N 
ATOM     17  H   UNL     1       2.108  -8.842  -0.914  0.00  0.00    +0.170 HD
ATOM     18  C   UNL     1       3.304  -9.293  -2.542  0.00  0.00    +0.325 A 
ATOM     19  O   UNL     1       2.775 -10.290  -2.997  0.00  0.00    -0.247 OA
ATOM     20  N   UNL     1       4.401  -8.699  -3.047  0.00  0.00    -0.306 N 
ATOM     21  H   UNL     1       4.896  -8.993  -3.827  0.00  0.00    +0.170 HD
ENDBRANCH   8  10
BRANCH   1  25
ATOM     22  C   UNL     1      -0.911   0.518   1.151  0.00  0.00    +0.000 A 
ATOM     23  C   UNL     1       0.125   1.407   0.931  0.00  0.00    +0.000 A 
ATOM     24  C   UNL     1       1.395   0.935   0.659  0.00  0.00    +0.004 A 
ATOM     25  C   UNL     1       1.630  -0.426   0.608  0.00  0.00    -0.044 A 
ATOM     26  C   UNL     1       0.595  -1.315   0.829  0.00  0.00    +0.004 A 
ATOM     27  C   UNL     1      -0.676  -0.843   1.100  0.00  0.00    +0.000 A 
ENDBRANCH   1  25
TORSDOF 2
