REMARK  Name = ZINC64082853
REMARK  9 active torsions:
REMARK  status: ('A' for Active; 'I' for Inactive)
REMARK    1  A    between atoms: C_1  and  O_2
REMARK    2  A    between atoms: O_2  and  C_3
REMARK    3  A    between atoms: C_6  and  N_21
REMARK    4  A    between atoms: C_7  and  C_9
REMARK    5  A    between atoms: N_11  and  N_12
REMARK    6  A    between atoms: N_12  and  C_13
REMARK    7  A    between atoms: C_13  and  N_15
REMARK    8  A    between atoms: N_15  and  C_16
REMARK    9  A    between atoms: C_16  and  C_17
REMARK                            x       y       z     vdW  Elec       q    Type
REMARK                         _______ _______ _______ _____ _____    ______ ____
ROOT
ATOM      1  C   UNL     1      -2.582  -4.142   0.098  0.00  0.00    +0.262 C 
ATOM      2  O   UNL     1      -3.660  -4.696   0.016  0.00  0.00    -0.269 OA
ATOM      3  N   UNL     1      -1.457  -4.873   0.227  0.00  0.00    -0.231 N 
ATOM      4  H   UNL     1      -0.596  -4.431   0.292  0.00  0.00    +0.173 HD
ENDROOT
BRANCH   1   9
ATOM      5  C   UNL     1      -1.808  -0.587   1.046  0.00  0.00    +0.121 A 
ATOM      6  C   UNL     1      -2.359   0.102  -0.026  0.00  0.00    +0.048 A 
ATOM      7  C   UNL     1      -2.979  -0.587  -1.052  0.00  0.00    +0.037 A 
ATOM      8  C   UNL     1      -3.054  -1.965  -1.016  0.00  0.00    +0.139 A 
ATOM      9  C   UNL     1      -2.503  -2.666   0.057  0.00  0.00    +0.072 A 
ATOM     10  C   UNL     1      -1.873  -1.970   1.089  0.00  0.00    +0.061 A 
BRANCH   8  11
ATOM     11  N   UNL     1      -3.720  -2.699  -2.116  0.00  0.00    +0.057 N 
ATOM     12  O   UNL     1      -4.300  -2.090  -2.985  0.00  0.00    -0.126 OA
ATOM     13  O   UNL     1      -3.683  -3.907  -2.146  0.00  0.00    -0.126 OA
ENDBRANCH   8  11
BRANCH   5  15
ATOM     14  C   UNL     1      -1.170   1.520   1.944  0.00  0.00    +0.277 C 
ATOM     15  O   UNL     1      -1.200   0.096   2.052  0.00  0.00    -0.495 OA
ENDBRANCH   5  15
ENDBRANCH   1   9
BRANCH   3  16
ATOM     16  N   UNL     1      -1.531  -6.272   0.266  0.00  0.00    -0.246 N 
ATOM     17  H   UNL     1      -2.392  -6.714   0.200  0.00  0.00    +0.172 HD
BRANCH  16  18
ATOM     18  C   UNL     1      -0.407  -7.003   0.394  0.00  0.00    +0.147 C 
ATOM     19  S   UNL     1      -0.498  -8.712   0.442  0.00  0.00    -0.017 S 
BRANCH  18  20
ATOM     20  N   UNL     1       0.790  -6.389   0.486  0.00  0.00    -0.317 N 
ATOM     21  H   UNL     1       0.841  -5.421   0.459  0.00  0.00    +0.148 HD
BRANCH  20  22
ATOM     22  C   UNL     1       2.012  -7.184   0.625  0.00  0.00    +0.216 C 
BRANCH  22  23
ATOM     23  C   UNL     1       3.221  -6.251   0.708  0.00  0.00    +0.405 C 
ATOM     24  F   UNL     1       3.085  -5.407   1.815  0.00  0.00    -0.169 F 
ATOM     25  F   UNL     1       4.389  -7.010   0.841  0.00  0.00    -0.169 F 
ATOM     26  F   UNL     1       3.296  -5.481  -0.459  0.00  0.00    -0.169 F 
ENDBRANCH  22  23
ENDBRANCH  20  22
ENDBRANCH  18  20
ENDBRANCH  16  18
ENDBRANCH   3  16
TORSDOF 8
