REMARK  Name = ZINC67455491
REMARK  10 active torsions:
REMARK  status: ('A' for Active; 'I' for Inactive)
REMARK    1  A    between atoms: C_1  and  C_2
REMARK    2  A    between atoms: C_2  and  C_3
REMARK    3  A    between atoms: C_3  and  C_5
REMARK    4  A    between atoms: C_3  and  N_8
REMARK    5  A    between atoms: C_5  and  C_6
REMARK    6  A    between atoms: C_5  and  C_7
REMARK    7  A    between atoms: C_9  and  C_11
REMARK    8  A    between atoms: N_13  and  C_14
REMARK    9  A    between atoms: C_17  and  C_23
REMARK   10  A    between atoms: C_18  and  N_20
REMARK                            x       y       z     vdW  Elec       q    Type
REMARK                         _______ _______ _______ _____ _____    ______ ____
ROOT
ATOM      1  C   UNL     1      -0.080   1.175  -4.777  0.00  0.00    +0.303 C 
ATOM      2  O   UNL     1      -0.856   0.401  -5.298  0.00  0.00    -0.265 OA
ATOM      3  N   UNL     1      -0.114   2.483  -5.101  0.00  0.00    -0.278 N 
ATOM      4  H   UNL     1       0.460   3.112  -4.636  0.00  0.00    +0.155 HD
ENDROOT
BRANCH   3   5
ATOM      5  C   UNL     1      -0.975   2.933  -6.104  0.00  0.00    +0.036 A 
ATOM      6  C   UNL     1      -0.589   3.973  -6.940  0.00  0.00    +0.024 A 
ATOM      7  C   UNL     1      -1.442   4.415  -7.931  0.00  0.00    +0.007 A 
ATOM      8  C   UNL     1      -2.682   3.822  -8.093  0.00  0.00    -0.020 A 
ATOM      9  C   UNL     1      -3.070   2.786  -7.263  0.00  0.00    +0.131 A 
ATOM     10  C   UNL     1      -2.219   2.336  -6.273  0.00  0.00    +0.056 A 
ATOM     11  C   UNL     1      -3.611   4.307  -9.175  0.00  0.00    +0.046 C 
BRANCH   9  12
ATOM     12  N   UNL     1      -4.397   2.155  -7.440  0.00  0.00    +0.057 N 
ATOM     13  O   UNL     1      -5.031   1.799  -6.474  0.00  0.00    -0.126 OA
ATOM     14  O   UNL     1      -4.847   1.996  -8.551  0.00  0.00    -0.126 OA
ENDBRANCH   9  12
ENDBRANCH   3   5
BRANCH   1  16
ATOM     15  N   UNL     1       0.947  -0.630  -3.455  0.00  0.00    -0.304 N 
ATOM     16  C   UNL     1       0.913   0.678  -3.778  0.00  0.00    +0.300 C 
ATOM     17  O   UNL     1       1.689   1.452  -3.257  0.00  0.00    -0.265 OA
ATOM     18  H   UNL     1       0.327  -1.249  -3.872  0.00  0.00    +0.149 HD
BRANCH  15  19
ATOM     19  C   UNL     1       1.921  -1.117  -2.475  0.00  0.00    +0.076 C 
BRANCH  19  20
ATOM     20  C   UNL     1       2.197  -2.601  -2.725  0.00  0.00    +0.003 C 
ATOM     21  C   UNL     1       2.758  -2.785  -4.137  0.00  0.00    +0.009 C 
ATOM     22  C   UNL     1       3.214  -3.110  -1.702  0.00  0.00    +0.009 C 
ENDBRANCH  19  20
BRANCH  19  24
ATOM     23  C   UNL     1       1.200   0.559  -0.768  0.00  0.00    +0.006 C 
ATOM     24  C   UNL     1       1.360  -0.934  -1.064  0.00  0.00    +0.019 C 
ENDBRANCH  19  24
ENDBRANCH  15  19
ENDBRANCH   1  16
TORSDOF 6
