REMARK  Name = ZINC59515550
REMARK  7 active torsions:
REMARK  status: ('A' for Active; 'I' for Inactive)
REMARK    1  A    between atoms: C_1  and  C_2
REMARK    2  A    between atoms: C_7  and  N_8
REMARK    3  A    between atoms: C_9  and  C_11
REMARK    4  A    between atoms: N_13  and  N_14
REMARK    5  A    between atoms: C_15  and  C_16
REMARK    6  A    between atoms: C_21  and  O_22
REMARK    7  A    between atoms: O_22  and  C_23
REMARK                            x       y       z     vdW  Elec       q    Type
REMARK                         _______ _______ _______ _____ _____    ______ ____
ROOT
ATOM      1  C   UNL     1      -0.165   0.044   4.867  0.00  0.00    +0.318 C 
ATOM      2  O   UNL     1      -0.181   1.259   4.872  0.00  0.00    -0.263 OA
ATOM      3  N   UNL     1      -0.247  -0.635   6.028  0.00  0.00    -0.199 N 
ATOM      4  H   UNL     1      -0.234  -1.605   6.024  0.00  0.00    +0.178 HD
ENDROOT
BRANCH   1   6
ATOM      5  N   UNL     1       0.026  -0.015   2.416  0.00  0.00    -0.277 N 
ATOM      6  C   UNL     1      -0.056  -0.695   3.577  0.00  0.00    +0.305 C 
ATOM      7  O   UNL     1      -0.040  -1.909   3.572  0.00  0.00    -0.265 OA
ATOM      8  H   UNL     1       0.079   0.953   2.423  0.00  0.00    +0.155 HD
BRANCH   5  15
ATOM      9  C   UNL     1      -1.266   1.183   0.182  0.00  0.00    +0.045 C 
ATOM     10  C   UNL     1      -0.585  -0.158   0.085  0.00  0.00    -0.029 A 
ATOM     11  C   UNL     1      -0.571  -0.840  -1.116  0.00  0.00    +0.006 A 
ATOM     12  C   UNL     1       0.053  -2.070  -1.207  0.00  0.00    +0.020 A 
ATOM     13  C   UNL     1       0.666  -2.623  -0.096  0.00  0.00    +0.043 A 
ATOM     14  C   UNL     1       0.655  -1.945   1.109  0.00  0.00    +0.043 A 
ATOM     15  C   UNL     1       0.033  -0.706   1.201  0.00  0.00    +0.038 A 
ATOM     16 CL   UNL     1       1.449  -4.167  -0.215  0.00  0.00    -0.083 Cl
ENDBRANCH   5  15
ENDBRANCH   1   6
BRANCH   3  17
ATOM     17  N   UNL     1      -0.350   0.059   7.240  0.00  0.00    -0.187 NA
ATOM     18  C   UNL     1      -0.428  -0.596   8.360  0.00  0.00    +0.142 C 
BRANCH  18  19
ATOM     19  C   UNL     1      -0.537   0.134   9.634  0.00  0.00    +0.037 A 
ATOM     20  C   UNL     1      -0.616  -0.566  10.841  0.00  0.00    +0.028 A 
ATOM     21  C   UNL     1      -0.716   0.124  12.031  0.00  0.00    +0.019 A 
ATOM     22  C   UNL     1      -0.740   1.510  12.035  0.00  0.00    +0.019 A 
ATOM     23  C   UNL     1      -0.662   2.213  10.848  0.00  0.00    +0.047 A 
ATOM     24  C   UNL     1      -0.555   1.536   9.645  0.00  0.00    +0.129 A 
ATOM     25 BR   UNL     1      -0.824  -0.824  13.664  0.00  0.00    -0.050 Br
BRANCH  24  26
ATOM     26  O   UNL     1      -0.474   2.228   8.478  0.00  0.00    -0.494 OA
ATOM     27  C   UNL     1      -0.499   3.654   8.566  0.00  0.00    +0.277 C 
ENDBRANCH  24  26
ENDBRANCH  18  19
ENDBRANCH   3  17
TORSDOF 5
