REMARK  Name = ZINC45793585
REMARK  3 active torsions:
REMARK  status: ('A' for Active; 'I' for Inactive)
REMARK    1  A    between atoms: C_1  and  C_2
REMARK    2  A    between atoms: C_2  and  C_11
REMARK    3  A    between atoms: C_5  and  C_6
REMARK                            x       y       z     vdW  Elec       q    Type
REMARK                         _______ _______ _______ _____ _____    ______ ____
ROOT
ATOM      1  C   UNL     1      -0.019   1.526   0.010  0.00  0.00    +0.049 C 
ATOM      2  C   UNL     1       0.002  -0.004   0.002  0.00  0.00    +0.122 C 
ATOM      3  C   UNL     1      -1.416  -0.534   0.040  0.00  0.00    +0.174 C 
ATOM      4  O   UNL     1      -1.911  -1.061  -0.927  0.00  0.00    -0.294 OA
ATOM      5  C   UNL     1      -2.192  -0.380   1.332  0.00  0.00    +0.123 C 
ATOM      6  C   UNL     1      -1.300  -0.867   2.481  0.00  0.00    +0.046 C 
ATOM      7  C   UNL     1       0.054  -0.159   2.396  0.00  0.00    +0.162 C 
ATOM      8  O   UNL     1       0.694  -0.483   1.160  0.00  0.00    -0.366 OA
ATOM      9  C   UNL     1       0.706  -0.503  -1.262  0.00  0.00    +0.049 C 
ENDROOT
BRANCH   5  10
ATOM     10  C   UNL     1      -3.448  -1.212   1.273  0.00  0.00    +0.234 C 
ATOM     11  O   UNL     1      -4.528  -0.682   1.377  0.00  0.00    -0.300 OA
ENDBRANCH   5  10
TORSDOF 1
