REMARK  Name = ZINC39940569
REMARK  10 active torsions:
REMARK  status: ('A' for Active; 'I' for Inactive)
REMARK    1  A    between atoms: C_1  and  C_2
REMARK    2  A    between atoms: C_2  and  C_3
REMARK    3  A    between atoms: C_2  and  C_4
REMARK    4  A    between atoms: C_2  and  O_5
REMARK    5  A    between atoms: O_5  and  C_6
REMARK    6  A    between atoms: C_15  and  C_27
REMARK    7  A    between atoms: C_17  and  C_23
REMARK    8  A    between atoms: C_17  and  C_25
REMARK    9  A    between atoms: C_18  and  N_22
REMARK   10  A    between atoms: C_19  and  C_20
REMARK                            x       y       z     vdW  Elec       q    Type
REMARK                         _______ _______ _______ _____ _____    ______ ____
ROOT
ATOM      1  C   UNL     1       2.059  -0.261  -1.387  0.00  0.00    +0.404 C 
ATOM      2  O   UNL     1       2.580   0.432  -0.535  0.00  0.00    -0.226 OA
ATOM      3  N   UNL     1       2.749  -0.598  -2.495  0.00  0.00    -0.263 N 
ATOM      4  C   UNL     1       2.146  -1.432  -3.551  0.00  0.00    +0.138 C 
ATOM      5  C   UNL     1       2.244  -0.653  -4.839  0.00  0.00    -0.003 C 
ATOM      6  C   UNL     1       3.205   0.228  -5.032  0.00  0.00    -0.026 C 
ATOM      7  C   UNL     1       4.294   0.523  -4.044  0.00  0.00    +0.048 C 
ATOM      8  C   UNL     1       4.128  -0.145  -2.704  0.00  0.00    +0.120 C 
ATOM      9  C   UNL     1       4.429   2.041  -3.915  0.00  0.00    +0.069 C 
ATOM     10  C   UNL     1       4.864   2.615  -5.264  0.00  0.00    +0.188 C 
ATOM     11  C   UNL     1       3.998   2.118  -6.383  0.00  0.00    +0.054 C 
ATOM     12  C   UNL     1       3.228   1.004  -6.301  0.00  0.00    +0.074 C 
ENDROOT
BRANCH   9  13
ATOM     13  C   UNL     1       5.461   2.369  -2.868  0.00  0.00    -0.022 A 
ATOM     14  C   UNL     1       6.718   1.799  -2.933  0.00  0.00    +0.005 A 
ATOM     15  C   UNL     1       7.665   2.100  -1.972  0.00  0.00    +0.000 A 
ATOM     16  C   UNL     1       7.355   2.972  -0.945  0.00  0.00    +0.001 A 
ATOM     17  C   UNL     1       6.099   3.543  -0.878  0.00  0.00    +0.020 A 
ATOM     18  C   UNL     1       5.152   3.246  -1.843  0.00  0.00    +0.045 A 
ATOM     19 CL   UNL     1       3.575   3.969  -1.764  0.00  0.00    -0.083 Cl
ENDBRANCH   9  13
BRANCH  11  20
ATOM     20  N   UNL     1       3.984   2.828  -7.551  0.00  0.00    -0.358 N 
ATOM     21  H   UNL     1       4.524   3.629  -7.638  0.00  0.00    +0.142 HD
ATOM     22  H   UNL     1       3.434   2.531  -8.292  0.00  0.00    +0.142 HD
ENDBRANCH  11  20
BRANCH  12  23
ATOM     23  C   UNL     1       2.447   0.580  -7.424  0.00  0.00    +0.101 C 
ATOM     24  N   UNL     1       1.827   0.243  -8.314  0.00  0.00    -0.191 NA
ENDBRANCH  12  23
BRANCH  10  25
ATOM     25  C   UNL     1       4.782   4.084  -5.210  0.00  0.00    +0.091 C 
ATOM     26  N   UNL     1       4.719   5.217  -5.168  0.00  0.00    -0.194 NA
ENDBRANCH  10  25
BRANCH  10  27
ATOM     27  C   UNL     1       6.258   2.223  -5.526  0.00  0.00    +0.091 C 
ATOM     28  N   UNL     1       7.334   1.920  -5.728  0.00  0.00    -0.194 NA
ENDBRANCH  10  27
BRANCH   1  29
ATOM     29  O   UNL     1       0.794  -0.692  -1.224  0.00  0.00    -0.445 OA
BRANCH  29  31
ATOM     30  C   UNL     1       0.049   1.231   0.036  0.00  0.00    +0.055 C 
ATOM     31  C   UNL     1       0.124  -0.296  -0.026  0.00  0.00    +0.107 C 
ATOM     32  C   UNL     1       0.896  -0.819   1.187  0.00  0.00    +0.055 C 
ATOM     33  C   UNL     1      -1.292  -0.877  -0.019  0.00  0.00    +0.055 C 
ENDBRANCH  29  31
ENDBRANCH   1  29
TORSDOF 7
