REMARK  Name = ZINC21706625
REMARK  10 active torsions:
REMARK  status: ('A' for Active; 'I' for Inactive)
REMARK    1  A    between atoms: C_1  and  C_2
REMARK    2  A    between atoms: C_5  and  N_9
REMARK    3  A    between atoms: C_10  and  C_12
REMARK    4  A    between atoms: C_12  and  N_13
REMARK    5  A    between atoms: C_16  and  C_20
REMARK    6  A    between atoms: C_16  and  C_21
REMARK    7  A    between atoms: C_24  and  C_27
REMARK    8  A    between atoms: C_27  and  C_28
REMARK    9  A    between atoms: C_27  and  C_29
REMARK   10  A    between atoms: C_27  and  C_30
REMARK                            x       y       z     vdW  Elec       q    Type
REMARK                         _______ _______ _______ _____ _____    ______ ____
ROOT
ATOM      1  N   UNL     1       0.334   2.751  -1.862  0.00  0.00    -0.215 N 
ATOM      2  C   UNL     1      -0.641   2.020  -1.285  0.00  0.00    +0.251 C 
ATOM      3  O   UNL     1      -1.760   1.828  -1.709  0.00  0.00    -0.272 OA
ATOM      4  C   UNL     1      -0.046   1.488   0.004  0.00  0.00    +0.135 C 
ATOM      5  N   UNL     1       1.323   2.031   0.003  0.00  0.00    -0.281 N 
ATOM      6  C   UNL     1       1.450   2.754  -1.125  0.00  0.00    +0.310 C 
ATOM      7  O   UNL     1       2.466   3.343  -1.439  0.00  0.00    -0.252 OA
ATOM      8  C   UNL     1      -0.828   2.001   1.214  0.00  0.00    +0.047 C 
ATOM      9  H   UNL     1       2.005   1.804   0.836  0.00  0.00    +0.152 HD
ENDROOT
BRANCH   4  10
ATOM     10  C   UNL     1      -0.019  -0.019  -0.008  0.00  0.00    -0.015 A 
ATOM     11  C   UNL     1      -1.032  -0.724  -0.630  0.00  0.00    +0.006 A 
ATOM     12  C   UNL     1      -1.005  -2.106  -0.644  0.00  0.00    +0.004 A 
ATOM     13  C   UNL     1       0.031  -2.783  -0.028  0.00  0.00    -0.042 A 
ATOM     14  C   UNL     1       1.042  -2.078   0.598  0.00  0.00    +0.004 A 
ATOM     15  C   UNL     1       1.017  -0.696   0.608  0.00  0.00    +0.006 A 
BRANCH  13  16
ATOM     16  C   UNL     1       0.058  -4.290  -0.040  0.00  0.00    -0.013 C 
ATOM     17  C   UNL     1       0.036  -4.811   1.399  0.00  0.00    +0.015 C 
ATOM     18  C   UNL     1      -1.166  -4.816  -0.791  0.00  0.00    +0.015 C 
ATOM     19  C   UNL     1       1.331  -4.772  -0.737  0.00  0.00    +0.015 C 
ENDBRANCH  13  16
ENDBRANCH   4  10
BRANCH   1  20
ATOM     20  C   UNL     1       0.189   3.454  -3.139  0.00  0.00    +0.214 C 
BRANCH  20  22
ATOM     21  N   UNL     1       0.546   2.975  -5.539  0.00  0.00    -0.283 N 
ATOM     22  C   UNL     1       0.597   2.539  -4.265  0.00  0.00    +0.235 C 
ATOM     23  O   UNL     1       0.973   1.411  -4.024  0.00  0.00    -0.274 OA
ATOM     24  H   UNL     1       0.137   3.971  -5.764  0.00  0.00    +0.155 HD
BRANCH  21  29
ATOM     25  C   UNL     1       2.440  -0.329  -9.745  0.00  0.00    +0.044 C 
ATOM     26  C   UNL     1       1.937   0.549  -8.629  0.00  0.00    -0.049 A 
ATOM     27  C   UNL     1       1.313  -0.018  -7.533  0.00  0.00    +0.005 A 
ATOM     28  C   UNL     1       0.856   0.783  -6.505  0.00  0.00    +0.025 A 
ATOM     29  C   UNL     1       1.013   2.160  -6.577  0.00  0.00    +0.052 A 
ATOM     30  C   UNL     1       1.641   2.728  -7.679  0.00  0.00    +0.062 A 
ATOM     31  C   UNL     1       2.101   1.920  -8.702  0.00  0.00    +0.025 A 
ATOM     32 CL   UNL     1       1.847   4.449  -7.772  0.00  0.00    -0.082 Cl
ENDBRANCH  21  29
ENDBRANCH  20  22
ENDBRANCH   1  20
TORSDOF 5
