REMARK  Name = ZINC39464309
REMARK  6 active torsions:
REMARK  status: ('A' for Active; 'I' for Inactive)
REMARK    1  A    between atoms: C_1  and  O_2
REMARK    2  A    between atoms: O_2  and  C_3
REMARK    3  A    between atoms: C_8  and  O_9
REMARK    4  A    between atoms: O_9  and  C_10
REMARK    5  A    between atoms: P_15  and  C_21
REMARK    6  A    between atoms: C_26  and  O_27
REMARK                            x       y       z     vdW  Elec       q    Type
REMARK                         _______ _______ _______ _____ _____    ______ ____
ROOT
ATOM      1  C   UNL     1       0.626  -0.619   1.042  0.00  0.00    +0.162 A 
ATOM      2  C   UNL     1       1.202   0.134   2.051  0.00  0.00    +0.053 A 
ATOM      3  C   UNL     1       1.840  -0.490   3.113  0.00  0.00    -0.038 A 
ATOM      4  C   UNL     1       1.904  -1.865   3.170  0.00  0.00    -0.020 A 
ATOM      5  C   UNL     1       1.326  -2.624   2.160  0.00  0.00    +0.055 A 
ATOM      6  C   UNL     1       0.684  -2.008   1.101  0.00  0.00    +0.162 A 
ATOM      7  C   UNL     1       2.587  -2.589   4.301  0.00  0.00    +0.130 C 
ATOM      8  C   UNL     1       1.727  -3.784   4.720  0.00  0.00    +0.194 C 
ATOM      9  O   UNL     1       2.441  -4.538   5.720  0.00  0.00    -0.311 OA
ATOM     10  P   UNL     1       3.060  -3.737   6.993  0.00  0.00    +0.318 P 
ATOM     11  O   UNL     1       2.009  -3.496   8.006  0.00  0.00    -0.266 OA
ATOM     12  N   UNL     1       3.612  -2.301   6.388  0.00  0.00    -0.175 NA
ATOM     13  N   UNL     1       2.811  -1.698   5.439  0.00  0.00    -0.225 NA
ATOM     14  C   UNL     1       3.438  -0.440   5.007  0.00  0.00    +0.108 C 
ATOM     15  C   UNL     1       2.451   0.371   4.189  0.00  0.00    +0.052 C 
ATOM     16  H   UNL     1       4.444  -1.906   6.692  0.00  0.00    +0.151 HD
ENDROOT
BRANCH  10  17
ATOM     17  C   UNL     1       4.427  -4.681   7.722  0.00  0.00    +0.094 A 
ATOM     18  C   UNL     1       5.720  -4.480   7.278  0.00  0.00    +0.018 A 
ATOM     19  C   UNL     1       6.762  -5.199   7.833  0.00  0.00    +0.001 A 
ATOM     20  C   UNL     1       6.514  -6.120   8.834  0.00  0.00    +0.004 A 
ATOM     21  C   UNL     1       5.223  -6.324   9.282  0.00  0.00    +0.046 A 
ATOM     22  C   UNL     1       4.176  -5.600   8.730  0.00  0.00    +0.131 A 
BRANCH  22  23
ATOM     23  O   UNL     1       2.906  -5.795   9.172  0.00  0.00    -0.506 OA
ATOM     24  H   UNL     1       2.424  -6.484   8.694  0.00  0.00    +0.292 HD
ENDBRANCH  22  23
ENDBRANCH  10  17
BRANCH   1  26
ATOM     25  C   UNL     1      -0.017   1.425   0.010  0.00  0.00    +0.277 C 
ATOM     26  O   UNL     1       0.002  -0.004   0.002  0.00  0.00    -0.491 OA
ENDBRANCH   1  26
BRANCH   6  27
ATOM     27  O   UNL     1       0.116  -2.757   0.119  0.00  0.00    -0.491 OA
ATOM     28  C   UNL     1       0.215  -4.177   0.246  0.00  0.00    +0.277 C 
ENDBRANCH   6  27
TORSDOF 4
