REMARK  Name = ZINC41677428
REMARK  9 active torsions:
REMARK  status: ('A' for Active; 'I' for Inactive)
REMARK    1  A    between atoms: C_1  and  C_2
REMARK    2  A    between atoms: C_4  and  C_24
REMARK    3  A    between atoms: C_5  and  C_9
REMARK    4  A    between atoms: C_6  and  C_8
REMARK    5  A    between atoms: C_9  and  N_10
REMARK    6  A    between atoms: C_11  and  C_13
REMARK    7  A    between atoms: C_13  and  C_22
REMARK    8  A    between atoms: C_14  and  C_15
REMARK    9  A    between atoms: C_18  and  O_21
REMARK                            x       y       z     vdW  Elec       q    Type
REMARK                         _______ _______ _______ _____ _____    ______ ____
ROOT
ATOM      1  N   UNL     1       1.482  -4.744   0.290  0.00  0.00    -0.307 N 
ATOM      2  C   UNL     1       1.743  -6.066   0.260  0.00  0.00    +0.255 C 
ATOM      3  O   UNL     1       0.853  -6.867   0.473  0.00  0.00    -0.269 OA
ATOM      4  H   UNL     1       2.192  -4.105   0.120  0.00  0.00    +0.149 HD
ENDROOT
BRANCH   2   5
ATOM      5  C   UNL     1       3.105  -6.540  -0.029  0.00  0.00    +0.114 C 
ATOM      6  C   UNL     1       3.373  -7.891  -0.059  0.00  0.00    +0.032 C 
BRANCH   6   7
ATOM      7  C   UNL     1       4.754  -8.362  -0.180  0.00  0.00    -0.023 A 
ATOM      8  C   UNL     1       5.798  -7.642   0.419  0.00  0.00    +0.011 A 
ATOM      9  C   UNL     1       7.085  -8.086   0.303  0.00  0.00    +0.046 A 
ATOM     10  C   UNL     1       7.361  -9.249  -0.408  0.00  0.00    +0.117 A 
ATOM     11  C   UNL     1       6.329  -9.967  -1.006  0.00  0.00    +0.046 A 
ATOM     12  C   UNL     1       5.038  -9.537  -0.891  0.00  0.00    +0.011 A 
BRANCH  10  13
ATOM     13  O   UNL     1       8.641  -9.685  -0.521  0.00  0.00    -0.507 OA
ATOM     14  H   UNL     1       8.915 -10.286   0.185  0.00  0.00    +0.292 HD
ENDBRANCH  10  13
ENDBRANCH   6   7
BRANCH   5  15
ATOM     15  C   UNL     1       4.154  -5.597  -0.280  0.00  0.00    +0.104 C 
ATOM     16  N   UNL     1       4.985  -4.849  -0.479  0.00  0.00    -0.191 NA
ENDBRANCH   5  15
ENDBRANCH   2   5
BRANCH   1  17
ATOM     17  C   UNL     1       0.125  -4.272   0.578  0.00  0.00    +0.140 C 
BRANCH  17  22
ATOM     18  C   UNL     1       0.030   1.505   0.476  0.00  0.00    +0.044 C 
ATOM     19  C   UNL     1       0.055  -0.001   0.503  0.00  0.00    -0.050 A 
ATOM     20  C   UNL     1      -0.190  -0.717  -0.654  0.00  0.00    +0.007 A 
ATOM     21  C   UNL     1      -0.167  -2.099  -0.630  0.00  0.00    -0.045 A 
ATOM     22  C   UNL     1       0.101  -2.765   0.551  0.00  0.00    -0.024 A 
ATOM     23  C   UNL     1       0.347  -2.050   1.708  0.00  0.00    -0.045 A 
ATOM     24  C   UNL     1       0.328  -0.667   1.683  0.00  0.00    +0.007 A 
ATOM     25  C   UNL     1       0.639  -2.776   2.996  0.00  0.00    +0.044 C 
ATOM     26  C   UNL     1      -0.435  -2.879  -1.891  0.00  0.00    +0.044 C 
ENDBRANCH  17  22
ENDBRANCH   1  17
TORSDOF 6
