REMARK  Name = ZINC03840089
REMARK  13 active torsions:
REMARK  status: ('A' for Active; 'I' for Inactive)
REMARK    1  A    between atoms: C_1  and  O_2
REMARK    2  A    between atoms: O_2  and  C_3
REMARK    3  A    between atoms: C_5  and  S_38
REMARK    4  A    between atoms: C_8  and  C_9
REMARK    5  A    between atoms: N_11  and  C_12
REMARK    6  A    between atoms: C_15  and  C_23
REMARK    7  A    between atoms: C_17  and  O_22
REMARK    8  A    between atoms: C_19  and  O_21
REMARK    9  A    between atoms: N_25  and  C_26
REMARK   10  A    between atoms: C_26  and  C_28
REMARK   11  A    between atoms: C_26  and  C_35
REMARK   12  A    between atoms: C_28  and  C_29
REMARK   13  A    between atoms: S_38  and  C_39
REMARK                            x       y       z     vdW  Elec       q    Type
REMARK                         _______ _______ _______ _____ _____    ______ ____
ROOT
ATOM      1  C   UNL     1       0.002  -0.004   0.002  0.00  0.00    +0.128 C 
ATOM      2  C   UNL     1       0.909  -0.502  -1.085  0.00  0.00    +0.006 C 
ATOM      3  C   UNL     1       1.816   0.242  -1.680  0.00  0.00    +0.015 C 
ATOM      4  C   UNL     1       2.053   1.688  -1.355  0.00  0.00    +0.074 C 
ATOM      5  C   UNL     1       1.429   2.032  -0.001  0.00  0.00    +0.149 C 
ATOM      6  C   UNL     1      -0.019   1.526   0.010  0.00  0.00    +0.167 C 
ENDROOT
BRANCH   1   9
ATOM      7  C   UNL     1       0.135  -1.719   1.728  0.00  0.00    +0.248 C 
ATOM      8  O   UNL     1      -0.580  -2.424   1.041  0.00  0.00    -0.270 OA
ATOM      9  N   UNL     1       0.483  -0.490   1.297  0.00  0.00    -0.302 N 
ATOM     10  H   UNL     1       1.053   0.072   1.845  0.00  0.00    +0.150 HD
BRANCH   7  16
ATOM     11  C   UNL     1       0.257  -3.487   3.480  0.00  0.00    +0.133 A 
ATOM     12  C   UNL     1       0.717  -3.937   4.705  0.00  0.00    +0.061 A 
ATOM     13  C   UNL     1       1.533  -3.122   5.480  0.00  0.00    +0.011 A 
ATOM     14  C   UNL     1       1.889  -1.852   5.028  0.00  0.00    +0.015 A 
ATOM     15  C   UNL     1       1.445  -1.401   3.819  0.00  0.00    +0.018 A 
ATOM     16  C   UNL     1       0.618  -2.208   3.029  0.00  0.00    +0.078 A 
BRANCH  11  18
ATOM     17  C   UNL     1      -0.866  -5.567   3.242  0.00  0.00    +0.277 C 
ATOM     18  O   UNL     1      -0.540  -4.278   2.718  0.00  0.00    -0.494 OA
ENDBRANCH  11  18
BRANCH  13  19
ATOM     19  S   UNL     1       2.119  -3.695   7.040  0.00  0.00    -0.128 S 
ATOM     20  C   UNL     1       3.120  -2.317   7.665  0.00  0.00    +0.090 C 
ENDBRANCH  13  19
ENDBRANCH   7  16
ENDBRANCH   1   9
BRANCH   3  21
ATOM     21  C   UNL     1       2.645  -0.378  -2.725  0.00  0.00    +0.241 C 
ATOM     22  O   UNL     1       2.482  -1.548  -3.016  0.00  0.00    -0.271 OA
ATOM     23  N   UNL     1       3.586   0.349  -3.359  0.00  0.00    -0.300 N 
ATOM     24  H   UNL     1       3.716   1.282  -3.126  0.00  0.00    +0.150 HD
BRANCH  23  25
ATOM     25  C   UNL     1       4.412  -0.269  -4.399  0.00  0.00    +0.163 C 
BRANCH  25  26
ATOM     26  C   UNL     1       3.684  -0.211  -5.718  0.00  0.00    +0.231 C 
ATOM     27  O   UNL     1       2.585   0.296  -5.782  0.00  0.00    -0.274 OA
ATOM     28  N   UNL     1       4.256  -0.723  -6.826  0.00  0.00    -0.328 N 
ATOM     29  H   UNL     1       5.136  -1.129  -6.774  0.00  0.00    +0.145 HD
ATOM     30  H   UNL     1       3.788  -0.686  -7.675  0.00  0.00    +0.145 HD
ENDBRANCH  25  26
BRANCH  25  31
ATOM     31  C   UNL     1       5.737   0.487  -4.514  0.00  0.00    +0.067 C 
BRANCH  31  32
ATOM     32  C   UNL     1       6.519   0.327  -3.237  0.00  0.00    -0.045 A 
ATOM     33  C   UNL     1       6.361   1.239  -2.210  0.00  0.00    +0.004 A 
ATOM     34  C   UNL     1       7.075   1.088  -1.036  0.00  0.00    +0.000 A 
ATOM     35  C   UNL     1       7.956   0.032  -0.893  0.00  0.00    +0.000 A 
ATOM     36  C   UNL     1       8.118  -0.876  -1.922  0.00  0.00    +0.000 A 
ATOM     37  C   UNL     1       7.400  -0.729  -3.094  0.00  0.00    +0.004 A 
ENDBRANCH  31  32
ENDBRANCH  25  31
ENDBRANCH  23  25
ENDBRANCH   3  21
BRANCH   6  38
ATOM     38  O   UNL     1      -0.681   1.990   1.188  0.00  0.00    -0.387 OA
ATOM     39  H   UNL     1      -0.730   2.954   1.258  0.00  0.00    +0.210 HD
ENDBRANCH   6  38
BRANCH   5  40
ATOM     40  O   UNL     1       1.443   3.449   0.188  0.00  0.00    -0.389 OA
ATOM     41  H   UNL     1       2.329   3.836   0.192  0.00  0.00    +0.210 HD
ENDBRANCH   5  40
TORSDOF 11
