REMARK  Name = ZINC04755007
REMARK  6 active torsions:
REMARK  status: ('A' for Active; 'I' for Inactive)
REMARK    1  A    between atoms: C_2  and  C_3
REMARK    2  A    between atoms: C_3  and  S_4
REMARK    3  A    between atoms: S_4  and  C_5
REMARK    4  A    between atoms: C_7  and  N_21
REMARK    5  A    between atoms: C_8  and  C_19
REMARK    6  A    between atoms: C_10  and  C_11
REMARK                            x       y       z     vdW  Elec       q    Type
REMARK                         _______ _______ _______ _____ _____    ______ ____
ROOT
ATOM      1  C   UNL     1       3.241  -2.243   1.509  0.00  0.00    +0.076 C 
ATOM      2  N   UNL     1       3.987  -2.037   0.373  0.00  0.00    -0.297 N 
ATOM      3  C   UNL     1       4.786  -3.045  -0.117  0.00  0.00    +0.100 C 
ATOM      4  C   UNL     1       5.133  -4.099   0.664  0.00  0.00    +0.075 C 
ATOM      5  C   UNL     1       4.675  -4.208   2.092  0.00  0.00    +0.041 C 
ATOM      6  C   UNL     1       3.534  -3.266   2.357  0.00  0.00    +0.053 C 
ATOM      7  C   UNL     1       4.222  -5.646   2.369  0.00  0.00    +0.017 C 
ATOM      8  C   UNL     1       3.757  -5.761   3.821  0.00  0.00    +0.001 C 
ATOM      9  C   UNL     1       4.914  -5.407   4.757  0.00  0.00    +0.000 C 
ATOM     10  C   UNL     1       5.376  -3.975   4.479  0.00  0.00    +0.001 C 
ATOM     11  C   UNL     1       5.839  -3.861   3.026  0.00  0.00    +0.017 C 
ATOM     12  H   UNL     1       3.951  -1.182  -0.083  0.00  0.00    +0.154 HD
ENDROOT
BRANCH   6  13
ATOM     13  C   UNL     1       2.749  -3.448   3.506  0.00  0.00    +0.241 C 
ATOM     14  O   UNL     1       3.048  -2.885   4.545  0.00  0.00    -0.271 OA
ATOM     15  N   UNL     1       1.663  -4.246   3.460  0.00  0.00    -0.326 N 
ATOM     16  H   UNL     1       1.466  -4.750   2.655  0.00  0.00    +0.145 HD
ATOM     17  H   UNL     1       1.080  -4.316   4.232  0.00  0.00    +0.145 HD
ENDBRANCH   6  13
BRANCH   3  18
ATOM     18  N   UNL     1       5.237  -2.983  -1.413  0.00  0.00    -0.346 N 
ATOM     19  H   UNL     1       4.992  -2.232  -1.977  0.00  0.00    +0.143 HD
ATOM     20  H   UNL     1       5.800  -3.690  -1.765  0.00  0.00    +0.143 HD
ENDBRANCH   3  18
BRANCH   4  21
ATOM     21  C   UNL     1       5.957  -5.133   0.114  0.00  0.00    +0.099 C 
ATOM     22  N   UNL     1       6.610  -5.954  -0.322  0.00  0.00    -0.191 NA
ENDBRANCH   4  21
BRANCH   1  23
ATOM     23  S   UNL     1       1.895  -1.166   1.874  0.00  0.00    -0.106 S 
BRANCH  23  24
ATOM     24  C   UNL     1       1.889   0.012   0.495  0.00  0.00    +0.102 C 
BRANCH  24  26
ATOM     25  C   UNL     1       1.043   2.269   0.884  0.00  0.00    +0.005 C 
ATOM     26  C   UNL     1       0.770   1.003   0.685  0.00  0.00    -0.024 C 
ENDBRANCH  24  26
ENDBRANCH  23  24
ENDBRANCH   1  23
TORSDOF 6
