REMARK  Name = ZINC01807362
REMARK  14 active torsions:
REMARK  status: ('A' for Active; 'I' for Inactive)
REMARK    1  A    between atoms: C_1  and  C_2
REMARK    2  A    between atoms: C_2  and  C_3
REMARK    3  A    between atoms: C_2  and  C_4
REMARK    4  A    between atoms: C_7  and  S_10
REMARK    5  A    between atoms: N_8  and  N_9
REMARK    6  A    between atoms: S_10  and  C_11
REMARK    7  A    between atoms: C_11  and  C_12
REMARK    8  A    between atoms: C_15  and  C_18
REMARK    9  A    between atoms: C_18  and  S_19
REMARK   10  A    between atoms: S_19  and  C_20
REMARK   11  A    between atoms: C_23  and  C_26
REMARK   12  A    between atoms: N_24  and  N_25
REMARK   13  A    between atoms: C_26  and  C_27
REMARK   14  A    between atoms: C_26  and  C_28
REMARK                            x       y       z     vdW  Elec       q    Type
REMARK                         _______ _______ _______ _____ _____    ______ ____
ROOT
ATOM      1  C   UNL     1       4.321  -2.983  -5.777  0.00  0.00    -0.037 A 
ATOM      2  C   UNL     1       5.507  -2.349  -6.093  0.00  0.00    +0.005 A 
ATOM      3  C   UNL     1       6.512  -3.043  -6.741  0.00  0.00    +0.005 A 
ATOM      4  C   UNL     1       6.330  -4.373  -7.072  0.00  0.00    -0.037 A 
ATOM      5  C   UNL     1       5.143  -5.008  -6.755  0.00  0.00    +0.005 A 
ATOM      6  C   UNL     1       4.141  -4.314  -6.104  0.00  0.00    +0.005 A 
ENDROOT
BRANCH   1   7
ATOM      7  C   UNL     1       3.226  -2.226  -5.071  0.00  0.00    +0.112 C 
BRANCH   7   8
ATOM      8  S   UNL     1       3.443  -2.382  -3.277  0.00  0.00    -0.080 S 
BRANCH   8  12
ATOM      9  C   UNL     1       0.707  -0.490  -1.238  0.00  0.00    +0.154 A 
ATOM     10  N   UNL     1       0.360  -0.246  -2.470  0.00  0.00    -0.132 NA
ATOM     11  N   UNL     1       1.181  -0.813  -3.280  0.00  0.00    -0.121 NA
ATOM     12  C   UNL     1       2.104  -1.455  -2.603  0.00  0.00    +0.209 A 
ATOM     13  N   UNL     1       1.834  -1.264  -1.278  0.00  0.00    -0.228 N 
BRANCH   9  15
ATOM     14  C   UNL     1      -0.019   1.526   0.010  0.00  0.00    +0.015 C 
ATOM     15  C   UNL     1       0.002  -0.004   0.002  0.00  0.00    +0.052 C 
ATOM     16  C   UNL     1      -1.433  -0.534   0.013  0.00  0.00    +0.015 C 
ENDBRANCH   9  15
BRANCH  13  17
ATOM     17  N   UNL     1       2.541  -1.748  -0.214  0.00  0.00    -0.295 N 
ATOM     18  H   UNL     1       2.195  -2.653   0.068  0.00  0.00    +0.163 HD
ATOM     19  H   UNL     1       3.527  -1.788  -0.423  0.00  0.00    +0.163 HD
ENDBRANCH  13  17
ENDBRANCH   8  12
ENDBRANCH   7   8
ENDBRANCH   1   7
BRANCH   4  20
ATOM     20  C   UNL     1       7.424  -5.130  -7.779  0.00  0.00    +0.112 C 
BRANCH  20  21
ATOM     21  S   UNL     1       8.516  -5.900  -6.553  0.00  0.00    -0.080 S 
BRANCH  21  22
ATOM     22  C   UNL     1       9.726  -6.735  -7.524  0.00  0.00    +0.209 A 
ATOM     23  N   UNL     1       9.791  -6.764  -8.835  0.00  0.00    -0.121 NA
ATOM     24  N   UNL     1      10.800  -7.467  -9.207  0.00  0.00    -0.132 NA
ATOM     25  C   UNL     1      11.435  -7.925  -8.165  0.00  0.00    +0.154 A 
ATOM     26  N   UNL     1      10.777  -7.471  -7.055  0.00  0.00    -0.228 N 
BRANCH  26  27
ATOM     27  N   UNL     1      11.101  -7.706  -5.750  0.00  0.00    -0.295 N 
ATOM     28  H   UNL     1      10.649  -8.542  -5.410  0.00  0.00    +0.163 HD
ATOM     29  H   UNL     1      12.102  -7.762  -5.630  0.00  0.00    +0.163 HD
ENDBRANCH  26  27
BRANCH  25  30
ATOM     30  C   UNL     1      12.669  -8.790  -8.180  0.00  0.00    +0.052 C 
ATOM     31  C   UNL     1      12.368 -10.095  -8.920  0.00  0.00    +0.015 C 
ATOM     32  C   UNL     1      13.802  -8.049  -8.892  0.00  0.00    +0.015 C 
ENDBRANCH  25  30
ENDBRANCH  21  22
ENDBRANCH  20  21
ENDBRANCH   4  20
TORSDOF 10
