REMARK  Name = ZINC62943469
REMARK  3 active torsions:
REMARK  status: ('A' for Active; 'I' for Inactive)
REMARK    1  A    between atoms: C_2  and  C_20
REMARK    2  A    between atoms: C_3  and  N_19
REMARK    3  A    between atoms: C_6  and  N_7
REMARK                            x       y       z     vdW  Elec       q    Type
REMARK                         _______ _______ _______ _____ _____    ______ ____
ROOT
ATOM      1  C   UNL     1      -0.078   1.253   0.014  0.00  0.00    +0.043 A 
ATOM      2  C   UNL     1       1.050   2.082  -0.024  0.00  0.00    +0.086 A 
ATOM      3  C   UNL     1       2.333   1.510  -0.043  0.00  0.00    +0.042 A 
ATOM      4  C   UNL     1       2.472   0.128  -0.025  0.00  0.00    +0.063 A 
ATOM      5  C   UNL     1       1.353  -0.681   0.012  0.00  0.00    +0.146 A 
ATOM      6  C   UNL     1       0.077  -0.118   0.032  0.00  0.00    +0.066 A 
ATOM      7  F   UNL     1       1.496  -2.024   0.029  0.00  0.00    -0.203 F 
ENDROOT
BRANCH   6   8
ATOM      8  N   UNL     1      -1.052  -0.949   0.070  0.00  0.00    -0.329 N 
ATOM      9  C   UNL     1      -1.607  -1.351   1.358  0.00  0.00    +0.103 C 
ATOM     10  C   UNL     1      -3.136  -1.310   1.401  0.00  0.00    +0.000 C 
ATOM     11  C   UNL     1      -3.634  -0.045   0.678  0.00  0.00    -0.077 C 
ATOM     12  N   UNL     1      -3.847  -0.358  -0.705  0.00  0.00    +0.383 N 
ATOM     13  C   UNL     1      -4.947   0.315  -1.396  0.00  0.00    -0.078 C 
ATOM     14  C   UNL     1      -4.683   0.093  -2.907  0.00  0.00    -0.020 C 
ATOM     15  C   UNL     1      -3.354  -0.709  -2.971  0.00  0.00    -0.016 C 
ATOM     16  C   UNL     1      -2.723  -0.401  -1.597  0.00  0.00    -0.051 C 
ATOM     17  C   UNL     1      -1.665  -1.399  -1.189  0.00  0.00    +0.090 C 
ATOM     18  H   UNL     1      -4.160  -1.318  -0.689  0.00  0.00    -0.081 HD
ENDBRANCH   6   8
BRANCH   3  19
ATOM     19  N   UNL     1       3.459   2.323  -0.081  0.00  0.00    -0.357 N 
ATOM     20  H   UNL     1       3.365   3.286  -0.010  0.00  0.00    +0.142 HD
ATOM     21  H   UNL     1       4.340   1.928  -0.179  0.00  0.00    +0.142 HD
ENDBRANCH   3  19
BRANCH   2  22
ATOM     22  C   UNL     1       0.894   3.543  -0.044  0.00  0.00    +0.388 C 
ATOM     23  O   UNL     1      -0.222   4.037  -0.143  0.00  0.00    -0.241 OA
ATOM     24  O   UNL     1       1.878   4.265   0.040  0.00  0.00    -0.241 OA
ENDBRANCH   2  22
TORSDOF 3
