REMARK  Name = ZINC59824249
REMARK  8 active torsions:
REMARK  status: ('A' for Active; 'I' for Inactive)
REMARK    1  A    between atoms: C_1  and  C_2
REMARK    2  A    between atoms: C_2  and  C_3
REMARK    3  A    between atoms: N_11  and  C_15
REMARK    4  A    between atoms: C_15  and  C_16
REMARK    5  A    between atoms: N_18  and  C_19
REMARK    6  A    between atoms: C_19  and  C_21
REMARK    7  A    between atoms: C_19  and  C_23
REMARK    8  A    between atoms: C_21  and  C_22
REMARK                            x       y       z     vdW  Elec       q    Type
REMARK                         _______ _______ _______ _____ _____    ______ ____
ROOT
ATOM      1  C   UNL     1      -3.928  -3.631   5.351  0.00  0.00    +0.231 C 
ATOM      2  O   UNL     1      -4.301  -2.481   5.245  0.00  0.00    -0.274 OA
ATOM      3  N   UNL     1      -3.801  -4.189   6.571  0.00  0.00    -0.307 N 
ATOM      4  H   UNL     1      -3.504  -5.108   6.655  0.00  0.00    +0.149 HD
ENDROOT
BRANCH   1   5
ATOM      5  C   UNL     1      -3.608  -4.435   4.117  0.00  0.00    +0.213 C 
BRANCH   5  14
ATOM      6  C   UNL     1      -1.433  -0.534   0.013  0.00  0.00    -0.011 C 
ATOM      7  C   UNL     1      -2.110  -0.145   1.329  0.00  0.00    +0.006 C 
ATOM      8  C   UNL     1      -3.550  -0.664   1.333  0.00  0.00    +0.035 C 
ATOM      9  C   UNL     1      -3.547  -2.181   1.173  0.00  0.00    +0.113 C 
ATOM     10  C   UNL     1      -2.853  -2.585  -0.123  0.00  0.00    +0.035 C 
ATOM     11  C   UNL     1      -1.415  -2.058  -0.121  0.00  0.00    +0.006 C 
ATOM     12  C   UNL     1      -2.876  -2.835   2.358  0.00  0.00    +0.247 C 
ATOM     13  O   UNL     1      -1.728  -2.694   2.722  0.00  0.00    -0.273 OA
ATOM     14  N   UNL     1      -3.824  -3.610   2.926  0.00  0.00    -0.215 N 
ATOM     15  C   UNL     1      -4.986  -3.531   2.266  0.00  0.00    +0.310 C 
ATOM     16  O   UNL     1      -5.988  -4.139   2.587  0.00  0.00    -0.252 OA
ATOM     17  N   UNL     1      -4.919  -2.704   1.206  0.00  0.00    -0.285 N 
ATOM     18  H   UNL     1      -5.636  -2.494   0.586  0.00  0.00    +0.151 HD
BRANCH   6  20
ATOM     19  C   UNL     1      -0.019   1.526   0.010  0.00  0.00    +0.004 C 
ATOM     20  C   UNL     1       0.002  -0.004   0.002  0.00  0.00    -0.000 C 
ENDBRANCH   6  20
ENDBRANCH   5  14
ENDBRANCH   1   5
BRANCH   3  21
ATOM     21  C   UNL     1      -4.113  -3.406   7.770  0.00  0.00    +0.103 C 
BRANCH  21  22
ATOM     22  C   UNL     1      -4.492  -4.338   8.893  0.00  0.00    -0.024 A 
ATOM     23  C   UNL     1      -3.798  -5.520   9.072  0.00  0.00    +0.009 A 
ATOM     24  C   UNL     1      -4.143  -6.377  10.100  0.00  0.00    +0.050 A 
ATOM     25  C   UNL     1      -5.187  -6.053  10.954  0.00  0.00    +0.162 A 
ATOM     26  C   UNL     1      -5.882  -4.863  10.775  0.00  0.00    +0.162 A 
ATOM     27  C   UNL     1      -5.528  -4.005   9.745  0.00  0.00    +0.055 A 
ATOM     28  O   UNL     1      -6.904  -4.522  11.607  0.00  0.00    -0.485 OA
ATOM     29  C   UNL     1      -7.468  -5.573  12.399  0.00  0.00    +0.270 C 
ATOM     30  C   UNL     1      -6.317  -6.377  13.021  0.00  0.00    +0.270 C 
ATOM     31  O   UNL     1      -5.518  -6.909  11.959  0.00  0.00    -0.485 OA
ENDBRANCH  21  22
BRANCH  21  32
ATOM     32  C   UNL     1      -2.886  -2.588   8.178  0.00  0.00    +0.024 C 
ATOM     33  C   UNL     1      -2.577  -1.557   7.091  0.00  0.00    +0.006 C 
ENDBRANCH  21  32
ENDBRANCH   3  21
TORSDOF 6
