REMARK  Name = ZINC17128728
REMARK  4 active torsions:
REMARK  status: ('A' for Active; 'I' for Inactive)
REMARK    1  A    between atoms: C_4  and  N_7
REMARK    2  A    between atoms: N_12  and  N_13
REMARK    3  A    between atoms: C_14  and  C_15
REMARK    4  A    between atoms: C_20  and  O_21
REMARK                            x       y       z     vdW  Elec       q    Type
REMARK                         _______ _______ _______ _____ _____    ______ ____
ROOT
ATOM      1  N   UNL     1       3.624  -0.652  -0.037  0.00  0.00    -0.179 N 
ATOM      2  C   UNL     1       3.920  -1.835   0.569  0.00  0.00    +0.259 A 
ATOM      3  N   UNL     1       5.178  -2.103   0.292  0.00  0.00    -0.090 NA
ATOM      4  N   UNL     1       5.686  -1.178  -0.439  0.00  0.00    -0.021 NA
ATOM      5  N   UNL     1       4.809  -0.267  -0.688  0.00  0.00    -0.038 NA
ATOM      6  N   UNL     1       3.063  -2.608   1.331  0.00  0.00    -0.204 N 
ATOM      7  H   UNL     1       2.148  -2.318   1.476  0.00  0.00    +0.177 HD
ENDROOT
BRANCH   1  11
ATOM      8  C   UNL     1      -0.017   1.379   0.010  0.00  0.00    +0.000 A 
ATOM      9  C   UNL     1       1.170   2.089   0.002  0.00  0.00    +0.002 A 
ATOM     10  C   UNL     1       2.377   1.419  -0.013  0.00  0.00    +0.028 A 
ATOM     11  C   UNL     1       2.399   0.031  -0.021  0.00  0.00    +0.071 A 
ATOM     12  C   UNL     1       1.207  -0.680  -0.013  0.00  0.00    +0.028 A 
ATOM     13  C   UNL     1       0.002  -0.004   0.002  0.00  0.00    +0.002 A 
ENDBRANCH   1  11
BRANCH   6  14
ATOM     14  N   UNL     1       3.514  -3.808   1.894  0.00  0.00    -0.187 NA
ATOM     15  C   UNL     1       2.709  -4.533   2.609  0.00  0.00    +0.142 C 
BRANCH  15  16
ATOM     16  C   UNL     1       3.184  -5.797   3.201  0.00  0.00    +0.036 A 
ATOM     17  C   UNL     1       2.319  -6.582   3.967  0.00  0.00    +0.013 A 
ATOM     18  C   UNL     1       2.770  -7.764   4.518  0.00  0.00    +0.001 A 
ATOM     19  C   UNL     1       4.077  -8.174   4.315  0.00  0.00    +0.004 A 
ATOM     20  C   UNL     1       4.942  -7.405   3.560  0.00  0.00    +0.046 A 
ATOM     21  C   UNL     1       4.504  -6.219   2.995  0.00  0.00    +0.125 A 
BRANCH  21  22
ATOM     22  O   UNL     1       5.353  -5.465   2.248  0.00  0.00    -0.506 OA
ATOM     23  H   UNL     1       5.851  -4.812   2.758  0.00  0.00    +0.292 HD
ENDBRANCH  21  22
ENDBRANCH  15  16
ENDBRANCH   6  14
TORSDOF 4
