REMARK  Name = ZINC16931839
REMARK  5 active torsions:
REMARK  status: ('A' for Active; 'I' for Inactive)
REMARK    1  A    between atoms: C_1  and  O_2
REMARK    2  A    between atoms: O_2  and  C_3
REMARK    3  A    between atoms: C_11  and  N_13
REMARK    4  A    between atoms: C_14  and  C_15
REMARK    5  A    between atoms: C_18  and  O_21
REMARK                            x       y       z     vdW  Elec       q    Type
REMARK                         _______ _______ _______ _____ _____    ______ ____
ROOT
ATOM      1  C   UNL     1       1.319   4.578  -0.076  0.00  0.00    +0.123 A 
ATOM      2  C   UNL     1       0.472   5.492   0.509  0.00  0.00    +0.055 A 
ATOM      3  C   UNL     1      -0.804   5.103   0.945  0.00  0.00    +0.006 A 
ATOM      4  C   UNL     1      -1.684   6.022   1.547  0.00  0.00    +0.012 A 
ATOM      5  C   UNL     1      -2.911   5.573   1.947  0.00  0.00    +0.020 A 
ATOM      6  C   UNL     1      -3.259   4.238   1.755  0.00  0.00    +0.111 A 
ATOM      7  N   UNL     1      -2.435   3.385   1.193  0.00  0.00    -0.253 NA
ATOM      8  C   UNL     1      -1.224   3.760   0.781  0.00  0.00    +0.096 A 
ATOM      9  C   UNL     1      -0.308   2.807   0.156  0.00  0.00    +0.093 A 
ATOM     10  C   UNL     1       0.943   3.248  -0.251  0.00  0.00    +0.075 A 
ENDROOT
BRANCH   1  12
ATOM     11  C   UNL     1       3.437   3.969  -0.967  0.00  0.00    +0.277 C 
ATOM     12  O   UNL     1       2.549   4.981  -0.488  0.00  0.00    -0.495 OA
ENDBRANCH   1  12
BRANCH   9  13
ATOM     13  N   UNL     1      -0.675   1.505  -0.020  0.00  0.00    -0.253 NA
ATOM     14  C   UNL     1      -0.646   0.974  -1.211  0.00  0.00    +0.119 C 
BRANCH  14  15
ATOM     15  C   UNL     1      -0.385   1.817  -2.386  0.00  0.00    -0.007 A 
ATOM     16  C   UNL     1      -0.776   3.161  -2.387  0.00  0.00    +0.013 A 
ATOM     17  C   UNL     1      -0.524   3.949  -3.488  0.00  0.00    +0.046 A 
ATOM     18  C   UNL     1       0.109   3.409  -4.601  0.00  0.00    +0.117 A 
ATOM     19  C   UNL     1       0.494   2.073  -4.608  0.00  0.00    +0.046 A 
ATOM     20  C   UNL     1       0.252   1.278  -3.510  0.00  0.00    +0.013 A 
BRANCH  18  21
ATOM     21  O   UNL     1       0.350   4.188  -5.687  0.00  0.00    -0.507 OA
ATOM     22  H   UNL     1      -0.365   4.188  -6.337  0.00  0.00    +0.292 HD
ENDBRANCH  18  21
ENDBRANCH  14  15
ENDBRANCH   9  13
TORSDOF 4
