REMARK  Name = ZINC06654961
REMARK  9 active torsions:
REMARK  status: ('A' for Active; 'I' for Inactive)
REMARK    1  A    between atoms: C_1  and  C_2
REMARK    2  A    between atoms: C_10  and  C_14
REMARK    3  A    between atoms: C_18  and  C_20
REMARK    4  A    between atoms: C_20  and  N_64
REMARK    5  A    between atoms: C_21  and  C_22
REMARK    6  A    between atoms: C_21  and  N_64
REMARK    7  A    between atoms: C_22  and  C_23
REMARK    8  A    between atoms: C_30  and  O_33
REMARK    9  A    between atoms: O_33  and  C_34
REMARK                            x       y       z     vdW  Elec       q    Type
REMARK                         _______ _______ _______ _____ _____    ______ ____
ROOT
ATOM      1  C   UNL     1       0.954   0.125   5.972  0.00  0.00    -0.068 C 
ENDROOT
BRANCH   1  17
ATOM      2  C   UNL     1       0.433  -1.814   1.807  0.00  0.00    +0.039 C 
ATOM      3  C   UNL     1       0.775  -0.476   1.203  0.00  0.00    -0.073 C 
ATOM      4  C   UNL     1       1.726   0.228   1.738  0.00  0.00    -0.064 C 
ATOM      5  C   UNL     1       2.450  -0.307   2.959  0.00  0.00    +0.039 C 
ATOM      6  C   UNL     1       2.479   0.729   4.054  0.00  0.00    +0.046 C 
ATOM      7  C   UNL     1       2.855   2.147   3.586  0.00  0.00    +0.181 C 
ATOM      8  C   UNL     1       2.030   2.575   2.369  0.00  0.00    +0.056 C 
ATOM      9  C   UNL     1       2.177   1.568   1.231  0.00  0.00    -0.007 C 
ATOM     10  C   UNL     1       1.424   2.031  -0.001  0.00  0.00    +0.011 C 
ATOM     11  C   UNL     1      -0.019   1.529   0.010  0.00  0.00    +0.005 C 
ATOM     12  C   UNL     1       0.002  -0.004   0.002  0.00  0.00    +0.030 C 
ATOM     13  C   UNL     1       3.660   1.470   0.867  0.00  0.00    +0.016 C 
ATOM     14  O   UNL     1       2.344   2.954   4.718  0.00  0.00    -0.461 OA
ATOM     15  C   UNL     1       1.135   2.451   5.050  0.00  0.00    +0.309 C 
ATOM     16  O   UNL     1       0.224   3.076   5.539  0.00  0.00    -0.251 OA
ATOM     17  C   UNL     1       1.106   0.970   4.705  0.00  0.00    +0.088 C 
ENDBRANCH   1  17
BRANCH   1  18
ATOM     18  N   UNL     1      -0.413   0.289   6.501  0.00  0.00    +0.380 N 
ATOM     19  H   UNL     1      -1.090  -0.019   5.793  0.00  0.00    -0.086 HD
ATOM     20  H   UNL     1      -0.575   1.279   6.721  0.00  0.00    -0.086 HD
BRANCH  18  21
ATOM     21  C   UNL     1      -0.589  -0.516   7.724  0.00  0.00    -0.078 C 
BRANCH  21  22
ATOM     22  C   UNL     1      -2.013  -0.326   8.250  0.00  0.00    +0.018 C 
BRANCH  22  23
ATOM     23  C   UNL     1      -2.201  -1.145   9.500  0.00  0.00    -0.024 A 
ATOM     24  C   UNL     1      -2.719  -2.382   9.574  0.00  0.00    +0.087 A 
ATOM     25  N   UNL     1      -2.731  -2.805  10.875  0.00  0.00    -0.360 N 
ATOM     26  H   UNL     1      -3.060  -3.666  11.178  0.00  0.00    +0.165 HD
ATOM     27  C   UNL     1      -2.207  -1.826  11.692  0.00  0.00    +0.047 A 
ATOM     28  C   UNL     1      -1.847  -0.747  10.865  0.00  0.00    +0.006 A 
ATOM     29  C   UNL     1      -1.289   0.405  11.424  0.00  0.00    +0.056 A 
ATOM     30  C   UNL     1      -1.084   0.471  12.787  0.00  0.00    +0.121 A 
ATOM     31  C   UNL     1      -1.436  -0.601  13.603  0.00  0.00    +0.047 A 
ATOM     32  C   UNL     1      -1.992  -1.740  13.063  0.00  0.00    +0.030 A 
BRANCH  30  33
ATOM     33  O   UNL     1      -0.535   1.587  13.337  0.00  0.00    -0.495 OA
ATOM     34  C   UNL     1      -0.350   1.590  14.754  0.00  0.00    +0.277 C 
ENDBRANCH  30  33
ENDBRANCH  22  23
ENDBRANCH  21  22
ENDBRANCH  18  21
ENDBRANCH   1  18
TORSDOF 6
