REMARK  Name = ZINC16928031
REMARK  9 active torsions:
REMARK  status: ('A' for Active; 'I' for Inactive)
REMARK    1  A    between atoms: C_1  and  C_2
REMARK    2  A    between atoms: C_2  and  N_3
REMARK    3  A    between atoms: C_7  and  C_8
REMARK    4  A    between atoms: C_11  and  O_16
REMARK    5  A    between atoms: C_12  and  O_14
REMARK    6  A    between atoms: O_14  and  C_15
REMARK    7  A    between atoms: N_19  and  C_20
REMARK    8  A    between atoms: C_23  and  C_27
REMARK    9  A    between atoms: C_24  and  O_26
REMARK                            x       y       z     vdW  Elec       q    Type
REMARK                         _______ _______ _______ _____ _____    ______ ____
ROOT
ATOM      1  N   UNL     1       5.974   2.184  -0.351  0.00  0.00    -0.246 N 
ATOM      2  C   UNL     1       5.015   1.278  -0.262  0.00  0.00    +0.259 C 
ATOM      3  O   UNL     1       5.261   0.086  -0.291  0.00  0.00    -0.269 OA
ATOM      4  C   UNL     1       3.634   1.777  -0.126  0.00  0.00    +0.078 C 
ATOM      5  C   UNL     1       2.473   1.082  -0.016  0.00  0.00    +0.028 C 
ATOM      6  S   UNL     1       3.899   3.544  -0.152  0.00  0.00    -0.049 S 
ATOM      7  C   UNL     1       5.677   3.527  -0.317  0.00  0.00    +0.168 C 
ATOM      8  N   UNL     1       6.502   4.550  -0.392  0.00  0.00    -0.225 NA
ENDROOT
BRANCH   5   9
ATOM      9  C   UNL     1       1.219   1.788   0.276  0.00  0.00    -0.020 A 
ATOM     10  C   UNL     1       1.249   3.092   0.785  0.00  0.00    +0.012 A 
ATOM     11  C   UNL     1       0.071   3.752   1.057  0.00  0.00    +0.050 A 
ATOM     12  C   UNL     1      -1.148   3.128   0.828  0.00  0.00    +0.158 A 
ATOM     13  C   UNL     1      -1.187   1.831   0.317  0.00  0.00    +0.162 A 
ATOM     14  C   UNL     1      -0.011   1.159   0.046  0.00  0.00    +0.057 A 
BRANCH  13  15
ATOM     15  O   UNL     1      -2.383   1.226   0.089  0.00  0.00    -0.491 OA
ATOM     16  C   UNL     1      -2.348  -0.105  -0.430  0.00  0.00    +0.277 C 
ENDBRANCH  13  15
BRANCH  12  17
ATOM     17  O   UNL     1      -2.306   3.784   1.098  0.00  0.00    -0.503 OA
ATOM     18  H   UNL     1      -2.651   4.295   0.353  0.00  0.00    +0.292 HD
ENDBRANCH  12  17
ENDBRANCH   5   9
BRANCH   8  19
ATOM     19  C   UNL     1       6.017   5.822  -0.340  0.00  0.00    +0.070 A 
ATOM     20  C   UNL     1       4.890   6.173  -1.097  0.00  0.00    +0.029 A 
ATOM     21  C   UNL     1       4.396   7.442  -1.046  0.00  0.00    +0.021 A 
ATOM     22  C   UNL     1       5.019   8.408  -0.244  0.00  0.00    +0.105 A 
ATOM     23  C   UNL     1       6.152   8.066   0.514  0.00  0.00    +0.133 A 
ATOM     24  C   UNL     1       6.646   6.777   0.464  0.00  0.00    +0.074 A 
BRANCH  22  25
ATOM     25  C   UNL     1       4.487   9.777  -0.195  0.00  0.00    +0.390 C 
ATOM     26  O   UNL     1       5.027  10.614   0.501  0.00  0.00    -0.240 OA
ATOM     27  O   UNL     1       3.400  10.104  -0.923  0.00  0.00    -0.240 OA
ENDBRANCH  22  25
BRANCH  23  28
ATOM     28  O   UNL     1       6.758   8.998   1.291  0.00  0.00    -0.506 OA
ATOM     29  H   UNL     1       7.454   9.494   0.840  0.00  0.00    +0.292 HD
ENDBRANCH  23  28
ENDBRANCH   8  19
BRANCH   1  31
ATOM     30  C   UNL     1       7.713   1.609  -1.972  0.00  0.00    +0.025 C 
ATOM     31  C   UNL     1       7.368   1.753  -0.488  0.00  0.00    +0.112 C 
ENDBRANCH   1  31
TORSDOF 7
