REMARK  Name = ZINC19842987
REMARK  4 active torsions:
REMARK  status: ('A' for Active; 'I' for Inactive)
REMARK    1  A    between atoms: C_1  and  C_2
REMARK    2  A    between atoms: C_6  and  C_8
REMARK    3  A    between atoms: C_8  and  C_10
REMARK    4  A    between atoms: C_8  and  N_21
REMARK                            x       y       z     vdW  Elec       q    Type
REMARK                         _______ _______ _______ _____ _____    ______ ____
ROOT
ATOM      1  C   UNL     1      -1.298  -0.767   0.010  0.00  0.00    +0.155 C 
ENDROOT
BRANCH   1   2
ATOM      2  C   UNL     1      -1.405  -1.828  -1.054  0.00  0.00    +0.027 A 
ATOM      3  C   UNL     1      -2.197  -1.597  -2.176  0.00  0.00    +0.010 A 
ATOM      4  C   UNL     1      -2.314  -2.535  -3.155  0.00  0.00    +0.010 A 
ATOM      5  C   UNL     1      -1.627  -3.755  -3.037  0.00  0.00    +0.004 A 
ATOM      6  C   UNL     1      -1.724  -4.749  -4.030  0.00  0.00    +0.011 A 
ATOM      7  C   UNL     1      -1.028  -5.910  -3.848  0.00  0.00    +0.020 A 
ATOM      8  C   UNL     1      -0.251  -6.083  -2.705  0.00  0.00    +0.111 A 
ATOM      9  N   UNL     1      -0.164  -5.155  -1.783  0.00  0.00    -0.251 NA
ATOM     10  C   UNL     1      -0.820  -3.997  -1.900  0.00  0.00    +0.118 A 
ATOM     11  C   UNL     1      -0.718  -2.999  -0.907  0.00  0.00    +0.210 A 
ATOM     12  O   UNL     1       0.054  -3.205   0.191  0.00  0.00    -0.285 OA
ENDBRANCH   1   2
BRANCH   1  13
ATOM     13  N   UNL     1      -2.514   0.051   0.009  0.00  0.00    -0.317 N 
ATOM     14  C   UNL     1      -2.928   0.682   1.176  0.00  0.00    +0.119 A 
ATOM     15  C   UNL     1      -2.187   0.529   2.343  0.00  0.00    +0.043 A 
ATOM     16  C   UNL     1      -2.608   1.167   3.496  0.00  0.00    +0.005 A 
ATOM     17  C   UNL     1      -3.767   1.931   3.445  0.00  0.00    +0.020 A 
ATOM     18  C   UNL     1      -4.456   2.035   2.254  0.00  0.00    +0.113 A 
ATOM     19  N   UNL     1      -4.028   1.419   1.168  0.00  0.00    -0.241 NA
ATOM     20  H   UNL     1      -3.098   0.165  -0.916  0.00  0.00    +0.148 HD
ENDBRANCH   1  13
BRANCH   1  26
ATOM     21  C   UNL     1       3.498  -0.390  -0.815  0.00  0.00    +0.065 C 
ATOM     22  C   UNL     1       2.160   0.287  -0.660  0.00  0.00    +0.039 A 
ATOM     23  C   UNL     1       2.071   1.661  -0.779  0.00  0.00    +0.023 A 
ATOM     24  C   UNL     1       0.836   2.273  -0.635  0.00  0.00    +0.004 A 
ATOM     25  C   UNL     1      -0.269   1.477  -0.376  0.00  0.00    +0.025 A 
ATOM     26  C   UNL     1      -0.104   0.109  -0.271  0.00  0.00    +0.066 A 
ATOM     27  N   UNL     1       1.087  -0.439  -0.413  0.00  0.00    -0.255 NA
ENDBRANCH   1  26
TORSDOF 3
