REMARK  Name = ZINC16577727
REMARK  10 active torsions:
REMARK  status: ('A' for Active; 'I' for Inactive)
REMARK    1  A    between atoms: C_1  and  C_2
REMARK    2  A    between atoms: C_2  and  C_24
REMARK    3  A    between atoms: C_4  and  N_11
REMARK    4  A    between atoms: C_7  and  C_9
REMARK    5  A    between atoms: C_7  and  C_10
REMARK    6  A    between atoms: N_14  and  C_15
REMARK    7  A    between atoms: C_19  and  N_21
REMARK    8  A    between atoms: C_24  and  N_25
REMARK    9  A    between atoms: N_28  and  C_29
REMARK   10  A    between atoms: C_33  and  N_35
REMARK                            x       y       z     vdW  Elec       q    Type
REMARK                         _______ _______ _______ _____ _____    ______ ____
ROOT
ATOM      1  C   UNL     1      -0.166   1.357   0.006  0.00  0.00    +0.013 C 
ATOM      2  C   UNL     1      -0.127  -0.162  -0.173  0.00  0.00    -0.014 C 
ATOM      3  C   UNL     1       0.373  -0.534  -1.560  0.00  0.00    +0.030 C 
ATOM      4  C   UNL     1       1.878  -0.406  -1.715  0.00  0.00    +0.076 C 
ATOM      5  C   UNL     1       2.624  -1.162  -0.630  0.00  0.00    +0.028 C 
ATOM      6  C   UNL     1       2.168  -0.820   0.778  0.00  0.00    -0.033 C 
ATOM      7  C   UNL     1       0.660  -0.828   0.938  0.00  0.00    +0.014 C 
ATOM      8  C   UNL     1       2.764   0.515   1.234  0.00  0.00    +0.011 C 
ATOM      9  C   UNL     1       2.739  -1.908   1.722  0.00  0.00    +0.011 C 
ENDROOT
BRANCH   4  10
ATOM     10  N   UNL     1       2.307   0.985  -1.810  0.00  0.00    -0.296 N 
ATOM     11  C   UNL     1       3.462   1.292  -2.433  0.00  0.00    +0.304 C 
ATOM     12  O   UNL     1       4.146   0.411  -2.915  0.00  0.00    -0.253 OA
ATOM     13  N   UNL     1       3.858   2.577  -2.522  0.00  0.00    -0.269 N 
ATOM     14  H   UNL     1       1.761   1.688  -1.426  0.00  0.00    +0.151 HD
ATOM     15  H   UNL     1       3.281   3.286  -2.197  0.00  0.00    +0.156 HD
BRANCH  13  16
ATOM     16  C   UNL     1       5.102   2.889  -3.081  0.00  0.00    +0.037 A 
ATOM     17  C   UNL     1       5.593   2.143  -4.145  0.00  0.00    +0.023 A 
ATOM     18  C   UNL     1       6.821   2.454  -4.696  0.00  0.00    +0.004 A 
ATOM     19  C   UNL     1       7.562   3.506  -4.189  0.00  0.00    +0.033 A 
ATOM     20  C   UNL     1       7.076   4.250  -3.130  0.00  0.00    +0.128 A 
ATOM     21  C   UNL     1       5.846   3.948  -2.579  0.00  0.00    +0.056 A 
BRANCH  20  22
ATOM     22  N   UNL     1       7.872   5.375  -2.590  0.00  0.00    +0.056 N 
ATOM     23  O   UNL     1       8.947   5.643  -3.075  0.00  0.00    -0.126 OA
ATOM     24  O   UNL     1       7.448   6.026  -1.664  0.00  0.00    -0.126 OA
ENDBRANCH  20  22
ENDBRANCH  13  16
ENDBRANCH   4  10
BRANCH   2  25
ATOM     25  C   UNL     1      -1.590  -0.661  -0.066  0.00  0.00    +0.112 C 
BRANCH  25  26
ATOM     26  N   UNL     1      -2.398  -0.033  -1.114  0.00  0.00    -0.299 N 
ATOM     27  C   UNL     1      -3.711  -0.319  -1.216  0.00  0.00    +0.304 C 
ATOM     28  O   UNL     1      -4.225  -1.099  -0.437  0.00  0.00    -0.253 OA
ATOM     29  N   UNL     1      -4.455   0.259  -2.180  0.00  0.00    -0.269 N 
ATOM     30  H   UNL     1      -1.988   0.590  -1.735  0.00  0.00    +0.150 HD
ATOM     31  H   UNL     1      -4.031   0.822  -2.846  0.00  0.00    +0.156 HD
BRANCH  29  32
ATOM     32  C   UNL     1      -5.837   0.046  -2.220  0.00  0.00    +0.037 A 
ATOM     33  C   UNL     1      -6.551  -0.114  -1.039  0.00  0.00    +0.023 A 
ATOM     34  C   UNL     1      -7.915  -0.323  -1.081  0.00  0.00    +0.004 A 
ATOM     35  C   UNL     1      -8.571  -0.374  -2.298  0.00  0.00    +0.033 A 
ATOM     36  C   UNL     1      -7.863  -0.215  -3.475  0.00  0.00    +0.128 A 
ATOM     37  C   UNL     1      -6.499   0.000  -3.439  0.00  0.00    +0.056 A 
BRANCH  36  38
ATOM     38  N   UNL     1      -8.569  -0.271  -4.775  0.00  0.00    +0.056 N 
ATOM     39  O   UNL     1      -9.763  -0.455  -4.807  0.00  0.00    -0.126 OA
ATOM     40  O   UNL     1      -7.951  -0.133  -5.805  0.00  0.00    -0.126 OA
ENDBRANCH  36  38
ENDBRANCH  29  32
ENDBRANCH  25  26
ENDBRANCH   2  25
TORSDOF 7
