REMARK  Name = ZINC67603566
REMARK  6 active torsions:
REMARK  status: ('A' for Active; 'I' for Inactive)
REMARK    1  A    between atoms: C_1  and  C_2
REMARK    2  A    between atoms: C_7  and  C_10
REMARK    3  A    between atoms: N_18  and  C_19
REMARK    4  A    between atoms: C_19  and  C_20
REMARK    5  A    between atoms: C_24  and  S_26
REMARK    6  A    between atoms: S_26  and  N_29
REMARK                            x       y       z     vdW  Elec       q    Type
REMARK                         _______ _______ _______ _____ _____    ______ ____
ROOT
ATOM      1  C   UNL     1      -0.020   1.529   0.007  0.00  0.00    +0.039 C 
ATOM      2  C   UNL     1       0.001  -0.001   0.001  0.00  0.00    +0.133 C 
ATOM      3  C   UNL     1       0.721  -0.498  -1.257  0.00  0.00    +0.140 C 
ATOM      4  N   UNL     1       2.143  -0.133  -1.153  0.00  0.00    -0.280 N 
ATOM      5  C   UNL     1       2.858  -0.485   0.084  0.00  0.00    +0.145 C 
ATOM      6  C   UNL     1       2.034   0.012   1.277  0.00  0.00    +0.166 C 
ATOM      7  O   UNL     1       0.694  -0.474   1.159  0.00  0.00    -0.366 OA
ATOM      8  C   UNL     1       2.771   0.504  -2.161  0.00  0.00    +0.303 C 
ATOM      9  O   UNL     1       2.190   0.705  -3.210  0.00  0.00    -0.253 OA
ATOM     10  N   UNL     1       4.044   0.918  -2.006  0.00  0.00    -0.295 N 
ATOM     11  H   UNL     1       4.533   0.694  -1.199  0.00  0.00    +0.151 HD
ENDROOT
BRANCH   6  12
ATOM     12  C   UNL     1       2.644  -0.498   2.557  0.00  0.00    -0.017 A 
ATOM     13  C   UNL     1       2.403  -1.796   2.969  0.00  0.00    +0.006 A 
ATOM     14  C   UNL     1       2.963  -2.263   4.143  0.00  0.00    +0.000 A 
ATOM     15  C   UNL     1       3.763  -1.434   4.906  0.00  0.00    +0.000 A 
ATOM     16  C   UNL     1       4.005  -0.137   4.494  0.00  0.00    +0.000 A 
ATOM     17  C   UNL     1       3.449   0.330   3.317  0.00  0.00    +0.006 A 
ENDBRANCH   6  12
BRANCH  10  18
ATOM     18  C   UNL     1       4.691   1.707  -3.058  0.00  0.00    +0.141 C 
BRANCH  18  19
ATOM     19  C   UNL     1       6.100   2.041  -2.642  0.00  0.00    -0.028 A 
ATOM     20  C   UNL     1       6.356   3.198  -1.930  0.00  0.00    +0.005 A 
ATOM     21  C   UNL     1       7.648   3.503  -1.548  0.00  0.00    +0.002 A 
ATOM     22  C   UNL     1       8.686   2.651  -1.877  0.00  0.00    +0.028 A 
ATOM     23  C   UNL     1       8.431   1.494  -2.588  0.00  0.00    +0.105 A 
ATOM     24  C   UNL     1       7.137   1.186  -2.967  0.00  0.00    +0.033 A 
BRANCH  23  25
ATOM     25  S   UNL     1       9.753   0.408  -3.009  0.00  0.00    +0.056 S 
ATOM     26  O   UNL     1       9.327  -0.330  -4.146  0.00  0.00    -0.153 OA
ATOM     27  O   UNL     1      10.938   1.193  -3.010  0.00  0.00    -0.153 OA
BRANCH  25  28
ATOM     28  N   UNL     1       9.907  -0.679  -1.770  0.00  0.00    -0.204 NA
ATOM     29  H   UNL     1      10.231  -1.576  -1.948  0.00  0.00    +0.144 HD
ATOM     30  H   UNL     1       9.673  -0.420  -0.865  0.00  0.00    +0.144 HD
ENDBRANCH  25  28
ENDBRANCH  23  25
ENDBRANCH  18  19
ENDBRANCH  10  18
TORSDOF 5
