REMARK  Name = ZINC01432278
REMARK  4 active torsions:
REMARK  status: ('A' for Active; 'I' for Inactive)
REMARK    1  A    between atoms: C_1  and  C_2
REMARK    2  A    between atoms: C_2  and  N_3
REMARK    3  A    between atoms: C_7  and  N_50
REMARK    4  A    between atoms: N_20  and  C_21
REMARK                            x       y       z     vdW  Elec       q    Type
REMARK                         _______ _______ _______ _____ _____    ______ ____
ROOT
ATOM      1  C   UNL     1       5.100   3.181  -1.716  0.00  0.00    -0.075 C 
ATOM      2  C   UNL     1       3.958   2.167  -1.601  0.00  0.00    +0.017 C 
ATOM      3  C   UNL     1       3.531   2.052  -0.141  0.00  0.00    +0.109 C 
ATOM      4  C   UNL     1       3.135   3.421   0.406  0.00  0.00    +0.017 C 
ATOM      5  C   UNL     1       4.303   4.394   0.227  0.00  0.00    -0.075 C 
ATOM      6  C   UNL     1       4.642   1.455   0.688  0.00  0.00    +0.238 C 
ATOM      7  O   UNL     1       5.814   1.762   0.631  0.00  0.00    -0.273 OA
ATOM      8  N   UNL     1       4.109   0.520   1.502  0.00  0.00    -0.298 N 
ATOM      9  C   UNL     1       2.658   0.450   1.288  0.00  0.00    +0.214 C 
ATOM     10  N   UNL     1       2.401   1.108  -0.015  0.00  0.00    -0.300 N 
ATOM     11  H   UNL     1       4.608  -0.023   2.133  0.00  0.00    +0.150 HD
ATOM     12  N   UNL     1       4.630   4.490  -1.212  0.00  0.00    +0.388 N 
ATOM     13  H   UNL     1       3.785   4.760  -1.728  0.00  0.00    -0.081 HD
ENDROOT
BRANCH  12  18
ATOM     14  N   UNL     1       7.182   6.174   0.217  0.00  0.00    -0.244 N 
ATOM     15  C   UNL     1       6.279   7.162   0.211  0.00  0.00    +0.221 C 
ATOM     16  O   UNL     1       6.306   8.143   0.924  0.00  0.00    -0.275 OA
ATOM     17  C   UNL     1       5.217   6.864  -0.831  0.00  0.00    +0.090 C 
ATOM     18  C   UNL     1       5.671   5.516  -1.426  0.00  0.00    +0.029 C 
ATOM     19  C   UNL     1       6.939   5.196  -0.664  0.00  0.00    +0.209 C 
ATOM     20  O   UNL     1       7.625   4.210  -0.826  0.00  0.00    -0.277 OA
BRANCH  14  22
ATOM     21  C   UNL     1       9.519   6.863   0.431  0.00  0.00    +0.025 C 
ATOM     22  C   UNL     1       8.341   6.164   1.113  0.00  0.00    +0.113 C 
ENDBRANCH  14  22
ENDBRANCH  12  18
BRANCH  10  23
ATOM     23  C   UNL     1       1.180   1.788   0.000  0.00  0.00    +0.032 A 
ATOM     24  C   UNL     1       0.826   2.606  -1.065  0.00  0.00    +0.023 A 
ATOM     25  C   UNL     1      -0.379   3.280  -1.044  0.00  0.00    +0.002 A 
ATOM     26  C   UNL     1      -1.237   3.133   0.029  0.00  0.00    +0.000 A 
ATOM     27  C   UNL     1      -0.888   2.319   1.091  0.00  0.00    +0.002 A 
ATOM     28  C   UNL     1       0.318   1.646   1.080  0.00  0.00    +0.023 A 
ENDBRANCH  10  23
TORSDOF 3
