REMARK  Name = ZINC39579339
REMARK  3 active torsions:
REMARK  status: ('A' for Active; 'I' for Inactive)
REMARK    1  A    between atoms: C_1  and  N_2
REMARK    2  A    between atoms: C_9  and  O_27
REMARK    3  A    between atoms: C_11  and  C_15
REMARK                            x       y       z     vdW  Elec       q    Type
REMARK                         _______ _______ _______ _____ _____    ______ ____
ROOT
ATOM      1  C   UNL     1      -0.018   1.461   0.010  0.00  0.00    +0.138 C 
ATOM      2  N   UNL     1       0.002  -0.004   0.002  0.00  0.00    -0.273 N 
ATOM      3  C   UNL     1      -1.203  -0.712   0.004  0.00  0.00    +0.042 A 
ATOM      4  C   UNL     1      -2.395  -0.053  -0.275  0.00  0.00    +0.024 A 
ATOM      5  C   UNL     1      -3.583  -0.756  -0.287  0.00  0.00    +0.002 A 
ATOM      6  C   UNL     1      -3.589  -2.113  -0.024  0.00  0.00    +0.000 A 
ATOM      7  C   UNL     1      -2.406  -2.770   0.258  0.00  0.00    +0.008 A 
ATOM      8  C   UNL     1      -1.214  -2.071   0.280  0.00  0.00    +0.003 A 
ATOM      9  C   UNL     1       0.069  -2.783   0.622  0.00  0.00    +0.165 C 
ATOM     10  C   UNL     1       1.229  -2.151  -0.148  0.00  0.00    +0.174 C 
ATOM     11  C   UNL     1       1.179  -0.653  -0.013  0.00  0.00    +0.233 C 
ATOM     12  O   UNL     1       2.212  -0.025   0.088  0.00  0.00    -0.274 OA
ENDROOT
BRANCH  10  13
ATOM     13  C   UNL     1       1.122  -2.520  -1.605  0.00  0.00    +0.125 A 
ATOM     14  N   UNL     1       2.256  -2.527  -2.353  0.00  0.00    -0.310 N 
ATOM     15  H   UNL     1       3.104  -2.298  -1.942  0.00  0.00    +0.170 HD
ATOM     16  C   UNL     1       2.213  -2.852  -3.667  0.00  0.00    +0.259 A 
ATOM     17  O   UNL     1       3.221  -2.863  -4.348  0.00  0.00    -0.267 OA
ATOM     18  C   UNL     1       0.901  -3.191  -4.238  0.00  0.00    +0.065 A 
ATOM     19  C   UNL     1       0.748  -3.538  -5.578  0.00  0.00    +0.015 A 
ATOM     20  C   UNL     1      -0.505  -3.846  -6.061  0.00  0.00    +0.001 A 
ATOM     21  C   UNL     1      -1.612  -3.813  -5.224  0.00  0.00    +0.002 A 
ATOM     22  C   UNL     1      -1.483  -3.472  -3.896  0.00  0.00    +0.028 A 
ATOM     23  C   UNL     1      -0.223  -3.156  -3.383  0.00  0.00    +0.078 A 
ATOM     24  N   UNL     1      -0.049  -2.820  -2.080  0.00  0.00    -0.233 NA
ENDBRANCH  10  13
BRANCH   9  25
ATOM     25  O   UNL     1       0.315  -2.671   2.026  0.00  0.00    -0.386 OA
ATOM     26  H   UNL     1      -0.380  -3.054   2.578  0.00  0.00    +0.210 HD
ENDBRANCH   9  25
TORSDOF 2
