REMARK  Name = ZINC36020660
REMARK  5 active torsions:
REMARK  status: ('A' for Active; 'I' for Inactive)
REMARK    1  A    between atoms: C_1  and  C_2
REMARK    2  A    between atoms: N_15  and  N_16
REMARK    3  A    between atoms: C_17  and  C_18
REMARK    4  A    between atoms: C_21  and  O_25
REMARK    5  A    between atoms: C_23  and  O_24
REMARK                            x       y       z     vdW  Elec       q    Type
REMARK                         _______ _______ _______ _____ _____    ______ ____
ROOT
ATOM      1  C   UNL     1       1.494   0.213   0.728  0.00  0.00    +0.088 C 
ATOM      2  C   UNL     1       1.764  -1.201   0.284  0.00  0.00    +0.129 A 
ATOM      3  N   UNL     1       1.410  -1.575  -0.932  0.00  0.00    -0.216 NA
ATOM      4  C   UNL     1       1.619  -2.803  -1.382  0.00  0.00    +0.150 A 
ATOM      5  C   UNL     1       2.246  -3.754  -0.529  0.00  0.00    +0.052 A 
ATOM      6  C   UNL     1       2.574  -5.154  -0.803  0.00  0.00    -0.025 A 
ATOM      7  C   UNL     1       3.174  -5.847   0.187  0.00  0.00    -0.004 A 
ATOM      8  S   UNL     1       3.338  -4.694   1.524  0.00  0.00    -0.073 S 
ATOM      9  C   UNL     1       2.596  -3.281   0.751  0.00  0.00    +0.114 A 
ATOM     10  N   UNL     1       2.354  -2.037   1.117  0.00  0.00    -0.225 NA
ATOM     11  C   UNL     1       3.607  -7.281   0.157  0.00  0.00    +0.043 C 
ATOM     12  C   UNL     1       2.932  -7.966  -1.039  0.00  0.00    +0.005 C 
ATOM     13  C   UNL     1       3.111  -7.082  -2.276  0.00  0.00    +0.005 C 
ATOM     14  C   UNL     1       2.260  -5.819  -2.140  0.00  0.00    +0.037 C 
ATOM     15  N   UNL     1       1.234  -3.155  -2.662  0.00  0.00    -0.220 N 
ATOM     16  H   UNL     1       1.174  -4.091  -2.910  0.00  0.00    +0.176 HD
ENDROOT
BRANCH  15  17
ATOM     17  N   UNL     1       0.930  -2.161  -3.601  0.00  0.00    -0.189 NA
ATOM     18  C   UNL     1       0.437  -2.488  -4.757  0.00  0.00    +0.141 C 
BRANCH  18  19
ATOM     19  C   UNL     1      -0.282  -3.764  -4.916  0.00  0.00    +0.036 A 
ATOM     20  C   UNL     1      -0.782  -4.432  -3.796  0.00  0.00    +0.016 A 
ATOM     21  C   UNL     1      -1.454  -5.625  -3.949  0.00  0.00    +0.046 A 
ATOM     22  C   UNL     1      -1.636  -6.168  -5.215  0.00  0.00    +0.120 A 
ATOM     23  C   UNL     1      -1.144  -5.512  -6.334  0.00  0.00    +0.091 A 
ATOM     24  C   UNL     1      -0.472  -4.310  -6.193  0.00  0.00    +0.129 A 
BRANCH  24  25
ATOM     25  O   UNL     1       0.006  -3.665  -7.288  0.00  0.00    -0.506 OA
ATOM     26  H   UNL     1       0.877  -3.971  -7.577  0.00  0.00    +0.292 HD
ENDBRANCH  24  25
BRANCH  22  27
ATOM     27  O   UNL     1      -2.300  -7.345  -5.358  0.00  0.00    -0.507 OA
ATOM     28  H   UNL     1      -3.254  -7.246  -5.478  0.00  0.00    +0.292 HD
ENDBRANCH  22  27
ENDBRANCH  18  19
ENDBRANCH  15  17
TORSDOF 4
