REMARK  Name = ZINC03838890
REMARK  10 active torsions:
REMARK  status: ('A' for Active; 'I' for Inactive)
REMARK    1  A    between atoms: C_1  and  S_2
REMARK    2  A    between atoms: S_2  and  C_3
REMARK    3  A    between atoms: C_3  and  C_4
REMARK    4  A    between atoms: C_8  and  N_28
REMARK    5  A    between atoms: C_11  and  C_13
REMARK    6  A    between atoms: N_15  and  C_16
REMARK    7  A    between atoms: C_16  and  C_18
REMARK    8  A    between atoms: C_16  and  C_25
REMARK    9  A    between atoms: C_18  and  C_19
REMARK   10  A    between atoms: N_31  and  C_32
REMARK                            x       y       z     vdW  Elec       q    Type
REMARK                         _______ _______ _______ _____ _____    ______ ____
ROOT
ATOM      1  C   UNL     1      -4.282   4.407  -3.204  0.00  0.00    +0.226 C 
ATOM      2  O   UNL     1      -3.145   4.205  -2.835  0.00  0.00    -0.275 OA
ATOM      3  N   UNL     1      -5.319   3.993  -2.449  0.00  0.00    -0.287 N 
ATOM      4  C   UNL     1      -6.742   4.172  -2.775  0.00  0.00    +0.131 C 
ATOM      5  C   UNL     1      -7.558   3.518  -1.639  0.00  0.00    +0.094 C 
ATOM      6  C   UNL     1      -6.550   2.512  -1.023  0.00  0.00    +0.055 C 
ATOM      7  C   UNL     1      -5.215   3.285  -1.160  0.00  0.00    +0.164 C 
ENDROOT
BRANCH   5   8
ATOM      8  N   UNL     1      -8.726   2.818  -2.178  0.00  0.00    -0.295 N 
ATOM      9  C   UNL     1      -9.905   3.462  -2.292  0.00  0.00    +0.304 C 
ATOM     10  O   UNL     1      -9.998   4.624  -1.947  0.00  0.00    -0.252 OA
ATOM     11  N   UNL     1     -10.979   2.817  -2.787  0.00  0.00    -0.267 N 
ATOM     12  H   UNL     1      -8.652   1.890  -2.453  0.00  0.00    +0.151 HD
ATOM     13  H   UNL     1     -10.890   1.911  -3.122  0.00  0.00    +0.156 HD
BRANCH  11  14
ATOM     14  C   UNL     1     -12.227   3.456  -2.819  0.00  0.00    +0.070 A 
ATOM     15  C   UNL     1     -12.302   4.823  -3.050  0.00  0.00    +0.029 A 
ATOM     16  C   UNL     1     -13.532   5.451  -3.080  0.00  0.00    +0.040 A 
ATOM     17  C   UNL     1     -14.691   4.719  -2.881  0.00  0.00    +0.126 A 
ATOM     18  C   UNL     1     -14.620   3.356  -2.651  0.00  0.00    +0.078 A 
ATOM     19  C   UNL     1     -13.391   2.721  -2.624  0.00  0.00    +0.147 A 
ATOM     20  F   UNL     1     -13.322   1.390  -2.405  0.00  0.00    -0.203 F 
ATOM     21  F   UNL     1     -15.892   5.336  -2.912  0.00  0.00    -0.205 F 
ENDBRANCH  11  14
ENDBRANCH   5   8
BRANCH   7  22
ATOM     22  C   UNL     1      -4.053   2.325  -1.181  0.00  0.00    +0.234 C 
ATOM     23  O   UNL     1      -3.540   2.017  -2.236  0.00  0.00    -0.274 OA
ATOM     24  N   UNL     1      -3.584   1.809  -0.028  0.00  0.00    -0.302 N 
ATOM     25  H   UNL     1      -3.994   2.055   0.816  0.00  0.00    +0.150 HD
BRANCH  24  26
ATOM     26  C   UNL     1      -2.455   0.876  -0.049  0.00  0.00    +0.163 C 
BRANCH  26  27
ATOM     27  C   UNL     1      -1.163   1.651  -0.059  0.00  0.00    +0.231 C 
ATOM     28  O   UNL     1      -1.183   2.864  -0.050  0.00  0.00    -0.274 OA
ATOM     29  N   UNL     1       0.016   0.998  -0.078  0.00  0.00    -0.328 N 
ATOM     30  H   UNL     1       0.032   0.028  -0.085  0.00  0.00    +0.145 HD
ATOM     31  H   UNL     1       0.847   1.497  -0.088  0.00  0.00    +0.145 HD
ENDBRANCH  26  27
BRANCH  26  32
ATOM     32  C   UNL     1      -2.506  -0.014   1.195  0.00  0.00    +0.067 C 
BRANCH  32  33
ATOM     33  C   UNL     1      -3.739  -0.879   1.143  0.00  0.00    -0.045 A 
ATOM     34  C   UNL     1      -4.920  -0.433   1.704  0.00  0.00    +0.004 A 
ATOM     35  C   UNL     1      -6.052  -1.225   1.653  0.00  0.00    +0.000 A 
ATOM     36  C   UNL     1      -6.000  -2.467   1.048  0.00  0.00    +0.000 A 
ATOM     37  C   UNL     1      -4.817  -2.915   0.492  0.00  0.00    +0.000 A 
ATOM     38  C   UNL     1      -3.686  -2.122   0.539  0.00  0.00    +0.004 A 
ENDBRANCH  32  33
ENDBRANCH  26  32
ENDBRANCH  24  26
ENDBRANCH   7  22
BRANCH   1  39
ATOM     39  C   UNL     1      -4.537   5.122  -4.505  0.00  0.00    +0.164 C 
BRANCH  39  41
ATOM     40  C   UNL     1      -3.428   6.391  -6.815  0.00  0.00    +0.085 C 
ATOM     41  S   UNL     1      -2.953   5.549  -5.280  0.00  0.00    -0.155 S 
ENDBRANCH  39  41
ENDBRANCH   1  39
TORSDOF 9
