REMARK  Name = ZINC39653991
REMARK  8 active torsions:
REMARK  status: ('A' for Active; 'I' for Inactive)
REMARK    1  A    between atoms: C_1  and  C_2
REMARK    2  A    between atoms: C_2  and  O_3
REMARK    3  A    between atoms: O_3  and  C_4
REMARK    4  A    between atoms: C_7  and  C_10
REMARK    5  A    between atoms: C_10  and  C_11
REMARK    6  A    between atoms: C_11  and  N_12
REMARK    7  A    between atoms: C_13  and  C_15
REMARK    8  A    between atoms: C_26  and  C_28
REMARK                            x       y       z     vdW  Elec       q    Type
REMARK                         _______ _______ _______ _____ _____    ______ ____
ROOT
ATOM      1  C   UNL     1      -2.477 -10.232   2.581  0.00  0.00    +0.100 C 
ATOM      2  C   UNL     1      -3.876 -10.605   2.042  0.00  0.00    +0.121 C 
ATOM      3  N   UNL     1      -4.295 -11.766   2.863  0.00  0.00    -0.297 N 
ATOM      4  C   UNL     1      -3.824 -11.440   4.230  0.00  0.00    +0.115 C 
ATOM      5  C   UNL     1      -2.447 -10.780   4.018  0.00  0.00    -0.004 C 
ATOM      6  C   UNL     1      -2.248  -9.642   5.014  0.00  0.00    -0.010 C 
ATOM      7  C   UNL     1      -2.163 -10.219   6.430  0.00  0.00    -0.082 C 
ATOM      8  N   UNL     1      -1.044 -11.166   6.509  0.00  0.00    +0.379 N 
ATOM      9  C   UNL     1      -1.289 -12.305   5.615  0.00  0.00    -0.082 C 
ATOM     10  C   UNL     1      -1.337 -11.816   4.164  0.00  0.00    -0.010 C 
ATOM     11  C   UNL     1      -4.955 -12.869   2.458  0.00  0.00    +0.260 C 
ATOM     12  O   UNL     1      -5.230 -13.739   3.256  0.00  0.00    -0.271 OA
ATOM     13  H   UNL     1      -0.192 -10.701   6.234  0.00  0.00    -0.086 HD
ATOM     14  H   UNL     1      -0.953 -11.498   7.457  0.00  0.00    -0.086 HD
ENDROOT
BRANCH  11  15
ATOM     15  C   UNL     1      -5.353 -13.021   1.012  0.00  0.00    +0.296 C 
ATOM     16  C   UNL     1      -6.389 -11.949   0.645  0.00  0.00    +0.283 C 
ATOM     17  O   UNL     1      -6.754 -12.131  -0.728  0.00  0.00    -0.484 OA
ATOM     18  C   UNL     1      -7.029 -13.403  -1.124  0.00  0.00    +0.162 A 
ATOM     19  C   UNL     1      -7.726 -13.612  -2.305  0.00  0.00    +0.049 A 
ATOM     20  C   UNL     1      -8.011 -14.899  -2.723  0.00  0.00    +0.004 A 
ATOM     21  C   UNL     1      -7.603 -15.980  -1.964  0.00  0.00    +0.004 A 
ATOM     22  C   UNL     1      -6.910 -15.779  -0.786  0.00  0.00    +0.049 A 
ATOM     23  C   UNL     1      -6.622 -14.490  -0.360  0.00  0.00    +0.163 A 
ATOM     24  O   UNL     1      -5.945 -14.308   0.806  0.00  0.00    -0.473 OA
ENDBRANCH  11  15
BRANCH   1  26
ATOM     25  N   UNL     1      -1.069  -8.201   2.453  0.00  0.00    -0.315 N 
ATOM     26  C   UNL     1      -2.300  -8.735   2.587  0.00  0.00    +0.218 C 
ATOM     27  O   UNL     1      -3.264  -8.011   2.714  0.00  0.00    -0.275 OA
ATOM     28  H   UNL     1      -0.298  -8.781   2.352  0.00  0.00    +0.149 HD
BRANCH  25  29
ATOM     29  C   UNL     1      -0.897  -6.747   2.459  0.00  0.00    +0.109 C 
BRANCH  29  30
ATOM     30  C   UNL     1       0.585  -6.408   2.291  0.00  0.00    +0.054 C 
BRANCH  30  34
ATOM     31  C   UNL     1       1.088  -2.164   2.309  0.00  0.00    +0.121 A 
ATOM     32  C   UNL     1       1.147  -2.876   3.498  0.00  0.00    +0.046 A 
ATOM     33  C   UNL     1       0.984  -4.247   3.490  0.00  0.00    +0.007 A 
ATOM     34  C   UNL     1       0.762  -4.911   2.297  0.00  0.00    -0.046 A 
ATOM     35  C   UNL     1       0.704  -4.205   1.110  0.00  0.00    +0.007 A 
ATOM     36  C   UNL     1       0.861  -2.832   1.114  0.00  0.00    +0.046 A 
BRANCH  31  37
ATOM     37  O   UNL     1       1.248  -0.815   2.314  0.00  0.00    -0.492 OA
BRANCH  37  39
ATOM     38  C   UNL     1       1.633   1.316   3.388  0.00  0.00    +0.048 C 
ATOM     39  C   UNL     1       1.479  -0.194   3.581  0.00  0.00    +0.225 C 
ENDBRANCH  37  39
ENDBRANCH  31  37
ENDBRANCH  30  34
ENDBRANCH  29  30
ENDBRANCH  25  29
ENDBRANCH   1  26
TORSDOF 7
