REMARK  Name = ZINC64622946
REMARK  5 active torsions:
REMARK  status: ('A' for Active; 'I' for Inactive)
REMARK    1  A    between atoms: C_1  and  C_2
REMARK    2  A    between atoms: C_2  and  O_3
REMARK    3  A    between atoms: O_3  and  C_4
REMARK    4  A    between atoms: C_9  and  N_10
REMARK    5  A    between atoms: C_26  and  C_28
REMARK                            x       y       z     vdW  Elec       q    Type
REMARK                         _______ _______ _______ _____ _____    ______ ____
ROOT
ATOM      1  N   UNL     1       0.694  -1.384  -4.802  0.00  0.00    -0.266 N 
ATOM      2  C   UNL     1       1.814  -1.911  -5.333  0.00  0.00    +0.307 C 
ATOM      3  O   UNL     1       1.963  -3.117  -5.365  0.00  0.00    -0.252 OA
ATOM      4  N   UNL     1       2.770  -1.101  -5.830  0.00  0.00    -0.276 N 
ATOM      5  C   UNL     1       2.642   0.352  -5.675  0.00  0.00    +0.114 C 
ATOM      6  C   UNL     1       3.874   0.899  -4.931  0.00  0.00    +0.052 C 
ATOM      7  C   UNL     1       5.083   0.255  -5.564  0.00  0.00    -0.035 C 
ATOM      8  C   UNL     1       6.198   0.777  -6.059  0.00  0.00    -0.001 A 
ATOM      9  C   UNL     1       6.712   2.157  -6.072  0.00  0.00    +0.010 A 
ATOM     10  C   UNL     1       7.906   2.346  -6.694  0.00  0.00    +0.001 A 
ATOM     11  C   UNL     1       8.631   1.313  -7.297  0.00  0.00    +0.002 A 
ATOM     12  C   UNL     1       8.238   0.015  -7.325  0.00  0.00    +0.026 A 
ATOM     13  C   UNL     1       7.002  -0.310  -6.696  0.00  0.00    +0.043 A 
ATOM     14  N   UNL     1       6.405  -1.458  -6.555  0.00  0.00    -0.375 N 
ATOM     15  C   UNL     1       5.191  -1.252  -5.764  0.00  0.00    +0.131 C 
ATOM     16  C   UNL     1       3.934  -1.683  -6.516  0.00  0.00    +0.134 C 
ATOM     17  H   UNL     1       0.542  -0.427  -4.841  0.00  0.00    +0.156 HD
ATOM     18  H   UNL     1       6.713  -2.305  -6.913  0.00  0.00    +0.160 HD
ENDROOT
BRANCH  16  19
ATOM     19  C   UNL     1       3.829  -3.187  -6.512  0.00  0.00    -0.025 A 
ATOM     20  C   UNL     1       4.066  -3.892  -5.347  0.00  0.00    +0.008 A 
ATOM     21  C   UNL     1       3.970  -5.271  -5.341  0.00  0.00    +0.038 A 
ATOM     22  C   UNL     1       3.636  -5.946  -6.503  0.00  0.00    +0.123 A 
ATOM     23  C   UNL     1       3.399  -5.238  -7.670  0.00  0.00    +0.038 A 
ATOM     24  C   UNL     1       3.491  -3.859  -7.671  0.00  0.00    +0.008 A 
ATOM     25  F   UNL     1       3.543  -7.293  -6.499  0.00  0.00    -0.205 F 
ENDBRANCH  16  19
BRANCH   1  31
ATOM     26  C   UNL     1      -1.054  -1.732  -3.163  0.00  0.00    +0.142 A 
ATOM     27  C   UNL     1      -1.992  -2.560  -2.568  0.00  0.00    +0.047 A 
ATOM     28  C   UNL     1      -2.126  -3.869  -2.992  0.00  0.00    +0.004 A 
ATOM     29  C   UNL     1      -1.327  -4.356  -4.010  0.00  0.00    +0.002 A 
ATOM     30  C   UNL     1      -0.389  -3.535  -4.609  0.00  0.00    +0.027 A 
ATOM     31  C   UNL     1      -0.253  -2.219  -4.192  0.00  0.00    +0.077 A 
BRANCH  26  32
ATOM     32  O   UNL     1      -0.921  -0.444  -2.747  0.00  0.00    -0.490 OA
BRANCH  32  34
ATOM     33  C   UNL     1      -1.482   1.452  -1.358  0.00  0.00    +0.048 C 
ATOM     34  C   UNL     1      -1.776  -0.013  -1.686  0.00  0.00    +0.226 C 
ENDBRANCH  32  34
ENDBRANCH  26  32
ENDBRANCH   1  31
TORSDOF 4
