REMARK  Name = ZINC58699215
REMARK  6 active torsions:
REMARK  status: ('A' for Active; 'I' for Inactive)
REMARK    1  A    between atoms: C_1  and  C_2
REMARK    2  A    between atoms: C_6  and  O_9
REMARK    3  A    between atoms: C_7  and  C_8
REMARK    4  A    between atoms: O_9  and  C_10
REMARK    5  A    between atoms: C_10  and  C_11
REMARK    6  A    between atoms: C_11  and  C_12
REMARK                            x       y       z     vdW  Elec       q    Type
REMARK                         _______ _______ _______ _____ _____    ______ ____
ROOT
ATOM      1  C   UNL     1       0.102  -6.301   3.594  0.00  0.00    +0.223 C 
ATOM      2  O   UNL     1       0.105  -6.844   2.510  0.00  0.00    -0.275 OA
ATOM      3  N   UNL     1       0.117  -7.042   4.719  0.00  0.00    -0.261 N 
ATOM      4  C   UNL     1       0.109  -6.409   6.046  0.00  0.00    +0.209 C 
ATOM      5  C   UNL     1       1.076  -7.136   6.945  0.00  0.00    +0.235 C 
ATOM      6  O   UNL     1       1.624  -6.537   7.845  0.00  0.00    -0.274 OA
ATOM      7  N   UNL     1       1.337  -8.444   6.761  0.00  0.00    -0.283 N 
ATOM      8  C   UNL     1       0.756  -9.148   5.700  0.00  0.00    +0.055 A 
ATOM      9  C   UNL     1       0.136  -8.445   4.662  0.00  0.00    +0.058 A 
ATOM     10  C   UNL     1      -0.442  -9.124   3.606  0.00  0.00    +0.025 A 
ATOM     11  C   UNL     1      -0.411 -10.508   3.580  0.00  0.00    +0.002 A 
ATOM     12  C   UNL     1       0.194 -11.208   4.606  0.00  0.00    +0.002 A 
ATOM     13  C   UNL     1       0.785 -10.532   5.668  0.00  0.00    +0.025 A 
ATOM     14  H   UNL     1       1.936  -8.904   7.370  0.00  0.00    +0.155 HD
ENDROOT
BRANCH   1  15
ATOM     15  C   UNL     1       0.083  -4.796   3.683  0.00  0.00    +0.137 C 
BRANCH  15  16
ATOM     16  C   UNL     1       0.069  -4.202   2.274  0.00  0.00    +0.238 C 
BRANCH  16  17
ATOM     17  O   UNL     1       0.050  -2.776   2.358  0.00  0.00    -0.491 OA
BRANCH  17  23
ATOM     18  C   UNL     1      -0.018   1.503   0.010  0.00  0.00    +0.044 C 
ATOM     19  C   UNL     1       0.002  -0.004   0.002  0.00  0.00    -0.044 A 
ATOM     20  C   UNL     1       0.006  -0.688  -1.200  0.00  0.00    +0.004 A 
ATOM     21  C   UNL     1       0.024  -2.071  -1.211  0.00  0.00    +0.004 A 
ATOM     22  C   UNL     1       0.039  -2.772  -0.020  0.00  0.00    +0.046 A 
ATOM     23  C   UNL     1       0.035  -2.088   1.186  0.00  0.00    +0.124 A 
ATOM     24  C   UNL     1       0.023  -0.700   1.195  0.00  0.00    -0.006 A 
ATOM     25  C   UNL     1       0.026   0.046   2.504  0.00  0.00    +0.048 C 
ENDBRANCH  17  23
ENDBRANCH  16  17
ENDBRANCH  15  16
ENDBRANCH   1  15
TORSDOF 4
