REMARK  Name = ZINC61663957
REMARK  7 active torsions:
REMARK  status: ('A' for Active; 'I' for Inactive)
REMARK    1  A    between atoms: C_1  and  C_2
REMARK    2  A    between atoms: C_4  and  N_20
REMARK    3  A    between atoms: C_7  and  C_8
REMARK    4  A    between atoms: C_8  and  O_10
REMARK    5  A    between atoms: O_10  and  C_11
REMARK    6  A    between atoms: C_11  and  C_12
REMARK    7  A    between atoms: C_17  and  C_18
REMARK                            x       y       z     vdW  Elec       q    Type
REMARK                         _______ _______ _______ _____ _____    ______ ____
ROOT
ATOM      1  C   UNL     1       0.242   0.018   2.478  0.00  0.00    +0.340 C 
ATOM      2  O   UNL     1       0.135   1.228   2.499  0.00  0.00    -0.245 OA
ENDROOT
BRANCH   1   9
ATOM      3  C   UNL     1      -0.512   1.452   0.082  0.00  0.00    +0.044 C 
ATOM      4  C   UNL     1      -0.235  -0.028   0.036  0.00  0.00    -0.035 A 
ATOM      5  C   UNL     1      -0.334  -0.713  -1.153  0.00  0.00    +0.027 A 
ATOM      6  C   UNL     1      -0.078  -2.081  -1.192  0.00  0.00    +0.025 A 
ATOM      7  C   UNL     1       0.278  -2.759  -0.029  0.00  0.00    +0.023 A 
ATOM      8  C   UNL     1       0.378  -2.085   1.155  0.00  0.00    +0.017 A 
ATOM      9  C   UNL     1       0.129  -0.710   1.202  0.00  0.00    +0.062 A 
BRANCH   6  10
ATOM     10  N   UNL     1      -0.178  -2.772  -2.394  0.00  0.00    -0.358 N 
ATOM     11  H   UNL     1      -0.426  -2.301  -3.205  0.00  0.00    +0.142 HD
ATOM     12  H   UNL     1       0.001  -3.725  -2.422  0.00  0.00    +0.142 HD
ENDBRANCH   6  10
ENDBRANCH   1   9
BRANCH   1  13
ATOM     13  O   UNL     1       0.465  -0.658   3.623  0.00  0.00    -0.456 OA
BRANCH  13  14
ATOM     14  C   UNL     1       0.564   0.111   4.822  0.00  0.00    +0.270 C 
BRANCH  14  15
ATOM     15  C   UNL     1       0.812  -0.808   5.990  0.00  0.00    +0.026 A 
ATOM     16  C   UNL     1       0.915  -2.176   5.798  0.00  0.00    +0.011 A 
ATOM     17  C   UNL     1       1.145  -2.985   6.901  0.00  0.00    +0.020 A 
ATOM     18  C   UNL     1       1.263  -2.406   8.154  0.00  0.00    +0.112 A 
ATOM     19  N   UNL     1       1.161  -1.104   8.310  0.00  0.00    -0.244 NA
ATOM     20  C   UNL     1       0.947  -0.294   7.279  0.00  0.00    +0.146 A 
BRANCH  20  21
ATOM     21  C   UNL     1       0.848   1.118   7.494  0.00  0.00    +0.119 C 
ATOM     22  N   UNL     1       0.770   2.239   7.665  0.00  0.00    -0.189 NA
ENDBRANCH  20  21
ENDBRANCH  14  15
ENDBRANCH  13  14
ENDBRANCH   1  13
TORSDOF 6
