REMARK  Name = ZINC04304594
REMARK  9 active torsions:
REMARK  status: ('A' for Active; 'I' for Inactive)
REMARK    1  A    between atoms: C_1  and  C_2
REMARK    2  A    between atoms: C_2  and  C_3
REMARK    3  A    between atoms: C_2  and  N_4
REMARK    4  A    between atoms: C_5  and  C_7
REMARK    5  A    between atoms: C_7  and  O_8
REMARK    6  A    between atoms: O_8  and  C_9
REMARK    7  A    between atoms: C_12  and  C_16
REMARK    8  A    between atoms: C_16  and  N_17
REMARK    9  A    between atoms: N_20  and  C_23
REMARK                            x       y       z     vdW  Elec       q    Type
REMARK                         _______ _______ _______ _____ _____    ______ ____
ROOT
ATOM      1  C   UNL     1      -5.268  -1.634  -2.639  0.00  0.00    +0.202 A 
ATOM      2  C   UNL     1      -6.014  -2.009  -1.576  0.00  0.00    +0.244 A 
ATOM      3  O   UNL     1      -7.263  -2.465  -1.740  0.00  0.00    -0.466 OA
ATOM      4  C   UNL     1      -7.828  -2.570  -2.948  0.00  0.00    +0.092 A 
ATOM      5  C   UNL     1      -7.156  -2.218  -4.063  0.00  0.00    +0.094 A 
ATOM      6  C   UNL     1      -5.833  -1.725  -3.941  0.00  0.00    +0.226 A 
ATOM      7  O   UNL     1      -5.194  -1.391  -4.927  0.00  0.00    -0.284 OA
ENDROOT
BRANCH   1   8
ATOM      8  O   UNL     1      -4.000  -1.171  -2.466  0.00  0.00    -0.476 OA
BRANCH   8   9
ATOM      9  C   UNL     1      -3.509  -1.111  -1.125  0.00  0.00    +0.324 C 
BRANCH   9  11
ATOM     10  N   UNL     1      -1.429  -0.435   0.030  0.00  0.00    -0.310 N 
ATOM     11  C   UNL     1      -2.099  -0.579  -1.130  0.00  0.00    +0.251 C 
ATOM     12  O   UNL     1      -1.567  -0.280  -2.178  0.00  0.00    -0.272 OA
ATOM     13  H   UNL     1      -1.854  -0.674   0.869  0.00  0.00    +0.149 HD
BRANCH  10  15
ATOM     14  C   UNL     1      -0.091   1.613   0.025  0.00  0.00    +0.027 C 
ATOM     15  C   UNL     1      -0.059   0.083   0.026  0.00  0.00    +0.067 C 
ATOM     16  C   UNL     1       0.677  -0.410   1.273  0.00  0.00    +0.027 C 
ENDBRANCH  10  15
ENDBRANCH   9  11
ENDBRANCH   8   9
ENDBRANCH   1   8
BRANCH   4  17
ATOM     17  C   UNL     1      -9.238  -3.090  -3.065  0.00  0.00    -0.003 C 
BRANCH  17  18
ATOM     18  N   UNL     1      -9.280  -4.492  -2.626  0.00  0.00    +0.386 N 
ATOM     19  C   UNL     1      -8.945  -4.565  -1.198  0.00  0.00    -0.059 C 
ATOM     20  C   UNL     1      -8.877  -6.034  -0.765  0.00  0.00    +0.086 C 
ATOM     21  N   UNL     1     -10.146  -6.685  -1.126  0.00  0.00    -0.333 N 
ATOM     22  C   UNL     1     -10.642  -6.524  -2.502  0.00  0.00    +0.086 C 
ATOM     23  C   UNL     1     -10.627  -5.033  -2.852  0.00  0.00    -0.059 C 
ATOM     24  H   UNL     1      -8.610  -5.029  -3.154  0.00  0.00    -0.081 HD
BRANCH  21  25
ATOM     25  C   UNL     1     -10.860  -7.435  -0.188  0.00  0.00    +0.031 A 
ATOM     26  C   UNL     1     -12.109  -7.949  -0.513  0.00  0.00    +0.023 A 
ATOM     27  C   UNL     1     -12.813  -8.690   0.415  0.00  0.00    +0.003 A 
ATOM     28  C   UNL     1     -12.276  -8.921   1.668  0.00  0.00    +0.020 A 
ATOM     29  C   UNL     1     -11.032  -8.411   1.996  0.00  0.00    +0.043 A 
ATOM     30  C   UNL     1     -10.320  -7.673   1.069  0.00  0.00    +0.043 A 
ATOM     31 CL   UNL     1     -10.362  -8.704   3.571  0.00  0.00    -0.083 Cl
ENDBRANCH  21  25
ENDBRANCH  17  18
ENDBRANCH   4  17
TORSDOF 7
