REMARK  Name = ZINC38829476
REMARK  5 active torsions:
REMARK  status: ('A' for Active; 'I' for Inactive)
REMARK    1  A    between atoms: C_4  and  C_7
REMARK    2  A    between atoms: C_7  and  C_8
REMARK    3  A    between atoms: C_8  and  N_9
REMARK    4  A    between atoms: C_25  and  C_28
REMARK    5  A    between atoms: C_33  and  O_34
REMARK                            x       y       z     vdW  Elec       q    Type
REMARK                         _______ _______ _______ _____ _____    ______ ____
ROOT
ATOM      1  N   UNL     1       5.450  -1.678   1.382  0.00  0.00    -0.315 N 
ATOM      2  C   UNL     1       6.059  -2.018   2.559  0.00  0.00    +0.198 A 
ATOM      3  N   UNL     1       7.251  -2.678   2.505  0.00  0.00    -0.295 N 
ATOM      4  H   UNL     1       7.644  -2.894   1.645  0.00  0.00    +0.172 HD
ATOM      5  C   UNL     1       7.888  -3.033   3.645  0.00  0.00    +0.262 A 
ATOM      6  O   UNL     1       8.952  -3.623   3.618  0.00  0.00    -0.267 OA
ATOM      7  C   UNL     1       7.244  -2.679   4.918  0.00  0.00    +0.087 A 
ATOM      8  C   UNL     1       7.815  -3.000   6.144  0.00  0.00    -0.019 A 
ATOM      9  C   UNL     1       7.128  -2.618   7.300  0.00  0.00    +0.040 A 
ATOM     10  C   UNL     1       5.904  -1.942   7.188  0.00  0.00    +0.124 A 
ATOM     11  N   UNL     1       5.390  -1.655   6.014  0.00  0.00    -0.235 NA
ATOM     12  C   UNL     1       6.005  -1.992   4.879  0.00  0.00    +0.169 A 
ATOM     13  N   UNL     1       5.471  -1.688   3.684  0.00  0.00    -0.196 NA
ATOM     14  C   UNL     1       7.690  -2.922   8.624  0.00  0.00    +0.165 C 
ATOM     15  O   UNL     1       7.231  -2.425   9.631  0.00  0.00    -0.292 OA
ATOM     16  C   UNL     1       8.864  -3.879   8.687  0.00  0.00    +0.088 C 
ATOM     17  C   UNL     1       9.820  -3.509   7.546  0.00  0.00    +0.034 C 
ATOM     18  C   UNL     1       9.123  -3.733   6.206  0.00  0.00    +0.045 C 
ATOM     19  H   UNL     1       5.864  -1.911   0.536  0.00  0.00    +0.149 HD
ENDROOT
BRANCH  17  20
ATOM     20  C   UNL     1      11.052  -4.374   7.623  0.00  0.00    -0.002 A 
ATOM     21  C   UNL     1      10.940  -5.747   7.526  0.00  0.00    +0.007 A 
ATOM     22  C   UNL     1      12.069  -6.541   7.597  0.00  0.00    +0.001 A 
ATOM     23  C   UNL     1      13.314  -5.963   7.765  0.00  0.00    +0.004 A 
ATOM     24  C   UNL     1      13.432  -4.590   7.862  0.00  0.00    +0.046 A 
ATOM     25  C   UNL     1      12.300  -3.791   7.786  0.00  0.00    +0.120 A 
BRANCH  25  26
ATOM     26  O   UNL     1      12.414  -2.440   7.876  0.00  0.00    -0.506 OA
ATOM     27  H   UNL     1      12.356  -2.100   8.780  0.00  0.00    +0.292 HD
ENDBRANCH  25  26
ENDBRANCH  17  20
BRANCH   1  28
ATOM     28  C   UNL     1       4.171  -0.963   1.399  0.00  0.00    +0.109 C 
BRANCH  28  29
ATOM     29  C   UNL     1       3.711  -0.707  -0.038  0.00  0.00    +0.054 C 
BRANCH  29  33
ATOM     30  C   UNL     1      -0.017   1.378   0.010  0.00  0.00    +0.000 A 
ATOM     31  C   UNL     1       1.171   2.086   0.002  0.00  0.00    +0.000 A 
ATOM     32  C   UNL     1       2.377   1.411  -0.013  0.00  0.00    +0.004 A 
ATOM     33  C   UNL     1       2.396   0.029  -0.020  0.00  0.00    -0.046 A 
ATOM     34  C   UNL     1       1.208  -0.679  -0.012  0.00  0.00    +0.004 A 
ATOM     35  C   UNL     1       0.002  -0.004   0.002  0.00  0.00    +0.000 A 
ENDBRANCH  29  33
ENDBRANCH  28  29
ENDBRANCH   1  28
TORSDOF 5
