REMARK  Name = ZINC20832467
REMARK  10 active torsions:
REMARK  status: ('A' for Active; 'I' for Inactive)
REMARK    1  A    between atoms: C_1  and  O_2
REMARK    2  A    between atoms: O_2  and  C_3
REMARK    3  A    between atoms: C_5  and  N_10
REMARK    4  A    between atoms: C_11  and  C_13
REMARK    5  A    between atoms: C_13  and  C_14
REMARK    6  A    between atoms: C_14  and  S_15
REMARK    7  A    between atoms: S_15  and  C_16
REMARK    8  A    between atoms: N_21  and  N_22
REMARK    9  A    between atoms: C_23  and  C_24
REMARK   10  A    between atoms: C_29  and  O_30
REMARK                            x       y       z     vdW  Elec       q    Type
REMARK                         _______ _______ _______ _____ _____    ______ ____
ROOT
ATOM      1  C   UNL     1      -6.994   0.293  -0.540  0.00  0.00    +0.210 A 
ATOM      2  N   UNL     1      -6.058  -0.697  -0.624  0.00  0.00    -0.186 NA
ATOM      3  C   UNL     1      -4.840  -0.111  -0.830  0.00  0.00    +0.232 A 
ATOM      4  N   UNL     1      -5.016   1.188  -0.866  0.00  0.00    -0.245 N 
ATOM      5  N   UNL     1      -6.382   1.444  -0.688  0.00  0.00    -0.144 NA
ATOM      6  N   UNL     1      -3.629  -0.774  -0.970  0.00  0.00    -0.205 N 
ATOM      7  H   UNL     1      -3.594  -1.872  -0.918  0.00  0.00    +0.177 HD
ATOM      8  H   UNL     1      -4.155   1.856  -1.016  0.00  0.00    +0.192 HD
ENDROOT
BRANCH   6   9
ATOM      9  N   UNL     1      -2.451  -0.044  -1.177  0.00  0.00    -0.187 NA
ATOM     10  C   UNL     1      -1.318  -0.664  -1.308  0.00  0.00    +0.142 C 
BRANCH  10  11
ATOM     11  C   UNL     1      -0.079   0.103  -1.526  0.00  0.00    +0.036 A 
ATOM     12  C   UNL     1       1.143  -0.560  -1.669  0.00  0.00    +0.013 A 
ATOM     13  C   UNL     1       2.298   0.164  -1.873  0.00  0.00    +0.001 A 
ATOM     14  C   UNL     1       2.253   1.546  -1.939  0.00  0.00    +0.004 A 
ATOM     15  C   UNL     1       1.051   2.214  -1.799  0.00  0.00    +0.046 A 
ATOM     16  C   UNL     1      -0.119   1.502  -1.593  0.00  0.00    +0.125 A 
BRANCH  16  17
ATOM     17  O   UNL     1      -1.302   2.158  -1.462  0.00  0.00    -0.506 OA
ATOM     18  H   UNL     1      -1.331   3.256  -1.515  0.00  0.00    +0.292 HD
ENDBRANCH  16  17
ENDBRANCH  10  11
ENDBRANCH   6   9
BRANCH   1  19
ATOM     19  S   UNL     1      -8.722   0.066  -0.279  0.00  0.00    -0.084 S 
BRANCH  19  20
ATOM     20  C   UNL     1      -9.390   1.752  -0.271  0.00  0.00    +0.086 C 
BRANCH  20  21
ATOM     21  C   UNL     1     -10.903   1.700  -0.050  0.00  0.00    +0.107 C 
BRANCH  21  23
ATOM     22  N   UNL     1     -12.779   3.301   0.138  0.00  0.00    -0.285 N 
ATOM     23  C   UNL     1     -11.459   3.101  -0.042  0.00  0.00    +0.218 C 
ATOM     24  O   UNL     1     -10.717   4.048  -0.199  0.00  0.00    -0.275 OA
ATOM     25  H   UNL     1     -13.464   2.442   0.193  0.00  0.00    +0.155 HD
BRANCH  22  28
ATOM     26  C   UNL     1     -15.036   6.198  -0.115  0.00  0.00    +0.140 A 
ATOM     27  C   UNL     1     -14.543   4.908  -0.233  0.00  0.00    +0.070 A 
ATOM     28  C   UNL     1     -13.280   4.603   0.255  0.00  0.00    +0.037 A 
ATOM     29  C   UNL     1     -12.515   5.590   0.864  0.00  0.00    +0.025 A 
ATOM     30  C   UNL     1     -13.007   6.876   0.975  0.00  0.00    +0.025 A 
ATOM     31  C   UNL     1     -14.265   7.182   0.490  0.00  0.00    +0.083 A 
ATOM     32 CL   UNL     1     -14.883   8.798   0.638  0.00  0.00    -0.080 Cl
BRANCH  26  34
ATOM     33  C   UNL     1     -17.009   5.439  -1.202  0.00  0.00    +0.277 C 
ATOM     34  O   UNL     1     -16.272   6.500  -0.592  0.00  0.00    -0.494 OA
ENDBRANCH  26  34
ENDBRANCH  22  28
ENDBRANCH  21  23
ENDBRANCH  20  21
ENDBRANCH  19  20
ENDBRANCH   1  19
TORSDOF 9
