REMARK  Name = ZINC25602576
REMARK  4 active torsions:
REMARK  status: ('A' for Active; 'I' for Inactive)
REMARK    1  A    between atoms: C_6  and  C_7
REMARK    2  A    between atoms: C_7  and  C_8
REMARK    3  A    between atoms: C_13  and  C_17
REMARK    4  A    between atoms: N_19  and  C_20
REMARK                            x       y       z     vdW  Elec       q    Type
REMARK                         _______ _______ _______ _____ _____    ______ ____
ROOT
ATOM      1  C   UNL     1       7.102   1.939  -7.582  0.00  0.00    +0.136 C 
ATOM      2  C   UNL     1       7.971   1.576  -6.411  0.00  0.00    +0.227 C 
ATOM      3  O   UNL     1       8.991   2.216  -6.267  0.00  0.00    -0.275 OA
ATOM      4  N   UNL     1       7.733   0.630  -5.526  0.00  0.00    -0.302 N 
ATOM      5  C   UNL     1       6.563  -0.199  -5.339  0.00  0.00    +0.169 C 
ATOM      6  C   UNL     1       5.739  -0.346  -6.618  0.00  0.00    +0.101 C 
ATOM      7  S   UNL     1       5.418   1.320  -7.280  0.00  0.00    -0.145 S 
ATOM      8  H   UNL     1       8.603   0.511  -4.864  0.00  0.00    +0.150 HD
ENDROOT
BRANCH   5   9
ATOM      9  C   UNL     1       5.698   0.415  -4.269  0.00  0.00    +0.238 C 
ATOM     10  O   UNL     1       5.825   1.587  -3.984  0.00  0.00    -0.273 OA
ATOM     11  N   UNL     1       4.782  -0.339  -3.628  0.00  0.00    -0.284 N 
ATOM     12  H   UNL     1       4.726  -1.420  -3.824  0.00  0.00    +0.155 HD
BRANCH  11  13
ATOM     13  C   UNL     1       3.902   0.254  -2.713  0.00  0.00    +0.035 A 
ATOM     14  C   UNL     1       3.475  -0.458  -1.601  0.00  0.00    +0.027 A 
ATOM     15  C   UNL     1       2.607   0.123  -0.695  0.00  0.00    +0.049 A 
ATOM     16  C   UNL     1       2.163   1.418  -0.896  0.00  0.00    +0.142 A 
ATOM     17  C   UNL     1       2.590   2.135  -2.013  0.00  0.00    +0.077 A 
ATOM     18  C   UNL     1       3.459   1.554  -2.920  0.00  0.00    +0.050 A 
ATOM     19  N   UNL     1       2.130   3.446  -2.203  0.00  0.00    -0.280 N 
ATOM     20  C   UNL     1       1.552   4.094  -1.167  0.00  0.00    +0.255 C 
ATOM     21  O   UNL     1       1.120   5.217  -1.317  0.00  0.00    -0.272 OA
ATOM     22  C   UNL     1       1.446   3.415   0.174  0.00  0.00    +0.325 C 
ATOM     23  O   UNL     1       1.310   2.003  -0.011  0.00  0.00    -0.481 OA
ATOM     24  H   UNL     1       2.243   3.932  -3.183  0.00  0.00    +0.155 HD
ENDBRANCH  11  13
ENDBRANCH   5   9
BRANCH   1  25
ATOM     25  C   UNL     1       7.068   3.461  -7.742  0.00  0.00    +0.058 C 
BRANCH  25  31
ATOM     26  C   UNL     1       6.958   3.942 -10.195  0.00  0.00    +0.006 A 
ATOM     27  C   UNL     1       6.252   4.264 -11.339  0.00  0.00    +0.038 A 
ATOM     28  C   UNL     1       4.884   4.473 -11.272  0.00  0.00    +0.123 A 
ATOM     29  C   UNL     1       4.225   4.353 -10.060  0.00  0.00    +0.038 A 
ATOM     30  C   UNL     1       4.933   4.025  -8.919  0.00  0.00    +0.006 A 
ATOM     31  C   UNL     1       6.298   3.817  -8.987  0.00  0.00    -0.046 A 
ATOM     32  F   UNL     1       4.194   4.793 -12.388  0.00  0.00    -0.205 F 
ENDBRANCH  25  31
ENDBRANCH   1  25
TORSDOF 4
