REMARK  Name = ZINC20246251
REMARK  8 active torsions:
REMARK  status: ('A' for Active; 'I' for Inactive)
REMARK    1  A    between atoms: C_1  and  C_2
REMARK    2  A    between atoms: C_6  and  N_8
REMARK    3  A    between atoms: C_9  and  C_25
REMARK    4  A    between atoms: C_11  and  C_14
REMARK    5  A    between atoms: C_12  and  C_13
REMARK    6  A    between atoms: N_15  and  N_16
REMARK    7  A    between atoms: C_19  and  C_24
REMARK    8  A    between atoms: C_21  and  C_23
REMARK                            x       y       z     vdW  Elec       q    Type
REMARK                         _______ _______ _______ _____ _____    ______ ____
ROOT
ATOM      1  N   UNL     1       0.052  -2.798   2.395  0.00  0.00    -0.317 N 
ATOM      2  C   UNL     1      -0.959  -2.806   3.312  0.00  0.00    +0.022 A 
ATOM      3  C   UNL     1      -0.604  -3.591   4.346  0.00  0.00    +0.032 A 
ATOM      4  C   UNL     1       0.734  -4.107   4.039  0.00  0.00    +0.016 A 
ATOM      5  C   UNL     1       1.076  -3.586   2.825  0.00  0.00    +0.030 A 
ATOM      6  C   UNL     1       2.367  -3.837   2.089  0.00  0.00    +0.064 C 
ATOM      7  C   UNL     1      -2.261  -2.058   3.187  0.00  0.00    +0.064 C 
ENDROOT
BRANCH   1  13
ATOM      8  C   UNL     1      -0.018   1.503   0.010  0.00  0.00    +0.044 C 
ATOM      9  C   UNL     1       0.002  -0.004   0.002  0.00  0.00    -0.048 A 
ATOM     10  C   UNL     1       0.006  -0.688  -1.200  0.00  0.00    +0.003 A 
ATOM     11  C   UNL     1       0.025  -2.071  -1.212  0.00  0.00    +0.002 A 
ATOM     12  C   UNL     1       0.041  -2.773  -0.022  0.00  0.00    +0.026 A 
ATOM     13  C   UNL     1       0.037  -2.089   1.186  0.00  0.00    +0.047 A 
ATOM     14  C   UNL     1       0.023  -0.700   1.194  0.00  0.00    +0.029 A 
ENDBRANCH   1  13
BRANCH   4  15
ATOM     15  C   UNL     1       1.545  -5.012   4.874  0.00  0.00    +0.140 C 
ATOM     16  N   UNL     1       2.720  -5.387   4.472  0.00  0.00    -0.187 NA
BRANCH  16  17
ATOM     17  N   UNL     1       3.491  -6.247   5.265  0.00  0.00    -0.205 N 
ATOM     18  C   UNL     1       4.744  -6.647   4.835  0.00  0.00    +0.235 A 
ATOM     19  N   UNL     1       5.202  -6.203   3.674  0.00  0.00    -0.218 NA
ATOM     20  C   UNL     1       6.396  -6.566   3.235  0.00  0.00    +0.044 A 
ATOM     21  C   UNL     1       7.169  -7.421   4.005  0.00  0.00    +0.046 A 
ATOM     22  C   UNL     1       6.660  -7.866   5.215  0.00  0.00    +0.044 A 
ATOM     23  N   UNL     1       5.460  -7.461   5.598  0.00  0.00    -0.218 NA
ATOM     24  C   UNL     1       7.465  -8.796   6.085  0.00  0.00    +0.066 C 
ATOM     25  C   UNL     1       6.909  -6.057   1.912  0.00  0.00    +0.066 C 
ATOM     26  H   UNL     1       3.146  -6.562   6.115  0.00  0.00    +0.177 HD
ENDBRANCH  16  17
ENDBRANCH   4  15
TORSDOF 3
