REMARK  Name = ZINC66610146
REMARK  12 active torsions:
REMARK  status: ('A' for Active; 'I' for Inactive)
REMARK    1  A    between atoms: C_1  and  C_2
REMARK    2  A    between atoms: C_2  and  C_3
REMARK    3  A    between atoms: C_3  and  C_5
REMARK    4  A    between atoms: C_3  and  C_6
REMARK    5  A    between atoms: C_6  and  C_8
REMARK    6  A    between atoms: C_6  and  N_11
REMARK    7  A    between atoms: C_12  and  C_14
REMARK    8  A    between atoms: C_16  and  C_25
REMARK    9  A    between atoms: C_20  and  C_24
REMARK   10  A    between atoms: N_22  and  C_23
REMARK   11  A    between atoms: C_25  and  C_26
REMARK   12  A    between atoms: C_25  and  C_27
REMARK                            x       y       z     vdW  Elec       q    Type
REMARK                         _______ _______ _______ _____ _____    ______ ____
ROOT
ATOM      1  N   UNL     1       1.490  -2.807  -2.381  0.00  0.00    -0.300 N 
ATOM      2  C   UNL     1       1.217  -4.126  -2.409  0.00  0.00    +0.245 C 
ATOM      3  O   UNL     1       0.405  -4.596  -1.637  0.00  0.00    -0.270 OA
ATOM      4  H   UNL     1       2.138  -2.432  -2.998  0.00  0.00    +0.150 HD
ENDROOT
BRANCH   2   5
ATOM      5  C   UNL     1       1.907  -5.003  -3.380  0.00  0.00    +0.051 A 
ATOM      6  C   UNL     1       2.150  -4.580  -4.685  0.00  0.00    +0.037 A 
ATOM      7  C   UNL     1       2.800  -5.431  -5.566  0.00  0.00    +0.047 A 
ATOM      8  N   UNL     1       3.193  -6.632  -5.202  0.00  0.00    -0.232 NA
ATOM      9  C   UNL     1       2.993  -7.095  -3.977  0.00  0.00    +0.159 A 
ATOM     10  C   UNL     1       2.345  -6.295  -3.014  0.00  0.00    +0.054 A 
ATOM     11  C   UNL     1       2.285  -7.047  -1.821  0.00  0.00    +0.070 A 
ATOM     12  N   UNL     1       2.849  -8.202  -2.030  0.00  0.00    -0.174 NA
ATOM     13  N   UNL     1       3.295  -8.278  -3.355  0.00  0.00    -0.249 N 
ATOM     14  C   UNL     1       3.979  -9.420  -3.967  0.00  0.00    +0.174 C 
ATOM     15  C   UNL     1       1.671  -6.590  -0.523  0.00  0.00    +0.068 C 
BRANCH   7  16
ATOM     16  C   UNL     1       3.061  -4.969  -6.976  0.00  0.00    +0.032 C 
ATOM     17  C   UNL     1       1.828  -5.243  -7.839  0.00  0.00    +0.014 C 
ATOM     18  C   UNL     1       3.359  -3.468  -6.974  0.00  0.00    +0.014 C 
ENDBRANCH   7  16
ENDBRANCH   2   5
BRANCH   1  19
ATOM     19  C   UNL     1       0.807  -1.938  -1.419  0.00  0.00    +0.162 C 
BRANCH  19  20
ATOM     20  C   UNL     1      -0.520  -1.505  -1.987  0.00  0.00    +0.231 C 
ATOM     21  O   UNL     1      -0.739  -1.625  -3.174  0.00  0.00    -0.274 OA
ATOM     22  N   UNL     1      -1.462  -0.984  -1.177  0.00  0.00    -0.328 N 
ATOM     23  H   UNL     1      -1.313  -0.950  -0.219  0.00  0.00    +0.145 HD
ATOM     24  H   UNL     1      -2.289  -0.643  -1.551  0.00  0.00    +0.145 HD
ENDBRANCH  19  20
BRANCH  19  25
ATOM     25  C   UNL     1       1.670  -0.706  -1.142  0.00  0.00    +0.015 C 
ATOM     26  C   UNL     1       1.978   0.008  -2.460  0.00  0.00    +0.010 C 
BRANCH  25  28
ATOM     27  C   UNL     1       3.796   0.100  -0.106  0.00  0.00    +0.004 C 
ATOM     28  C   UNL     1       2.980  -1.139  -0.479  0.00  0.00    +0.002 C 
ENDBRANCH  25  28
ENDBRANCH  19  25
ENDBRANCH   1  19
TORSDOF 6
