REMARK  Name = ZINC39841012
REMARK  8 active torsions:
REMARK  status: ('A' for Active; 'I' for Inactive)
REMARK    1  A    between atoms: C_1  and  O_2
REMARK    2  A    between atoms: O_2  and  C_3
REMARK    3  A    between atoms: C_3  and  C_5
REMARK    4  A    between atoms: C_9  and  N_10
REMARK    5  A    between atoms: C_11  and  C_13
REMARK    6  A    between atoms: N_26  and  C_29
REMARK    7  A    between atoms: C_27  and  N_28
REMARK    8  A    between atoms: C_29  and  C_30
REMARK                            x       y       z     vdW  Elec       q    Type
REMARK                         _______ _______ _______ _____ _____    ______ ____
ROOT
ATOM      1  C   UNL     1      -0.797  -2.637  -5.001  0.00  0.00    +0.076 A 
ATOM      2  C   UNL     1      -0.847  -1.260  -5.233  0.00  0.00    +0.033 A 
ATOM      3  C   UNL     1      -1.360  -0.821  -6.451  0.00  0.00    +0.083 A 
ATOM      4  C   UNL     1      -1.812  -1.768  -7.410  0.00  0.00    +0.150 A 
ATOM      5  N   UNL     1      -2.301  -1.326  -8.573  0.00  0.00    -0.211 NA
ATOM      6  C   UNL     1      -2.379  -0.032  -8.862  0.00  0.00    +0.143 A 
ATOM      7  C   UNL     1      -2.910   0.347 -10.114  0.00  0.00    +0.047 A 
ATOM      8  C   UNL     1      -3.001   1.666 -10.434  0.00  0.00    +0.005 A 
ATOM      9  C   UNL     1      -2.566   2.635  -9.517  0.00  0.00    +0.018 A 
ATOM     10  C   UNL     1      -2.061   2.258  -8.323  0.00  0.00    +0.096 A 
ATOM     11  N   UNL     1      -1.965   0.938  -7.989  0.00  0.00    -0.268 N 
ATOM     12  C   UNL     1      -1.452   0.601  -6.783  0.00  0.00    +0.268 A 
ATOM     13  O   UNL     1      -1.079   1.454  -5.998  0.00  0.00    -0.267 OA
ATOM     14  N   UNL     1      -1.744  -3.074  -7.143  0.00  0.00    -0.309 N 
ATOM     15  C   UNL     1      -1.258  -3.522  -6.001  0.00  0.00    +0.110 A 
ENDROOT
BRANCH   1  17
ATOM     16  N   UNL     1       0.276  -2.315  -2.831  0.00  0.00    -0.275 N 
ATOM     17  C   UNL     1      -0.266  -3.159  -3.732  0.00  0.00    +0.252 C 
ATOM     18  O   UNL     1      -0.316  -4.351  -3.497  0.00  0.00    -0.270 OA
ATOM     19  H   UNL     1       0.316  -1.365  -3.019  0.00  0.00    +0.156 HD
BRANCH  16  24
ATOM     20  C   UNL     1       1.365  -2.095  -0.601  0.00  0.00    +0.091 A 
ATOM     21  C   UNL     1       1.806  -2.852   0.558  0.00  0.00    -0.021 A 
ATOM     22  C   UNL     1       1.583  -4.181   0.467  0.00  0.00    -0.004 A 
ATOM     23  S   UNL     1       0.813  -4.401  -1.111  0.00  0.00    -0.077 S 
ATOM     24  C   UNL     1       0.777  -2.807  -1.637  0.00  0.00    +0.087 A 
ATOM     25  C   UNL     1       1.923  -5.222   1.488  0.00  0.00    +0.043 C 
ATOM     26  C   UNL     1       2.904  -4.606   2.496  0.00  0.00    +0.005 C 
ATOM     27  C   UNL     1       2.367  -3.243   2.941  0.00  0.00    +0.005 C 
ATOM     28  C   UNL     1       2.464  -2.243   1.787  0.00  0.00    +0.037 C 
BRANCH  20  29
ATOM     29  C   UNL     1       1.529  -0.642  -0.671  0.00  0.00    +0.342 C 
ATOM     30  O   UNL     1       0.652   0.090  -0.252  0.00  0.00    -0.245 OA
BRANCH  29  32
ATOM     31  C   UNL     1       2.745   1.311  -1.236  0.00  0.00    +0.280 C 
ATOM     32  O   UNL     1       2.652  -0.114  -1.200  0.00  0.00    -0.464 OA
ENDBRANCH  29  32
ENDBRANCH  20  29
ENDBRANCH  16  24
ENDBRANCH   1  17
BRANCH  15  33
ATOM     33  N   UNL     1      -1.205  -4.882  -5.776  0.00  0.00    -0.344 N 
ATOM     34  H   UNL     1      -1.282  -5.228  -4.873  0.00  0.00    +0.144 HD
ATOM     35  H   UNL     1      -1.090  -5.492  -6.521  0.00  0.00    +0.144 HD
ENDBRANCH  15  33
BRANCH  14  36
ATOM     36  C   UNL     1      -2.215  -4.034  -8.145  0.00  0.00    +0.151 C 
BRANCH  36  37
ATOM     37  C   UNL     1      -1.075  -4.411  -9.054  0.00  0.00    -0.013 C 
ATOM     38  C   UNL     1      -0.754  -5.671  -9.214  0.00  0.00    +0.005 C 
ENDBRANCH  36  37
ENDBRANCH  14  36
TORSDOF 7
