REMARK  Name = ZINC44020934
REMARK  16 active torsions:
REMARK  status: ('A' for Active; 'I' for Inactive)
REMARK    1  A    between atoms: C_1  and  C_2
REMARK    2  A    between atoms: C_2  and  C_3
REMARK    3  A    between atoms: C_2  and  C_4
REMARK    4  A    between atoms: C_2  and  C_23
REMARK    5  A    between atoms: C_4  and  O_5
REMARK    6  A    between atoms: O_5  and  C_6
REMARK    7  A    between atoms: C_8  and  O_22
REMARK    8  A    between atoms: C_10  and  O_21
REMARK    9  A    between atoms: C_12  and  O_20
REMARK   10  A    between atoms: C_14  and  C_17
REMARK   11  A    between atoms: C_24  and  C_25
REMARK   12  A    between atoms: C_26  and  C_27
REMARK   13  A    between atoms: C_27  and  N_28
REMARK   14  A    between atoms: N_28  and  C_29
REMARK   15  A    between atoms: N_28  and  C_30
REMARK   16  A    between atoms: C_30  and  C_31
REMARK                            x       y       z     vdW  Elec       q    Type
REMARK                         _______ _______ _______ _____ _____    ______ ____
ROOT
ATOM      1  C   UNL     1      -0.088   1.134   0.360  0.00  0.00    +0.027 C 
ATOM      2  C   UNL     1      -0.171  -0.380   0.154  0.00  0.00    +0.050 C 
ATOM      3  C   UNL     1       0.422  -1.093   1.371  0.00  0.00    +0.027 C 
ENDROOT
BRANCH   2   4
ATOM      4  C   UNL     1       0.588  -0.753  -1.051  0.00  0.00    -0.089 C 
ATOM      5  C   UNL     1       1.192  -1.051  -2.012  0.00  0.00    -0.074 C 
BRANCH   5   6
ATOM      6  C   UNL     1       1.929  -1.415  -3.185  0.00  0.00    +0.054 C 
ATOM      7  C   UNL     1       1.996  -2.688  -3.560  0.00  0.00    -0.037 C 
BRANCH   7   8
ATOM      8  C   UNL     1       2.772  -3.070  -4.794  0.00  0.00    -0.050 C 
BRANCH   8   9
ATOM      9  N   UNL     1       3.768  -4.093  -4.449  0.00  0.00    +0.383 N 
ATOM     10  C   UNL     1       3.082  -5.321  -4.025  0.00  0.00    -0.095 C 
ATOM     11  H   UNL     1       4.349  -3.756  -3.696  0.00  0.00    -0.081 HD
BRANCH   9  12
ATOM     12  C   UNL     1       4.603  -4.379  -5.623  0.00  0.00    -0.042 C 
BRANCH  12  13
ATOM     13  C   UNL     1       5.712  -5.323  -5.233  0.00  0.00    -0.056 A 
ATOM     14  C   UNL     1       5.656  -6.633  -5.600  0.00  0.00    +0.002 A 
ATOM     15  C   UNL     1       6.671  -7.520  -5.249  0.00  0.00    +0.001 A 
ATOM     16  C   UNL     1       7.748  -7.103  -4.527  0.00  0.00    +0.008 A 
ATOM     17  C   UNL     1       7.840  -5.759  -4.130  0.00  0.00    -0.018 A 
ATOM     18  C   UNL     1       6.810  -4.855  -4.493  0.00  0.00    -0.017 A 
ATOM     19  C   UNL     1       6.906  -3.509  -4.100  0.00  0.00    +0.009 A 
ATOM     20  C   UNL     1       7.985  -3.091  -3.384  0.00  0.00    +0.001 A 
ATOM     21  C   UNL     1       9.001  -3.979  -3.033  0.00  0.00    +0.001 A 
ATOM     22  C   UNL     1       8.936  -5.292  -3.384  0.00  0.00    +0.008 A 
ENDBRANCH  12  13
ENDBRANCH   9  12
ENDBRANCH   8   9
ENDBRANCH   7   8
ENDBRANCH   5   6
ENDBRANCH   2   4
BRANCH   2  23
ATOM     23  C   UNL     1      -1.634  -0.792  -0.015  0.00  0.00    +0.182 C 
BRANCH  23  24
ATOM     24  O   UNL     1      -2.370  -0.430   1.155  0.00  0.00    -0.347 OA
BRANCH  24  25
ATOM     25  C   UNL     1      -3.756  -0.773   1.099  0.00  0.00    +0.282 C 
ATOM     26  C   UNL     1      -4.490  -0.126   2.277  0.00  0.00    +0.201 C 
ATOM     27  C   UNL     1      -3.925  -0.682   3.587  0.00  0.00    +0.179 C 
ATOM     28  C   UNL     1      -4.064  -2.208   3.583  0.00  0.00    +0.185 C 
ATOM     29  C   UNL     1      -3.347  -2.774   2.355  0.00  0.00    +0.265 C 
ATOM     30  O   UNL     1      -3.899  -2.193   1.172  0.00  0.00    -0.331 OA
BRANCH  29  31
ATOM     31  C   UNL     1      -3.529  -4.270   2.312  0.00  0.00    +0.387 C 
ATOM     32  O   UNL     1      -4.159  -4.781   1.403  0.00  0.00    -0.243 OA
ATOM     33  O   UNL     1      -3.046  -4.968   3.188  0.00  0.00    -0.243 OA
ENDBRANCH  29  31
BRANCH  28  34
ATOM     34  O   UNL     1      -5.448  -2.561   3.535  0.00  0.00    -0.386 OA
ATOM     35  H   UNL     1      -5.610  -3.515   3.530  0.00  0.00    +0.210 HD
ENDBRANCH  28  34
BRANCH  27  36
ATOM     36  O   UNL     1      -2.546  -0.326   3.704  0.00  0.00    -0.386 OA
ATOM     37  H   UNL     1      -2.124  -0.647   4.512  0.00  0.00    +0.210 HD
ENDBRANCH  27  36
BRANCH  26  38
ATOM     38  O   UNL     1      -5.885  -0.423   2.192  0.00  0.00    -0.384 OA
ATOM     39  H   UNL     1      -6.307  -0.103   1.383  0.00  0.00    +0.210 HD
ENDBRANCH  26  38
ENDBRANCH  24  25
ENDBRANCH  23  24
ENDBRANCH   2  23
TORSDOF 13
