REMARK  Name = ZINC20682883
REMARK  9 active torsions:
REMARK  status: ('A' for Active; 'I' for Inactive)
REMARK    1  A    between atoms: C_1  and  C_2
REMARK    2  A    between atoms: C_5  and  O_30
REMARK    3  A    between atoms: C_15  and  C_18
REMARK    4  A    between atoms: C_20  and  O_28
REMARK    5  A    between atoms: C_21  and  O_26
REMARK    6  A    between atoms: C_22  and  O_24
REMARK    7  A    between atoms: O_24  and  C_25
REMARK    8  A    between atoms: O_26  and  C_27
REMARK    9  A    between atoms: O_28  and  C_29
REMARK                            x       y       z     vdW  Elec       q    Type
REMARK                         _______ _______ _______ _____ _____    ______ ____
ROOT
ATOM      1  C   UNL     1      -2.054   2.442   2.141  0.00  0.00    +0.044 C 
ATOM      2  C   UNL     1      -2.204   3.309   0.917  0.00  0.00    -0.045 A 
ATOM      3  C   UNL     1      -3.388   3.984   0.701  0.00  0.00    +0.007 A 
ATOM      4  C   UNL     1      -3.536   4.781  -0.419  0.00  0.00    +0.047 A 
ATOM      5  C   UNL     1      -2.492   4.900  -1.319  0.00  0.00    +0.138 A 
ATOM      6  C   UNL     1      -1.291   4.218  -1.100  0.00  0.00    +0.074 A 
ATOM      7  C   UNL     1      -1.149   3.419   0.019  0.00  0.00    -0.013 A 
ATOM      8  C   UNL     1       0.107   2.654   0.314  0.00  0.00    +0.049 C 
ATOM      9  C   UNL     1      -0.107   1.176   0.082  0.00  0.00    -0.023 C 
ATOM     10  C   UNL     1       0.955   0.640  -0.467  0.00  0.00    -0.030 C 
ATOM     11  C   UNL     1       2.030   1.687  -0.681  0.00  0.00    +0.033 C 
ATOM     12  C   UNL     1       1.241   3.027  -0.666  0.00  0.00    +0.029 C 
ATOM     13  C   UNL     1       0.644   3.234  -2.060  0.00  0.00    +0.105 C 
ATOM     14  N   UNL     1      -0.266   4.379  -2.035  0.00  0.00    -0.334 N 
ATOM     15  H   UNL     1      -0.095   5.233  -2.708  0.00  0.00    +0.147 HD
ENDROOT
BRANCH  13  16
ATOM     16  C   UNL     1      -0.114   1.998  -2.471  0.00  0.00    -0.020 A 
ATOM     17  C   UNL     1       0.569   0.901  -2.961  0.00  0.00    +0.055 A 
ATOM     18  C   UNL     1      -0.125  -0.240  -3.335  0.00  0.00    +0.165 A 
ATOM     19  C   UNL     1      -1.510  -0.275  -3.227  0.00  0.00    +0.204 A 
ATOM     20  C   UNL     1      -2.194   0.832  -2.739  0.00  0.00    +0.165 A 
ATOM     21  C   UNL     1      -1.492   1.967  -2.362  0.00  0.00    +0.055 A 
BRANCH  20  22
ATOM     22  O   UNL     1      -3.549   0.803  -2.632  0.00  0.00    -0.491 OA
ATOM     23  C   UNL     1      -4.185   1.977  -2.123  0.00  0.00    +0.277 C 
ENDBRANCH  20  22
BRANCH  19  24
ATOM     24  O   UNL     1      -2.195  -1.391  -3.598  0.00  0.00    -0.488 OA
ATOM     25  C   UNL     1      -2.626  -1.465  -4.959  0.00  0.00    +0.277 C 
ENDBRANCH  19  24
BRANCH  18  26
ATOM     26  O   UNL     1       0.548  -1.321  -3.812  0.00  0.00    -0.491 OA
ATOM     27  C   UNL     1       1.971  -1.214  -3.895  0.00  0.00    +0.277 C 
ENDBRANCH  18  26
ENDBRANCH  13  16
BRANCH   5  28
ATOM     28  O   UNL     1      -2.635   5.683  -2.422  0.00  0.00    -0.505 OA
ATOM     29  H   UNL     1      -1.806   5.779  -3.139  0.00  0.00    +0.292 HD
ENDBRANCH   5  28
TORSDOF 5
