REMARK  Name = ZINC22010058
REMARK  3 active torsions:
REMARK  status: ('A' for Active; 'I' for Inactive)
REMARK    1  A    between atoms: C_1  and  C_2
REMARK    2  A    between atoms: N_7  and  C_9
REMARK    3  A    between atoms: C_9  and  C_10
REMARK                            x       y       z     vdW  Elec       q    Type
REMARK                         _______ _______ _______ _____ _____    ______ ____
ROOT
ATOM      1  C   UNL     1       1.236  -3.981   2.351  0.00  0.00    +0.116 A 
ATOM      2  N   UNL     1       0.192  -4.542   2.937  0.00  0.00    -0.219 NA
ATOM      3  C   UNL     1       0.136  -5.841   3.182  0.00  0.00    +0.128 A 
ATOM      4  C   UNL     1       1.232  -6.665   2.804  0.00  0.00    +0.051 A 
ATOM      5  C   UNL     1       1.393  -8.110   2.973  0.00  0.00    -0.025 A 
ATOM      6  C   UNL     1       2.542  -8.654   2.522  0.00  0.00    -0.004 A 
ATOM      7  S   UNL     1       3.466  -7.296   1.855  0.00  0.00    -0.073 S 
ATOM      8  C   UNL     1       2.306  -5.996   2.184  0.00  0.00    +0.114 A 
ATOM      9  N   UNL     1       2.278  -4.694   1.973  0.00  0.00    -0.227 NA
ATOM     10  C   UNL     1       2.946 -10.096   2.577  0.00  0.00    +0.043 C 
ATOM     11  C   UNL     1       2.018 -10.822   3.561  0.00  0.00    +0.005 C 
ATOM     12  C   UNL     1       0.570 -10.439   3.243  0.00  0.00    +0.005 C 
ATOM     13  C   UNL     1       0.323  -8.979   3.627  0.00  0.00    +0.037 C 
ATOM     14  N   UNL     1      -0.975  -6.390   3.797  0.00  0.00    -0.343 N 
ATOM     15  H   UNL     1      -1.801  -5.885   3.846  0.00  0.00    +0.144 HD
ATOM     16  H   UNL     1      -0.926  -7.279   4.181  0.00  0.00    +0.144 HD
ENDROOT
BRANCH   1  17
ATOM     17  C   UNL     1       1.231  -2.494   2.104  0.00  0.00    -0.001 C 
BRANCH  17  23
ATOM     18  C   UNL     1      -0.295   1.037  -0.925  0.00  0.00    +0.005 C 
ATOM     19  C   UNL     1      -0.172  -0.476  -0.733  0.00  0.00    -0.031 C 
ATOM     20  C   UNL     1       0.662  -1.070  -1.872  0.00  0.00    -0.001 C 
ATOM     21  C   UNL     1       0.845  -2.571  -1.629  0.00  0.00    -0.018 C 
ATOM     22  C   UNL     1       1.497  -2.784  -0.261  0.00  0.00    -0.078 C 
ATOM     23  N   UNL     1       0.640  -2.218   0.788  0.00  0.00    +0.385 N 
ATOM     24  C   UNL     1       0.517  -0.767   0.603  0.00  0.00    -0.075 C 
ATOM     25  H   UNL     1      -0.275  -2.641   0.737  0.00  0.00    -0.081 HD
ENDBRANCH  17  23
ENDBRANCH   1  17
TORSDOF 2
