REMARK  Name = ZINC49922912
REMARK  8 active torsions:
REMARK  status: ('A' for Active; 'I' for Inactive)
REMARK    1  A    between atoms: C_1  and  C_2
REMARK    2  A    between atoms: C_5  and  C_9
REMARK    3  A    between atoms: C_6  and  C_8
REMARK    4  A    between atoms: C_9  and  C_11
REMARK    5  A    between atoms: N_13  and  C_14
REMARK    6  A    between atoms: C_19  and  C_20
REMARK    7  A    between atoms: C_20  and  O_22
REMARK    8  A    between atoms: O_22  and  C_23
REMARK                            x       y       z     vdW  Elec       q    Type
REMARK                         _______ _______ _______ _____ _____    ______ ____
ROOT
ATOM      1  C   UNL     1       0.834  -5.852  -1.099  0.00  0.00    +0.289 C 
ATOM      2  O   UNL     1       0.811  -5.396  -2.224  0.00  0.00    -0.266 OA
ATOM      3  N   UNL     1       1.014  -7.174  -0.912  0.00  0.00    -0.278 N 
ATOM      4  H   UNL     1       1.100  -7.529  -0.013  0.00  0.00    +0.155 HD
ENDROOT
BRANCH   3   5
ATOM      5  C   UNL     1       1.074  -8.030  -2.006  0.00  0.00    +0.048 A 
ATOM      6  C   UNL     1       1.684  -7.616  -3.184  0.00  0.00    +0.024 A 
ATOM      7  C   UNL     1       1.742  -8.466  -4.269  0.00  0.00    +0.002 A 
ATOM      8  C   UNL     1       1.195  -9.738  -4.194  0.00  0.00    +0.001 A 
ATOM      9  C   UNL     1       0.586 -10.166  -3.035  0.00  0.00    +0.017 A 
ATOM     10  C   UNL     1       0.524  -9.319  -1.925  0.00  0.00    +0.080 A 
BRANCH  10  11
ATOM     11  C   UNL     1      -0.121  -9.773  -0.680  0.00  0.00    +0.341 C 
ATOM     12  O   UNL     1      -0.265  -9.001   0.246  0.00  0.00    -0.245 OA
BRANCH  11  13
ATOM     13  O   UNL     1      -0.550 -11.046  -0.569  0.00  0.00    -0.464 OA
ATOM     14  C   UNL     1      -1.165 -11.418   0.666  0.00  0.00    +0.280 C 
ENDBRANCH  11  13
ENDBRANCH  10  11
ENDBRANCH   3   5
BRANCH   1  15
ATOM     15  C   UNL     1       0.665  -4.948   0.076  0.00  0.00    +0.248 C 
ATOM     16  O   UNL     1       0.781  -5.387   1.201  0.00  0.00    -0.282 OA
BRANCH  15  21
ATOM     17  C   UNL     1      -0.541   0.618  -0.728  0.00  0.00    +0.044 C 
ATOM     18  C   UNL     1      -0.225  -0.841  -0.518  0.00  0.00    -0.050 A 
ATOM     19  C   UNL     1       0.061  -1.647  -1.606  0.00  0.00    +0.004 A 
ATOM     20  C   UNL     1       0.351  -2.982  -1.421  0.00  0.00    +0.012 A 
ATOM     21  C   UNL     1       0.356  -3.521  -0.130  0.00  0.00    +0.030 A 
ATOM     22  C   UNL     1       0.067  -2.699   0.964  0.00  0.00    -0.039 A 
ATOM     23  C   UNL     1      -0.216  -1.365   0.763  0.00  0.00    +0.007 A 
ATOM     24  C   UNL     1       0.070  -3.270   2.359  0.00  0.00    +0.044 C 
ENDBRANCH  15  21
ENDBRANCH   1  15
TORSDOF 5
