REMARK  Name = ZINC12601258
REMARK  4 active torsions:
REMARK  status: ('A' for Active; 'I' for Inactive)
REMARK    1  A    between atoms: C_1  and  C_2
REMARK    2  A    between atoms: C_2  and  C_4
REMARK    3  A    between atoms: C_2  and  N_62
REMARK    4  A    between atoms: C_19  and  C_22
REMARK                            x       y       z     vdW  Elec       q    Type
REMARK                         _______ _______ _______ _____ _____    ______ ____
ROOT
ATOM      1  C   UNL     1       5.930   3.864  -0.129  0.00  0.00    -0.004 C 
ATOM      2  C   UNL     1       5.210   3.169  -1.287  0.00  0.00    +0.017 C 
ENDROOT
BRANCH   2   3
ATOM      3  C   UNL     1       5.233   4.062  -2.501  0.00  0.00    +0.206 C 
ATOM      4  O   UNL     1       4.537   5.054  -2.537  0.00  0.00    -0.277 OA
ATOM      5  N   UNL     1       6.028   3.757  -3.546  0.00  0.00    -0.262 N 
ATOM      6  C   UNL     1       6.753   2.479  -3.601  0.00  0.00    +0.209 C 
ATOM      7  C   UNL     1       8.150   2.728  -4.110  0.00  0.00    +0.235 C 
ATOM      8  O   UNL     1       9.053   1.998  -3.761  0.00  0.00    -0.274 OA
ATOM      9  N   UNL     1       8.407   3.751  -4.947  0.00  0.00    -0.283 N 
ATOM     10  C   UNL     1       7.393   4.639  -5.324  0.00  0.00    +0.055 A 
ATOM     11  C   UNL     1       6.184   4.647  -4.620  0.00  0.00    +0.058 A 
ATOM     12  C   UNL     1       5.180   5.526  -4.975  0.00  0.00    +0.025 A 
ATOM     13  C   UNL     1       5.368   6.391  -6.039  0.00  0.00    +0.002 A 
ATOM     14  C   UNL     1       6.558   6.380  -6.743  0.00  0.00    +0.002 A 
ATOM     15  C   UNL     1       7.571   5.507  -6.389  0.00  0.00    +0.025 A 
ATOM     16  H   UNL     1       9.305   3.874  -5.292  0.00  0.00    +0.155 HD
ENDBRANCH   2   3
BRANCH   2  22
ATOM     17  C   UNL     1       3.731   1.714  -0.041  0.00  0.00    -0.077 C 
ATOM     18  C   UNL     1       2.261   1.376   0.217  0.00  0.00    -0.006 C 
ATOM     19  C   UNL     1       1.577   2.571   0.886  0.00  0.00    +0.072 C 
ATOM     20  C   UNL     1       1.724   3.803  -0.011  0.00  0.00    -0.006 C 
ATOM     21  C   UNL     1       3.210   4.070  -0.263  0.00  0.00    -0.077 C 
ATOM     22  N   UNL     1       3.803   2.892  -0.931  0.00  0.00    +0.387 N 
ATOM     23  H   UNL     1       3.275   2.694  -1.789  0.00  0.00    -0.081 HD
BRANCH  19  24
ATOM     24  C   UNL     1       0.115   2.267   1.088  0.00  0.00    +0.219 C 
ATOM     25  O   UNL     1      -0.409   1.368   0.465  0.00  0.00    -0.275 OA
ATOM     26  N   UNL     1      -0.612   2.997   1.957  0.00  0.00    -0.301 N 
ATOM     27  C   UNL     1      -1.974   2.597   2.229  0.00  0.00    +0.108 C 
ATOM     28  C   UNL     1      -2.930   3.272   1.224  0.00  0.00    +0.019 C 
ATOM     29  C   UNL     1      -3.038   4.712   1.509  0.00  0.00    +0.002 C 
ATOM     30  C   UNL     1      -1.728   5.481   1.362  0.00  0.00    +0.002 C 
ATOM     31  C   UNL     1      -0.942   5.380   2.647  0.00  0.00    +0.019 C 
ATOM     32  C   UNL     1       0.015   4.175   2.588  0.00  0.00    +0.108 C 
ENDBRANCH  19  24
ENDBRANCH   2  22
TORSDOF 3
