REMARK  Name = ZINC00031160
REMARK  6 active torsions:
REMARK  status: ('A' for Active; 'I' for Inactive)
REMARK    1  A    between atoms: C_5  and  C_7
REMARK    2  A    between atoms: N_8  and  N_9
REMARK    3  A    between atoms: C_10  and  C_12
REMARK    4  A    between atoms: C_14  and  C_17
REMARK    5  A    between atoms: N_19  and  N_20
REMARK    6  A    between atoms: C_21  and  C_22
REMARK                            x       y       z     vdW  Elec       q    Type
REMARK                         _______ _______ _______ _____ _____    ______ ____
ROOT
ATOM      1  C   UNL     1       1.088  -6.498  -0.044  0.00  0.00    +0.192 A 
ATOM      2  O   UNL     1       2.382  -6.868  -0.053  0.00  0.00    -0.445 OA
ATOM      3  C   UNL     1       2.461  -8.211  -0.064  0.00  0.00    +0.192 A 
ATOM      4  C   UNL     1       1.192  -8.718  -0.061  0.00  0.00    +0.055 A 
ATOM      5  C   UNL     1       0.317  -7.626  -0.043  0.00  0.00    +0.055 A 
ENDROOT
BRANCH   1   7
ATOM      6  N   UNL     1       1.458  -4.084  -0.035  0.00  0.00    -0.200 N 
ATOM      7  C   UNL     1       0.589  -5.114  -0.032  0.00  0.00    +0.299 C 
ATOM      8  O   UNL     1      -0.609  -4.899  -0.019  0.00  0.00    -0.265 OA
ATOM      9  H   UNL     1       2.413  -4.255  -0.045  0.00  0.00    +0.178 HD
BRANCH   6  11
ATOM     10  C   UNL     1       1.822  -1.772  -0.025  0.00  0.00    +0.156 C 
ATOM     11  N   UNL     1       0.983  -2.766  -0.023  0.00  0.00    -0.186 NA
BRANCH  10  16
ATOM     12  C   UNL     1      -0.017   1.398   0.010  0.00  0.00    +0.019 A 
ATOM     13  C   UNL     1       1.264   1.829  -0.000  0.00  0.00    +0.083 A 
ATOM     14  N   UNL     1       2.092   0.748  -0.014  0.00  0.00    -0.360 N 
ATOM     15  H   UNL     1       3.061   0.777  -0.023  0.00  0.00    +0.165 HD
ATOM     16  C   UNL     1       1.324  -0.392  -0.013  0.00  0.00    +0.059 A 
ATOM     17  C   UNL     1       0.002  -0.004   0.002  0.00  0.00    +0.028 A 
ENDBRANCH  10  16
ENDBRANCH   6  11
ENDBRANCH   1   7
BRANCH   3  18
ATOM     18  C   UNL     1       3.703  -9.000  -0.076  0.00  0.00    +0.299 C 
ATOM     19  O   UNL     1       3.651 -10.216  -0.085  0.00  0.00    -0.265 OA
ATOM     20  N   UNL     1       4.898  -8.377  -0.077  0.00  0.00    -0.200 N 
ATOM     21  H   UNL     1       4.939  -7.407  -0.070  0.00  0.00    +0.178 HD
BRANCH  20  22
ATOM     22  N   UNL     1       6.080  -9.128  -0.089  0.00  0.00    -0.186 NA
ATOM     23  C   UNL     1       7.234  -8.526  -0.090  0.00  0.00    +0.156 C 
BRANCH  23  24
ATOM     24  C   UNL     1       8.471  -9.312  -0.102  0.00  0.00    +0.059 A 
ATOM     25  N   UNL     1       8.562 -10.684  -0.119  0.00  0.00    -0.360 N 
ATOM     26  H   UNL     1       7.813 -11.300  -0.125  0.00  0.00    +0.165 HD
ATOM     27  C   UNL     1       9.878 -11.033  -0.127  0.00  0.00    +0.083 A 
ATOM     28  C   UNL     1      10.627  -9.907  -0.114  0.00  0.00    +0.019 A 
ATOM     29  C   UNL     1       9.755  -8.810  -0.104  0.00  0.00    +0.028 A 
ENDBRANCH  23  24
ENDBRANCH  20  22
ENDBRANCH   3  18
TORSDOF 6
