REMARK  Name = ZINC15973031
REMARK  8 active torsions:
REMARK  status: ('A' for Active; 'I' for Inactive)
REMARK    1  A    between atoms: C_1  and  C_2
REMARK    2  A    between atoms: C_13  and  C_20
REMARK    3  A    between atoms: C_16  and  C_19
REMARK    4  A    between atoms: N_22  and  C_23
REMARK    5  A    between atoms: C_25  and  O_31
REMARK    6  A    between atoms: C_28  and  O_29
REMARK    7  A    between atoms: O_29  and  C_30
REMARK    8  A    between atoms: O_31  and  C_32
REMARK                            x       y       z     vdW  Elec       q    Type
REMARK                         _______ _______ _______ _____ _____    ______ ____
ROOT
ATOM      1  C   UNL     1       0.030   1.546  -0.040  0.00  0.00    +0.044 C 
ATOM      2  C   UNL     1       0.036   0.039  -0.042  0.00  0.00    -0.049 A 
ATOM      3  C   UNL     1       0.041  -0.653  -1.241  0.00  0.00    +0.011 A 
ATOM      4  C   UNL     1       0.046  -2.030  -1.241  0.00  0.00    +0.005 A 
ATOM      5  C   UNL     1       0.049  -2.740  -0.045  0.00  0.00    +0.057 A 
ATOM      6  C   UNL     1       0.045  -2.036   1.158  0.00  0.00    +0.063 A 
ATOM      7  C   UNL     1       0.044  -0.655   1.153  0.00  0.00    +0.025 A 
ATOM      8 CL   UNL     1       0.049  -2.897   2.665  0.00  0.00    -0.082 Cl
ATOM      9  N   UNL     1       0.056  -4.113  -0.299  0.00  0.00    -0.282 N 
ATOM     10  C   UNL     1       0.058  -4.386  -1.617  0.00  0.00    +0.243 C 
ATOM     11  O   UNL     1       0.063  -5.486  -2.128  0.00  0.00    -0.273 OA
ATOM     12  C   UNL     1       0.050  -3.062  -2.336  0.00  0.00    +0.135 C 
ATOM     13  C   UNL     1       1.289  -2.915  -3.228  0.00  0.00    +0.110 C 
ATOM     14  C   UNL     1       0.728  -2.668  -4.649  0.00  0.00    +0.034 C 
ATOM     15  C   UNL     1      -0.701  -2.137  -4.370  0.00  0.00    +0.053 C 
ATOM     16  N   UNL     1      -1.140  -2.932  -3.193  0.00  0.00    -0.296 NA
ATOM     17  C   UNL     1      -1.616  -2.393  -5.570  0.00  0.00    +0.024 C 
ATOM     18  H   UNL     1       0.060  -4.792   0.394  0.00  0.00    +0.155 HD
ATOM     19  H   UNL     1      -1.482  -3.838  -3.476  0.00  0.00    +0.123 HD
ENDROOT
BRANCH  13  20
ATOM     20  C   UNL     1       2.110  -4.178  -3.197  0.00  0.00    +0.223 C 
ATOM     21  O   UNL     1       1.845  -5.092  -3.950  0.00  0.00    -0.275 OA
ATOM     22  N   UNL     1       3.138  -4.293  -2.334  0.00  0.00    -0.282 N 
ATOM     23  H   UNL     1       3.299  -3.599  -1.676  0.00  0.00    +0.155 HD
BRANCH  22  24
ATOM     24  C   UNL     1       3.975  -5.416  -2.387  0.00  0.00    +0.079 A 
ATOM     25  C   UNL     1       4.254  -6.017  -3.605  0.00  0.00    +0.072 A 
ATOM     26  C   UNL     1       5.083  -7.128  -3.654  0.00  0.00    +0.122 A 
ATOM     27  C   UNL     1       5.632  -7.637  -2.486  0.00  0.00    +0.049 A 
ATOM     28  C   UNL     1       5.354  -7.040  -1.271  0.00  0.00    +0.051 A 
ATOM     29  C   UNL     1       4.532  -5.926  -1.217  0.00  0.00    +0.141 A 
BRANCH  29  30
ATOM     30  O   UNL     1       4.264  -5.335  -0.021  0.00  0.00    -0.493 OA
ATOM     31  C   UNL     1       4.870  -5.912   1.138  0.00  0.00    +0.277 C 
ENDBRANCH  29  30
BRANCH  26  32
ATOM     32  O   UNL     1       5.357  -7.718  -4.848  0.00  0.00    -0.495 OA
ATOM     33  C   UNL     1       6.218  -8.859  -4.824  0.00  0.00    +0.277 C 
ENDBRANCH  26  32
ENDBRANCH  22  24
ENDBRANCH  13  20
TORSDOF 4
