REMARK  Name = ZINC45325532
REMARK  6 active torsions:
REMARK  status: ('A' for Active; 'I' for Inactive)
REMARK    1  A    between atoms: C_1  and  C_2
REMARK    2  A    between atoms: C_8  and  O_10
REMARK    3  A    between atoms: O_10  and  C_11
REMARK    4  A    between atoms: C_11  and  C_12
REMARK    5  A    between atoms: C_12  and  C_14
REMARK    6  A    between atoms: C_12  and  N_16
REMARK                            x       y       z     vdW  Elec       q    Type
REMARK                         _______ _______ _______ _____ _____    ______ ____
ROOT
ATOM      1  O   UNL     1       0.073  -0.050   2.417  0.00  0.00    -0.374 OA
ENDROOT
BRANCH   1   8
ATOM      2  C   UNL     1      -0.019   1.526   0.010  0.00  0.00    +0.010 C 
ATOM      3  C   UNL     1       0.002  -0.004   0.002  0.00  0.00    +0.015 C 
ATOM      4  C   UNL     1      -1.433  -0.534   0.013  0.00  0.00    +0.006 C 
ATOM      5  C   UNL     1      -1.413  -2.063   0.004  0.00  0.00    +0.000 C 
ATOM      6  C   UNL     1      -0.673  -2.570   1.244  0.00  0.00    +0.003 C 
ATOM      7  C   UNL     1       0.763  -2.041   1.233  0.00  0.00    +0.032 C 
ATOM      8  C   UNL     1       0.742  -0.511   1.242  0.00  0.00    +0.121 C 
ENDBRANCH   1   8
BRANCH   1   9
ATOM      9  C   UNL     1       0.938   0.149   3.537  0.00  0.00    +0.193 C 
BRANCH   9  10
ATOM     10  C   UNL     1       0.119   0.640   4.733  0.00  0.00    +0.181 C 
BRANCH  10  11
ATOM     11  N   UNL     1      -0.440   1.965   4.433  0.00  0.00    -0.314 NA
ATOM     12  H   UNL     1      -1.038   2.283   5.181  0.00  0.00    +0.119 HD
ATOM     13  H   UNL     1       0.293   2.633   4.247  0.00  0.00    +0.119 HD
ENDBRANCH  10  11
BRANCH  10  14
ATOM     14  C   UNL     1       0.987   0.731   5.918  0.00  0.00    +0.083 C 
ATOM     15  N   UNL     1       1.657   0.801   6.833  0.00  0.00    -0.195 NA
ENDBRANCH  10  14
ENDBRANCH   9  10
ENDBRANCH   1   9
TORSDOF 5
