REMARK  Name = ZINC09135796
REMARK  9 active torsions:
REMARK  status: ('A' for Active; 'I' for Inactive)
REMARK    1  A    between atoms: C_1  and  C_2
REMARK    2  A    between atoms: C_5  and  N_32
REMARK    3  A    between atoms: C_7  and  N_8
REMARK    4  A    between atoms: C_9  and  C_11
REMARK    5  A    between atoms: N_13  and  C_14
REMARK    6  A    between atoms: C_14  and  C_15
REMARK    7  A    between atoms: C_15  and  C_17
REMARK    8  A    between atoms: C_15  and  N_65
REMARK    9  A    between atoms: N_26  and  C_27
REMARK                            x       y       z     vdW  Elec       q    Type
REMARK                         _______ _______ _______ _____ _____    ______ ____
ROOT
ATOM      1  C   UNL     1      -3.820   2.976  -0.765  0.00  0.00    +0.094 C 
ENDROOT
BRANCH   1   4
ATOM      2  C   UNL     1      -3.869   4.825  -2.351  0.00  0.00    +0.299 C 
ATOM      3  O   UNL     1      -2.960   5.340  -1.734  0.00  0.00    -0.265 OA
ATOM      4  N   UNL     1      -4.371   3.641  -1.948  0.00  0.00    -0.309 N 
ATOM      5  H   UNL     1      -5.098   3.229  -2.442  0.00  0.00    +0.149 HD
BRANCH   2   7
ATOM      6  N   UNL     1      -3.933   6.690  -3.957  0.00  0.00    -0.277 N 
ATOM      7  C   UNL     1      -4.431   5.503  -3.557  0.00  0.00    +0.303 C 
ATOM      8  O   UNL     1      -5.340   4.988  -4.175  0.00  0.00    -0.265 OA
ATOM      9  H   UNL     1      -3.260   7.139  -3.421  0.00  0.00    +0.155 HD
BRANCH   6  16
ATOM     10  C   UNL     1      -3.529   9.483  -4.317  0.00  0.00    +0.045 C 
ATOM     11  C   UNL     1      -4.208   8.634  -5.361  0.00  0.00    -0.029 A 
ATOM     12  C   UNL     1      -4.655   9.208  -6.535  0.00  0.00    +0.007 A 
ATOM     13  C   UNL     1      -5.279   8.430  -7.493  0.00  0.00    +0.033 A 
ATOM     14  C   UNL     1      -5.456   7.075  -7.279  0.00  0.00    +0.128 A 
ATOM     15  C   UNL     1      -5.007   6.494  -6.110  0.00  0.00    +0.056 A 
ATOM     16  C   UNL     1      -4.385   7.274  -5.143  0.00  0.00    +0.039 A 
BRANCH  14  17
ATOM     17  N   UNL     1      -6.123   6.245  -8.308  0.00  0.00    +0.056 N 
ATOM     18  O   UNL     1      -6.515   6.756  -9.342  0.00  0.00    -0.126 OA
ATOM     19  O   UNL     1      -6.279   5.052  -8.121  0.00  0.00    -0.126 OA
ENDBRANCH  14  17
ENDBRANCH   6  16
ENDBRANCH   2   7
ENDBRANCH   1   4
BRANCH   1  20
ATOM     20  C   UNL     1      -4.488   1.611  -0.590  0.00  0.00    -0.020 C 
BRANCH  20  21
ATOM     21  C   UNL     1      -5.952   1.804  -0.285  0.00  0.00    -0.059 A 
ATOM     22  C   UNL     1      -6.356   2.122   0.999  0.00  0.00    +0.004 A 
ATOM     23  C   UNL     1      -7.694   2.301   1.275  0.00  0.00    +0.023 A 
ATOM     24  C   UNL     1      -8.649   2.151   0.268  0.00  0.00    +0.033 A 
ATOM     25  C   UNL     1      -8.240   1.831  -1.014  0.00  0.00    -0.026 A 
ATOM     26  C   UNL     1      -6.891   1.658  -1.285  0.00  0.00    +0.007 A 
ATOM     27  C   UNL     1      -9.220   1.666  -2.149  0.00  0.00    +0.038 C 
ATOM     28  C   UNL     1     -10.636   1.516  -1.588  0.00  0.00    +0.024 C 
ATOM     29  C   UNL     1     -10.847   2.613  -0.538  0.00  0.00    +0.105 C 
ATOM     30  N   UNL     1      -9.988   2.331   0.614  0.00  0.00    -0.333 N 
ATOM     31  C   UNL     1     -10.131   3.368   1.644  0.00  0.00    +0.129 C 
ENDBRANCH  20  21
BRANCH  20  36
ATOM     32  C   UNL     1      -4.480  -0.437   0.727  0.00  0.00    -0.078 C 
ATOM     33  C   UNL     1      -3.399  -1.225   1.510  0.00  0.00    -0.020 C 
ATOM     34  C   UNL     1      -2.081  -0.738   0.865  0.00  0.00    -0.020 C 
ATOM     35  C   UNL     1      -2.425   0.619   0.223  0.00  0.00    -0.078 C 
ATOM     36  N   UNL     1      -3.833   0.870   0.530  0.00  0.00    +0.385 N 
ATOM     37  H   UNL     1      -3.907   1.426   1.390  0.00  0.00    -0.081 HD
ENDBRANCH  20  36
ENDBRANCH   1  20
TORSDOF 7
