REMARK  Name = ZINC05603814
REMARK  6 active torsions:
REMARK  status: ('A' for Active; 'I' for Inactive)
REMARK    1  A    between atoms: C_4  and  N_7
REMARK    2  A    between atoms: N_7  and  N_8
REMARK    3  A    between atoms: C_21  and  C_23
REMARK    4  A    between atoms: C_23  and  C_25
REMARK    5  A    between atoms: C_23  and  O_27
REMARK    6  A    between atoms: C_25  and  O_26
REMARK                            x       y       z     vdW  Elec       q    Type
REMARK                         _______ _______ _______ _____ _____    ______ ____
ROOT
ATOM      1  N   UNL     1       0.790   2.595  -2.894  0.00  0.00    -0.181 NA
ATOM      2  C   UNL     1       1.212   1.433  -2.490  0.00  0.00    +0.133 C 
ATOM      3  C   UNL     1       0.987   0.123  -3.127  0.00  0.00    +0.152 A 
ATOM      4  C   UNL     1       1.656  -0.878  -2.298  0.00  0.00    +0.244 A 
ATOM      5  N   UNL     1       1.603  -2.147  -2.658  0.00  0.00    -0.209 NA
ATOM      6  C   UNL     1       0.942  -2.506  -3.767  0.00  0.00    +0.093 A 
ATOM      7  C   UNL     1       0.883  -3.856  -4.152  0.00  0.00    +0.030 A 
ATOM      8  C   UNL     1       0.209  -4.211  -5.281  0.00  0.00    +0.002 A 
ATOM      9  C   UNL     1      -0.426  -3.253  -6.066  0.00  0.00    +0.002 A 
ATOM     10  C   UNL     1      -0.391  -1.936  -5.726  0.00  0.00    +0.030 A 
ATOM     11  C   UNL     1       0.295  -1.532  -4.566  0.00  0.00    +0.090 A 
ATOM     12  N   UNL     1       0.338  -0.240  -4.219  0.00  0.00    -0.238 NA
ATOM     13  O   UNL     1       2.250  -0.283  -1.240  0.00  0.00    -0.462 OA
ATOM     14  C   UNL     1       2.040   1.127  -1.261  0.00  0.00    +0.258 C 
ENDROOT
BRANCH   1  15
ATOM     15  N   UNL     1       0.028   2.695  -4.065  0.00  0.00    -0.237 N 
ATOM     16  H   UNL     1      -0.186   1.897  -4.574  0.00  0.00    +0.174 HD
BRANCH  15  20
ATOM     17  C   UNL     1      -1.320   6.414  -5.360  0.00  0.00    +0.000 A 
ATOM     18  C   UNL     1      -1.626   5.278  -6.087  0.00  0.00    +0.002 A 
ATOM     19  C   UNL     1      -1.181   4.043  -5.660  0.00  0.00    +0.025 A 
ATOM     20  C   UNL     1      -0.424   3.942  -4.499  0.00  0.00    +0.048 A 
ATOM     21  C   UNL     1      -0.123   5.085  -3.768  0.00  0.00    +0.025 A 
ATOM     22  C   UNL     1      -0.567   6.317  -4.203  0.00  0.00    +0.002 A 
ENDBRANCH  15  20
ENDBRANCH   1  15
BRANCH  14  23
ATOM     23  C   UNL     1       1.286   1.562  -0.002  0.00  0.00    +0.186 C 
BRANCH  23  24
ATOM     24  O   UNL     1      -0.011   0.963   0.007  0.00  0.00    -0.385 OA
ATOM     25  H   UNL     1       0.002  -0.004   0.002  0.00  0.00    +0.210 HD
ENDBRANCH  23  24
BRANCH  23  26
ATOM     26  C   UNL     1       2.064   1.114   1.238  0.00  0.00    +0.191 C 
BRANCH  26  27
ATOM     27  O   UNL     1       1.422   1.619   2.410  0.00  0.00    -0.392 OA
ATOM     28  H   UNL     1       1.862   1.374   3.236  0.00  0.00    +0.210 HD
ENDBRANCH  26  27
ENDBRANCH  23  26
ENDBRANCH  14  23
TORSDOF 6
