REMARK  Name = ZINC39915950
REMARK  10 active torsions:
REMARK  status: ('A' for Active; 'I' for Inactive)
REMARK    1  A    between atoms: C_4  and  C_7
REMARK    2  A    between atoms: C_10  and  C_12
REMARK    3  A    between atoms: C_12  and  N_13
REMARK    4  A    between atoms: C_21  and  S_22
REMARK    5  A    between atoms: S_22  and  C_23
REMARK    6  A    between atoms: C_25  and  O_38
REMARK    7  A    between atoms: C_27  and  O_37
REMARK    8  A    between atoms: C_29  and  O_36
REMARK    9  A    between atoms: C_31  and  C_34
REMARK   10  A    between atoms: C_34  and  O_35
REMARK                            x       y       z     vdW  Elec       q    Type
REMARK                         _______ _______ _______ _____ _____    ______ ____
ROOT
ATOM      1  N   UNL     1       6.113  -4.022   1.296  0.00  0.00    -0.309 N 
ATOM      2  C   UNL     1       7.233  -3.760   2.067  0.00  0.00    +0.070 A 
ATOM      3  C   UNL     1       8.409  -3.060   1.848  0.00  0.00    +0.028 A 
ATOM      4  C   UNL     1       9.358  -2.980   2.846  0.00  0.00    +0.002 A 
ATOM      5  C   UNL     1       9.144  -3.598   4.070  0.00  0.00    +0.002 A 
ATOM      6  C   UNL     1       7.982  -4.298   4.305  0.00  0.00    +0.030 A 
ATOM      7  C   UNL     1       7.011  -4.387   3.305  0.00  0.00    +0.090 A 
ATOM      8  N   UNL     1       5.795  -4.989   3.236  0.00  0.00    -0.222 NA
ATOM      9  C   UNL     1       5.262  -4.771   2.058  0.00  0.00    +0.173 A 
ENDROOT
BRANCH   1  10
ATOM     10  C   UNL     1       5.881  -3.575  -0.080  0.00  0.00    +0.222 C 
BRANCH  10  14
ATOM     11  C   UNL     1       3.695  -0.685  -0.037  0.00  0.00    +0.248 A 
ATOM     12  N   UNL     1       4.889  -0.140  -0.040  0.00  0.00    -0.107 NA
ATOM     13  N   UNL     1       5.779  -1.068  -0.056  0.00  0.00    -0.110 NA
ATOM     14  C   UNL     1       5.194  -2.233  -0.062  0.00  0.00    +0.237 A 
ATOM     15  O   UNL     1       3.867  -2.022  -0.046  0.00  0.00    -0.418 OA
BRANCH  11  19
ATOM     16  C   UNL     1      -0.017   1.379   0.010  0.00  0.00    +0.000 A 
ATOM     17  C   UNL     1       1.168   2.093   0.002  0.00  0.00    +0.001 A 
ATOM     18  C   UNL     1       2.377   1.429  -0.013  0.00  0.00    +0.013 A 
ATOM     19  C   UNL     1       2.403   0.034  -0.021  0.00  0.00    +0.038 A 
ATOM     20  C   UNL     1       1.204  -0.681  -0.013  0.00  0.00    +0.013 A 
ATOM     21  C   UNL     1       0.002  -0.004   0.002  0.00  0.00    +0.001 A 
ENDBRANCH  11  19
ENDBRANCH  10  14
ENDBRANCH   1  10
BRANCH   9  22
ATOM     22  S   UNL     1       3.686  -5.361   1.535  0.00  0.00    -0.054 S 
BRANCH  22  23
ATOM     23  C   UNL     1       3.060  -6.274   2.972  0.00  0.00    +0.214 C 
ATOM     24  C   UNL     1       1.802  -7.052   2.575  0.00  0.00    +0.185 C 
ATOM     25  C   UNL     1       1.246  -7.771   3.807  0.00  0.00    +0.177 C 
ATOM     26  C   UNL     1       0.968  -6.739   4.905  0.00  0.00    +0.176 C 
ATOM     27  C   UNL     1       2.257  -5.973   5.212  0.00  0.00    +0.176 C 
ATOM     28  O   UNL     1       2.739  -5.354   4.018  0.00  0.00    -0.355 OA
BRANCH  26  29
ATOM     29  O   UNL     1      -0.037  -5.825   4.458  0.00  0.00    -0.386 OA
ATOM     30  H   UNL     1      -0.881  -6.245   4.241  0.00  0.00    +0.210 HD
ENDBRANCH  26  29
BRANCH  25  31
ATOM     31  O   UNL     1       0.032  -8.442   3.462  0.00  0.00    -0.386 OA
ATOM     32  H   UNL     1       0.134  -9.106   2.766  0.00  0.00    +0.210 HD
ENDBRANCH  25  31
BRANCH  24  33
ATOM     33  O   UNL     1       2.133  -8.012   1.569  0.00  0.00    -0.386 OA
ATOM     34  H   UNL     1       2.496  -7.625   0.760  0.00  0.00    +0.210 HD
ENDBRANCH  24  33
BRANCH  27  35
ATOM     35  C   UNL     1       1.974  -4.899   6.265  0.00  0.00    +0.190 C 
BRANCH  35  36
ATOM     36  O   UNL     1       3.198  -4.263   6.637  0.00  0.00    -0.392 OA
ATOM     37  H   UNL     1       3.094  -3.569   7.303  0.00  0.00    +0.210 HD
ENDBRANCH  35  36
ENDBRANCH  27  35
ENDBRANCH  22  23
ENDBRANCH   9  22
TORSDOF 10
