REMARK  Name = ZINC52792213
REMARK  7 active torsions:
REMARK  status: ('A' for Active; 'I' for Inactive)
REMARK    1  A    between atoms: C_1  and  O_2
REMARK    2  A    between atoms: O_2  and  C_3
REMARK    3  A    between atoms: C_3  and  C_4
REMARK    4  A    between atoms: C_4  and  C_5
REMARK    5  A    between atoms: C_5  and  C_7
REMARK    6  A    between atoms: C_5  and  N_22
REMARK    7  A    between atoms: N_9  and  C_10
REMARK                            x       y       z     vdW  Elec       q    Type
REMARK                         _______ _______ _______ _____ _____    ______ ____
ROOT
ATOM      1  C   UNL     1       1.377  -4.200  -2.104  0.00  0.00    +0.203 C 
ATOM      2  O   UNL     1       0.581  -4.907  -2.684  0.00  0.00    -0.277 OA
ATOM      3  N   UNL     1       2.333  -4.754  -1.331  0.00  0.00    -0.286 N 
ATOM      4  H   UNL     1       3.018  -4.195  -0.932  0.00  0.00    +0.155 HD
ENDROOT
BRANCH   3   5
ATOM      5  C   UNL     1       2.335  -6.136  -1.103  0.00  0.00    +0.055 A 
ATOM      6  C   UNL     1       1.153  -6.858  -1.204  0.00  0.00    +0.072 A 
ATOM      7  C   UNL     1       1.158  -8.222  -0.979  0.00  0.00    +0.144 A 
ATOM      8  C   UNL     1       2.349  -8.869  -0.651  0.00  0.00    +0.077 A 
ATOM      9  C   UNL     1       3.527  -8.148  -0.551  0.00  0.00    +0.048 A 
ATOM     10  C   UNL     1       3.522  -6.784  -0.783  0.00  0.00    +0.064 A 
ATOM     11 CL   UNL     1       4.998  -5.879  -0.665  0.00  0.00    -0.082 Cl
ATOM     12  N   UNL     1       2.337 -10.255  -0.425  0.00  0.00    -0.280 N 
ATOM     13  C   UNL     1       1.268 -10.975  -0.829  0.00  0.00    +0.255 C 
ATOM     14  O   UNL     1       1.221 -12.168  -0.617  0.00  0.00    -0.272 OA
ATOM     15  C   UNL     1       0.132 -10.289  -1.545  0.00  0.00    +0.325 C 
ATOM     16  O   UNL     1       0.009  -8.944  -1.074  0.00  0.00    -0.481 OA
ATOM     17  H   UNL     1       3.084 -10.688   0.015  0.00  0.00    +0.155 HD
ENDBRANCH   3   5
BRANCH   1  18
ATOM     18  C   UNL     1       1.300  -2.702  -2.249  0.00  0.00    +0.015 C 
BRANCH  18  19
ATOM     19  N   UNL     1       0.539  -2.366  -3.460  0.00  0.00    +0.386 N 
ATOM     20  H   UNL     1      -0.393  -2.745  -3.388  0.00  0.00    -0.089 HD
ATOM     21  H   UNL     1       0.487  -1.363  -3.557  0.00  0.00    -0.089 HD
ATOM     22  H   UNL     1       1.000  -2.758  -4.267  0.00  0.00    -0.089 HD
ENDBRANCH  18  19
BRANCH  18  23
ATOM     23  C   UNL     1       0.600  -2.107  -1.026  0.00  0.00    +0.021 C 
BRANCH  23  24
ATOM     24  C   UNL     1       0.631  -0.580  -1.112  0.00  0.00    +0.158 C 
BRANCH  24  26
ATOM     25  C   UNL     1      -0.048   1.405   0.048  0.00  0.00    +0.193 C 
ATOM     26  O   UNL     1      -0.022  -0.024   0.030  0.00  0.00    -0.383 OA
ENDBRANCH  24  26
ENDBRANCH  23  24
ENDBRANCH  18  23
ENDBRANCH   1  18
TORSDOF 6
