REMARK  Name = ZINC03326096
REMARK  7 active torsions:
REMARK  status: ('A' for Active; 'I' for Inactive)
REMARK    1  A    between atoms: C_1  and  C_2
REMARK    2  A    between atoms: C_2  and  N_3
REMARK    3  A    between atoms: C_7  and  C_9
REMARK    4  A    between atoms: C_9  and  C_11
REMARK    5  A    between atoms: C_9  and  N_12
REMARK    6  A    between atoms: C_15  and  C_19
REMARK    7  A    between atoms: C_15  and  C_25
REMARK                            x       y       z     vdW  Elec       q    Type
REMARK                         _______ _______ _______ _____ _____    ______ ____
ROOT
ATOM      1  N   UNL     1       2.718  -5.490   4.144  0.00  0.00    -0.212 N 
ATOM      2  C   UNL     1       3.725  -6.378   4.022  0.00  0.00    +0.256 C 
ATOM      3  O   UNL     1       4.914  -6.141   4.019  0.00  0.00    -0.272 OA
ATOM      4  C   UNL     1       3.061  -7.734   3.889  0.00  0.00    +0.164 C 
ATOM      5  N   UNL     1       1.623  -7.425   3.958  0.00  0.00    -0.278 N 
ATOM      6  C   UNL     1       1.523  -6.092   4.112  0.00  0.00    +0.311 C 
ATOM      7  O   UNL     1       0.466  -5.500   4.208  0.00  0.00    -0.252 OA
ATOM      8  H   UNL     1       0.890  -8.058   3.906  0.00  0.00    +0.152 HD
ENDROOT
BRANCH   4   9
ATOM      9  C   UNL     1       3.405  -8.365   2.564  0.00  0.00    -0.011 A 
ATOM     10  C   UNL     1       2.401  -8.865   1.756  0.00  0.00    +0.006 A 
ATOM     11  C   UNL     1       2.716  -9.444   0.541  0.00  0.00    +0.000 A 
ATOM     12  C   UNL     1       4.034  -9.522   0.134  0.00  0.00    +0.000 A 
ATOM     13  C   UNL     1       5.038  -9.022   0.942  0.00  0.00    +0.000 A 
ATOM     14  C   UNL     1       4.723  -8.439   2.155  0.00  0.00    +0.006 A 
ENDBRANCH   4   9
BRANCH   4  15
ATOM     15  C   UNL     1       3.465  -8.636   5.028  0.00  0.00    -0.011 A 
ATOM     16  C   UNL     1       2.500  -9.316   5.746  0.00  0.00    +0.006 A 
ATOM     17  C   UNL     1       2.870 -10.143   6.790  0.00  0.00    +0.000 A 
ATOM     18  C   UNL     1       4.205 -10.289   7.116  0.00  0.00    +0.000 A 
ATOM     19  C   UNL     1       5.171  -9.609   6.397  0.00  0.00    +0.000 A 
ATOM     20  C   UNL     1       4.801  -8.786   5.350  0.00  0.00    +0.006 A 
ENDBRANCH   4  15
BRANCH   1  21
ATOM     21  C   UNL     1       2.909  -4.046   4.298  0.00  0.00    +0.169 C 
ATOM     22  C   UNL     1       2.296  -3.590   5.624  0.00  0.00    +0.038 C 
BRANCH  21  27
ATOM     23  N   UNL     1       1.720   0.009   2.007  0.00  0.00    -0.299 N 
ATOM     24  C   UNL     1       1.676  -1.336   2.074  0.00  0.00    +0.306 C 
ATOM     25  O   UNL     1       1.092  -1.968   1.215  0.00  0.00    -0.252 OA
ATOM     26  N   UNL     1       2.279  -1.980   3.092  0.00  0.00    -0.239 N 
ATOM     27  C   UNL     1       2.235  -3.326   3.159  0.00  0.00    +0.241 C 
ATOM     28  O   UNL     1       1.653  -3.956   2.303  0.00  0.00    -0.273 OA
ATOM     29  H   UNL     1       2.186   0.514   2.692  0.00  0.00    +0.150 HD
ATOM     30  H   UNL     1       2.744  -1.476   3.778  0.00  0.00    +0.159 HD
BRANCH  23  32
ATOM     31  C   UNL     1       1.264   2.218   1.061  0.00  0.00    +0.024 C 
ATOM     32  C   UNL     1       1.065   0.710   0.899  0.00  0.00    +0.102 C 
ENDBRANCH  23  32
ENDBRANCH  21  27
ENDBRANCH   1  21
TORSDOF 5
