REMARK  Name = ZINC55028665
REMARK  8 active torsions:
REMARK  status: ('A' for Active; 'I' for Inactive)
REMARK    1  A    between atoms: C_1  and  C_2
REMARK    2  A    between atoms: C_2  and  C_3
REMARK    3  A    between atoms: C_3  and  N_4
REMARK    4  A    between atoms: C_5  and  C_7
REMARK    5  A    between atoms: C_7  and  C_9
REMARK    6  A    between atoms: C_7  and  N_10
REMARK    7  A    between atoms: C_13  and  N_16
REMARK    8  A    between atoms: N_19  and  C_20
REMARK                            x       y       z     vdW  Elec       q    Type
REMARK                         _______ _______ _______ _____ _____    ______ ____
ROOT
ATOM      1  N   UNL     1       2.196  -4.639   3.351  0.00  0.00    +0.387 N 
ATOM      2  C   UNL     1       1.556  -4.258   4.615  0.00  0.00    -0.076 C 
ATOM      3  C   UNL     1       2.438  -4.689   5.789  0.00  0.00    +0.004 C 
ATOM      4  C   UNL     1       2.626  -6.209   5.747  0.00  0.00    +0.071 C 
ATOM      5  C   UNL     1       3.226  -6.602   4.395  0.00  0.00    +0.004 C 
ATOM      6  C   UNL     1       2.315  -6.100   3.273  0.00  0.00    -0.076 C 
ATOM      7  H   UNL     1       3.115  -4.225   3.304  0.00  0.00    -0.081 HD
ENDROOT
BRANCH   4   8
ATOM      8  N   UNL     1       3.531  -6.620   6.824  0.00  0.00    -0.297 N 
ATOM      9  C   UNL     1       3.467  -7.873   7.315  0.00  0.00    +0.300 C 
ATOM     10  O   UNL     1       2.659  -8.662   6.866  0.00  0.00    -0.253 OA
ATOM     11  N   UNL     1       4.300  -8.251   8.305  0.00  0.00    -0.297 N 
ATOM     12  H   UNL     1       4.176  -5.990   7.182  0.00  0.00    +0.151 HD
ATOM     13  H   UNL     1       4.945  -7.622   8.664  0.00  0.00    +0.151 HD
BRANCH  11  14
ATOM     14  C   UNL     1       4.231  -9.614   8.840  0.00  0.00    +0.074 C 
ATOM     15  C   UNL     1       5.077 -10.546   7.971  0.00  0.00    +0.022 C 
ATOM     16  C   UNL     1       5.006 -11.969   8.529  0.00  0.00    +0.002 C 
ATOM     17  C   UNL     1       5.541 -11.982   9.962  0.00  0.00    +0.000 C 
ATOM     18  C   UNL     1       4.695 -11.050  10.831  0.00  0.00    +0.002 C 
ATOM     19  C   UNL     1       4.767  -9.627  10.273  0.00  0.00    +0.022 C 
ENDBRANCH  11  14
ENDBRANCH   4   8
BRANCH   1  20
ATOM     20  C   UNL     1       1.385  -4.154   2.227  0.00  0.00    +0.016 C 
ATOM     21  C   UNL     1       2.026  -4.592   0.908  0.00  0.00    -0.004 C 
BRANCH  20  23
ATOM     22  N   UNL     1       0.248  -2.011   1.743  0.00  0.00    -0.317 N 
ATOM     23  C   UNL     1       1.310  -2.649   2.273  0.00  0.00    +0.199 C 
ATOM     24  O   UNL     1       2.206  -2.014   2.788  0.00  0.00    -0.278 OA
ATOM     25  H   UNL     1      -0.468  -2.519   1.331  0.00  0.00    +0.149 HD
BRANCH  22  26
ATOM     26  C   UNL     1       0.176  -0.548   1.788  0.00  0.00    +0.104 C 
BRANCH  26  28
ATOM     27  C   UNL     1      -1.196   1.446   1.169  0.00  0.00    +0.005 C 
ATOM     28  C   UNL     1      -1.120  -0.081   1.122  0.00  0.00    +0.015 C 
ENDBRANCH  26  28
ENDBRANCH  22  26
ENDBRANCH  20  23
ENDBRANCH   1  20
TORSDOF 6
