REMARK  Name = ZINC10708192
REMARK  17 active torsions:
REMARK  status: ('A' for Active; 'I' for Inactive)
REMARK    1  A    between atoms: C_1  and  C_2
REMARK    2  A    between atoms: C_2  and  C_4
REMARK    3  A    between atoms: C_2  and  O_30
REMARK    4  A    between atoms: N_6  and  C_7
REMARK    5  A    between atoms: N_6  and  C_8
REMARK    6  A    between atoms: C_8  and  C_9
REMARK    7  A    between atoms: N_11  and  C_12
REMARK    8  A    between atoms: N_11  and  C_16
REMARK    9  A    between atoms: C_12  and  C_13
REMARK   10  A    between atoms: C_13  and  C_14
REMARK   11  A    between atoms: C_13  and  C_15
REMARK   12  A    between atoms: C_17  and  N_29
REMARK   13  A    between atoms: N_18  and  C_25
REMARK   14  A    between atoms: C_25  and  C_26
REMARK   15  A    between atoms: C_26  and  C_27
REMARK   16  A    between atoms: C_26  and  C_28
REMARK   17  A    between atoms: O_30  and  C_31
REMARK                            x       y       z     vdW  Elec       q    Type
REMARK                         _______ _______ _______ _____ _____    ______ ____
ROOT
ATOM      1  C   UNL     1      -3.389  -1.822   1.373  0.00  0.00    +0.237 C 
ATOM      2  O   UNL     1      -2.318  -2.157   1.833  0.00  0.00    -0.274 OA
ATOM      3  N   UNL     1      -4.445  -2.660   1.441  0.00  0.00    -0.263 N 
ENDROOT
BRANCH   3   4
ATOM      4  C   UNL     1      -4.329  -3.886   2.130  0.00  0.00    +0.140 A 
ATOM      5  C   UNL     1      -4.501  -5.083   1.466  0.00  0.00    +0.127 A 
ATOM      6  N   UNL     1      -4.381  -6.262   2.164  0.00  0.00    -0.280 N 
ATOM      7  C   UNL     1      -4.100  -6.248   3.480  0.00  0.00    +0.331 A 
ATOM      8  O   UNL     1      -3.998  -7.301   4.080  0.00  0.00    -0.246 OA
ATOM      9  N   UNL     1      -3.929  -5.091   4.144  0.00  0.00    -0.273 N 
ATOM     10  H   UNL     1      -3.726  -5.108   5.092  0.00  0.00    +0.173 HD
ATOM     11  C   UNL     1      -4.030  -3.909   3.505  0.00  0.00    +0.277 A 
ATOM     12  O   UNL     1      -3.869  -2.865   4.116  0.00  0.00    -0.266 OA
BRANCH   5  13
ATOM     13  N   UNL     1      -4.788  -5.098   0.122  0.00  0.00    -0.343 N 
ATOM     14  H   UNL     1      -4.794  -4.269  -0.382  0.00  0.00    +0.144 HD
ATOM     15  H   UNL     1      -4.986  -5.937  -0.323  0.00  0.00    +0.144 HD
ENDBRANCH   5  13
BRANCH   6  16
ATOM     16  C   UNL     1      -4.561  -7.540   1.472  0.00  0.00    +0.131 C 
BRANCH  16  17
ATOM     17  C   UNL     1      -3.214  -8.021   0.929  0.00  0.00    +0.003 C 
ATOM     18  C   UNL     1      -2.272  -8.322   2.097  0.00  0.00    +0.009 C 
ATOM     19  C   UNL     1      -3.421  -9.290   0.101  0.00  0.00    +0.009 C 
ENDBRANCH  16  17
ENDBRANCH   6  16
ENDBRANCH   3   4
BRANCH   1  20
ATOM     20  C   UNL     1      -3.542  -0.470   0.724  0.00  0.00    +0.203 C 
BRANCH  20  23
ATOM     21  C   UNL     1      -1.432   0.028  -0.388  0.00  0.00    +0.256 C 
ATOM     22  O   UNL     1      -1.784  -0.678  -1.309  0.00  0.00    -0.272 OA
ATOM     23  N   UNL     1      -2.239   0.198   0.678  0.00  0.00    -0.293 N 
ATOM     24  C   UNL     1      -1.813   1.052   1.790  0.00  0.00    +0.132 C 
BRANCH  21  26
ATOM     25  C   UNL     1      -0.298   2.231  -0.489  0.00  0.00    +0.062 C 
ATOM     26  C   UNL     1      -0.092   0.716  -0.436  0.00  0.00    +0.256 C 
BRANCH  26  27
ATOM     27  O   UNL     1       0.620   0.291  -1.601  0.00  0.00    -0.480 OA
BRANCH  27  28
ATOM     28  C   UNL     1       1.974   0.404  -1.571  0.00  0.00    +0.122 A 
ATOM     29  C   UNL     1       2.610   0.840  -0.418  0.00  0.00    +0.048 A 
ATOM     30  C   UNL     1       3.986   0.954  -0.389  0.00  0.00    +0.042 A 
ATOM     31  C   UNL     1       4.732   0.633  -1.511  0.00  0.00    +0.124 A 
ATOM     32  C   UNL     1       4.099   0.199  -2.663  0.00  0.00    +0.042 A 
ATOM     33  C   UNL     1       2.723   0.077  -2.692  0.00  0.00    +0.048 A 
ATOM     34  F   UNL     1       6.078   0.746  -1.482  0.00  0.00    -0.205 F 
ENDBRANCH  27  28
ENDBRANCH  26  27
ENDBRANCH  21  26
ENDBRANCH  20  23
ENDBRANCH   1  20
BRANCH   3  35
ATOM     35  C   UNL     1      -5.711  -2.297   0.800  0.00  0.00    +0.117 C 
BRANCH  35  36
ATOM     36  C   UNL     1      -6.598  -1.558   1.805  0.00  0.00    +0.001 C 
ATOM     37  C   UNL     1      -7.848  -1.036   1.094  0.00  0.00    +0.009 C 
ATOM     38  C   UNL     1      -7.011  -2.518   2.923  0.00  0.00    +0.009 C 
ENDBRANCH  35  36
ENDBRANCH   3  35
TORSDOF 11
