REMARK  Name = ZINC24589556
REMARK  4 active torsions:
REMARK  status: ('A' for Active; 'I' for Inactive)
REMARK    1  A    between atoms: C_1  and  C_2
REMARK    2  A    between atoms: C_2  and  C_4
REMARK    3  A    between atoms: C_2  and  N_9
REMARK    4  A    between atoms: C_10  and  C_12
REMARK                            x       y       z     vdW  Elec       q    Type
REMARK                         _______ _______ _______ _____ _____    ______ ____
ROOT
ATOM      1  C   UNL     1      -1.292   1.928   0.019  0.00  0.00    +0.075 A 
ATOM      2  C   UNL     1      -2.581   1.411   0.016  0.00  0.00    +0.028 A 
ATOM      3  C   UNL     1      -3.652   2.264   0.030  0.00  0.00    +0.005 A 
ATOM      4  C   UNL     1      -3.353   3.634   0.038  0.00  0.00    +0.030 A 
ATOM      5  S   UNL     1      -1.593   3.691   0.029  0.00  0.00    -0.083 S 
ATOM      6  C   UNL     1      -4.389   4.659   0.057  0.00  0.00    +0.031 A 
ATOM      7  C   UNL     1      -4.162   6.000  -0.211  0.00  0.00    +0.012 A 
ATOM      8  C   UNL     1      -5.218   6.891  -0.186  0.00  0.00    +0.001 A 
ATOM      9  C   UNL     1      -6.496   6.444   0.105  0.00  0.00    +0.004 A 
ATOM     10  C   UNL     1      -6.733   5.111   0.382  0.00  0.00    +0.046 A 
ATOM     11  C   UNL     1      -5.689   4.203   0.370  0.00  0.00    +0.129 A 
ATOM     12  O   UNL     1      -5.890   2.896   0.657  0.00  0.00    -0.487 OA
ATOM     13  C   UNL     1      -5.125   1.869   0.029  0.00  0.00    +0.265 C 
ENDROOT
BRANCH   1  15
ATOM     14  N   UNL     1       1.143   1.903   0.001  0.00  0.00    -0.304 N 
ATOM     15  C   UNL     1      -0.014   1.213   0.009  0.00  0.00    +0.251 C 
ATOM     16  O   UNL     1       0.002  -0.004   0.002  0.00  0.00    -0.270 OA
ATOM     17  H   UNL     1       1.129   3.003   0.007  0.00  0.00    +0.150 HD
BRANCH  14  19
ATOM     18  C   UNL     1       2.792   0.837  -1.457  0.00  0.00    +0.033 C 
ATOM     19  C   UNL     1       2.422   1.188  -0.015  0.00  0.00    +0.107 C 
BRANCH  19  20
ATOM     20  C   UNL     1       3.495   2.063   0.580  0.00  0.00    +0.010 A 
ATOM     21  C   UNL     1       4.509   1.724   1.413  0.00  0.00    +0.013 A 
ATOM     22  C   UNL     1       5.387   2.704   1.834  0.00  0.00    +0.008 A 
ATOM     23  C   UNL     1       5.202   3.979   1.410  0.00  0.00    +0.045 A 
ATOM     24  S   UNL     1       3.755   3.818   0.377  0.00  0.00    -0.100 S 
ENDBRANCH  19  20
ENDBRANCH  14  19
ENDBRANCH   1  15
TORSDOF 3
