REMARK  Name = ZINC13013732
REMARK  8 active torsions:
REMARK  status: ('A' for Active; 'I' for Inactive)
REMARK    1  A    between atoms: C_1  and  C_2
REMARK    2  A    between atoms: C_5  and  C_13
REMARK    3  A    between atoms: C_10  and  C_11
REMARK    4  A    between atoms: C_13  and  C_14
REMARK    5  A    between atoms: C_14  and  C_15
REMARK    6  A    between atoms: C_15  and  C_32
REMARK    7  A    between atoms: N_25  and  C_26
REMARK    8  A    between atoms: C_26  and  C_27
REMARK                            x       y       z     vdW  Elec       q    Type
REMARK                         _______ _______ _______ _____ _____    ______ ____
ROOT
ATOM      1  C   UNL     1      -2.465   5.183  -0.548  0.00  0.00    +0.100 C 
ATOM      2  N   UNL     1      -2.430   3.846   0.056  0.00  0.00    -0.323 N 
ATOM      3  C   UNL     1      -1.239   3.129   0.028  0.00  0.00    +0.041 A 
ATOM      4  C   UNL     1      -1.222   1.745   0.017  0.00  0.00    +0.024 A 
ATOM      5  C   UNL     1      -0.013   1.076   0.008  0.00  0.00    +0.002 A 
ATOM      6  C   UNL     1       1.182   1.780   0.000  0.00  0.00    +0.001 A 
ATOM      7  C   UNL     1       1.181   3.159   0.003  0.00  0.00    +0.015 A 
ATOM      8  C   UNL     1      -0.030   3.846   0.009  0.00  0.00    +0.058 A 
ATOM      9  C   UNL     1      -0.084   5.319   0.009  0.00  0.00    +0.250 C 
ATOM     10  O   UNL     1       0.929   5.970   0.176  0.00  0.00    -0.270 OA
ATOM     11  N   UNL     1      -1.268   5.937  -0.178  0.00  0.00    -0.269 N 
ATOM     12  C   UNL     1      -3.707   5.929  -0.056  0.00  0.00    +0.053 C 
ATOM     13  H   UNL     1      -3.224   3.469   0.467  0.00  0.00    +0.148 HD
ENDROOT
BRANCH   1  14
ATOM     14  C   UNL     1      -2.529   5.049  -2.071  0.00  0.00    +0.050 C 
BRANCH  14  15
ATOM     15  C   UNL     1      -3.841   4.370  -2.469  0.00  0.00    +0.039 C 
BRANCH  15  20
ATOM     16  C   UNL     1      -5.678   7.312  -7.044  0.00  0.00    +0.048 C 
ATOM     17  C   UNL     1      -5.026   5.961  -7.184  0.00  0.00    +0.010 A 
ATOM     18  C   UNL     1      -4.517   5.115  -6.105  0.00  0.00    +0.024 A 
ATOM     19  C   UNL     1      -4.464   5.236  -4.715  0.00  0.00    +0.015 A 
ATOM     20  C   UNL     1      -3.904   4.238  -3.969  0.00  0.00    -0.046 A 
ATOM     21  C   UNL     1      -3.397   3.101  -4.583  0.00  0.00    +0.007 A 
ATOM     22  C   UNL     1      -3.445   2.959  -5.953  0.00  0.00    +0.047 A 
ATOM     23  C   UNL     1      -4.005   3.964  -6.733  0.00  0.00    +0.136 A 
ATOM     24  O   UNL     1      -4.190   4.107  -8.060  0.00  0.00    -0.448 OA
ATOM     25  C   UNL     1      -4.791   5.283  -8.337  0.00  0.00    +0.220 A 
BRANCH  25  26
ATOM     26  C   UNL     1      -5.140   5.757  -9.682  0.00  0.00    +0.421 C 
ATOM     27  O   UNL     1      -5.683   6.835  -9.825  0.00  0.00    -0.237 OA
ATOM     28  O   UNL     1      -4.858   4.996 -10.760  0.00  0.00    -0.237 OA
ENDBRANCH  25  26
ENDBRANCH  15  20
ENDBRANCH  14  15
ENDBRANCH   1  14
BRANCH  11  29
ATOM     29  C   UNL     1      -1.356   7.390  -0.006  0.00  0.00    +0.184 C 
BRANCH  29  30
ATOM     30  C   UNL     1      -1.075   8.069  -1.322  0.00  0.00    +0.122 A 
ATOM     31  C   UNL     1      -1.991   8.388  -2.254  0.00  0.00    +0.046 A 
ATOM     32  C   UNL     1      -1.294   9.005  -3.318  0.00  0.00    +0.041 A 
ATOM     33  C   UNL     1       0.006   9.027  -2.972  0.00  0.00    +0.195 A 
ATOM     34  O   UNL     1       0.132   8.464  -1.760  0.00  0.00    -0.466 OA
ENDBRANCH  29  30
ENDBRANCH  11  29
TORSDOF 6
