REMARK  Name = ZINC67389641
REMARK  8 active torsions:
REMARK  status: ('A' for Active; 'I' for Inactive)
REMARK    1  A    between atoms: C_1  and  C_2
REMARK    2  A    between atoms: N_5  and  C_8
REMARK    3  A    between atoms: C_8  and  C_9
REMARK    4  A    between atoms: C_9  and  N_10
REMARK    5  A    between atoms: N_13  and  C_14
REMARK    6  A    between atoms: C_14  and  C_15
REMARK    7  A    between atoms: C_15  and  C_16
REMARK    8  A    between atoms: C_16  and  C_17
REMARK                            x       y       z     vdW  Elec       q    Type
REMARK                         _______ _______ _______ _____ _____    ______ ____
ROOT
ATOM      1  N   UNL     1       2.729  -5.799   1.138  0.00  0.00    -0.301 N 
ATOM      2  C   UNL     1       3.466  -6.407   2.089  0.00  0.00    +0.300 C 
ATOM      3  O   UNL     1       4.008  -5.746   2.954  0.00  0.00    -0.253 OA
ATOM      4  N   UNL     1       3.602  -7.748   2.081  0.00  0.00    -0.299 N 
ATOM      5  H   UNL     1       2.297  -6.326   0.448  0.00  0.00    +0.150 HD
ATOM      6  H   UNL     1       3.170  -8.275   1.391  0.00  0.00    +0.150 HD
ENDROOT
BRANCH   1   7
ATOM      7  C   UNL     1       2.582  -4.341   1.147  0.00  0.00    +0.087 C 
BRANCH   7   8
ATOM      8  C   UNL     1       1.704  -3.911  -0.029  0.00  0.00    -0.060 C 
BRANCH   8  13
ATOM      9  C   UNL     1      -0.019   1.526   0.010  0.00  0.00    +0.007 C 
ATOM     10  C   UNL     1       0.002  -0.004   0.002  0.00  0.00    -0.018 C 
ATOM     11  C   UNL     1       0.727  -0.499  -1.252  0.00  0.00    -0.016 C 
ATOM     12  C   UNL     1       0.814  -2.027  -1.215  0.00  0.00    -0.079 C 
ATOM     13  N   UNL     1       1.556  -2.449  -0.021  0.00  0.00    +0.381 N 
ATOM     14  C   UNL     1       0.829  -2.040   1.187  0.00  0.00    -0.079 C 
ATOM     15  C   UNL     1       0.743  -0.513   1.242  0.00  0.00    -0.016 C 
ATOM     16  H   UNL     1       2.469  -2.020  -0.024  0.00  0.00    -0.082 HD
ENDBRANCH   8  13
ENDBRANCH   7   8
ENDBRANCH   1   7
BRANCH   4  17
ATOM     17  C   UNL     1       4.403  -8.409   3.114  0.00  0.00    +0.106 C 
BRANCH  17  18
ATOM     18  C   UNL     1       4.395  -9.921   2.876  0.00  0.00    +0.026 C 
BRANCH  18  19
ATOM     19  C   UNL     1       5.231 -10.611   3.955  0.00  0.00    +0.078 C 
BRANCH  19  20
ATOM     20  C   UNL     1       5.223 -12.100   3.721  0.00  0.00    +0.134 A 
ATOM     21  N   UNL     1       4.360 -12.956   4.201  0.00  0.00    -0.134 NA
ATOM     22  N   UNL     1       4.651 -14.142   3.791  0.00  0.00    -0.134 NA
ATOM     23  C   UNL     1       5.707 -14.093   3.031  0.00  0.00    +0.133 A 
ATOM     24  N   UNL     1       6.103 -12.799   2.971  0.00  0.00    -0.315 N 
ATOM     25  C   UNL     1       7.263 -12.276   2.250  0.00  0.00    +0.125 C 
ATOM     26  C   UNL     1       7.564 -13.176   1.048  0.00  0.00    +0.022 C 
ATOM     27  C   UNL     1       8.520 -14.292   1.467  0.00  0.00    +0.002 C 
ATOM     28  C   UNL     1       7.886 -15.160   2.550  0.00  0.00    +0.008 C 
ATOM     29  C   UNL     1       6.378 -15.244   2.328  0.00  0.00    +0.076 C 
ENDBRANCH  19  20
ENDBRANCH  18  19
ENDBRANCH  17  18
ENDBRANCH   4  17
TORSDOF 7
