REMARK  Name = ZINC66394727
REMARK  4 active torsions:
REMARK  status: ('A' for Active; 'I' for Inactive)
REMARK    1  A    between atoms: C_3  and  C_9
REMARK    2  A    between atoms: C_9  and  C_11
REMARK    3  A    between atoms: C_9  and  N_13
REMARK    4  A    between atoms: C_14  and  C_16
REMARK                            x       y       z     vdW  Elec       q    Type
REMARK                         _______ _______ _______ _____ _____    ______ ____
ROOT
ATOM      1  N   UNL     1       3.443   3.514  -0.598  0.00  0.00    -0.292 N 
ATOM      2  C   UNL     1       4.435   4.142  -1.259  0.00  0.00    +0.245 C 
ATOM      3  O   UNL     1       5.520   3.606  -1.380  0.00  0.00    -0.270 OA
ATOM      4  H   UNL     1       2.577   3.942  -0.502  0.00  0.00    +0.151 HD
ENDROOT
BRANCH   2   5
ATOM      5  C   UNL     1       4.205   5.479  -1.838  0.00  0.00    +0.039 A 
ATOM      6  C   UNL     1       2.958   6.096  -1.694  0.00  0.00    +0.014 A 
ATOM      7  C   UNL     1       2.748   7.346  -2.234  0.00  0.00    +0.017 A 
ATOM      8  C   UNL     1       3.769   7.989  -2.920  0.00  0.00    +0.030 A 
ATOM      9  C   UNL     1       5.020   7.381  -3.074  0.00  0.00    +0.048 A 
ATOM     10  C   UNL     1       5.234   6.128  -2.524  0.00  0.00    +0.037 A 
ATOM     11  N   UNL     1       6.053   8.008  -3.768  0.00  0.00    -0.284 N 
ATOM     12  C   UNL     1       6.169   9.313  -3.997  0.00  0.00    +0.227 C 
ATOM     13  O   UNL     1       7.139   9.703  -4.612  0.00  0.00    -0.275 OA
ATOM     14  C   UNL     1       5.163  10.332  -3.536  0.00  0.00    +0.170 C 
ATOM     15  S   UNL     1       3.504   9.592  -3.609  0.00  0.00    -0.114 S 
ATOM     16  H   UNL     1       6.755   7.437  -4.118  0.00  0.00    +0.155 HD
ENDBRANCH   2   5
BRANCH   1  17
ATOM     17  C   UNL     1       3.671   2.186  -0.023  0.00  0.00    +0.208 C 
BRANCH  17  20
ATOM     18  C   UNL     1      -0.024   1.453   0.234  0.00  0.00    +0.002 A 
ATOM     19  C   UNL     1       1.176   2.137   0.165  0.00  0.00    +0.008 A 
ATOM     20  C   UNL     1       2.364   1.440   0.053  0.00  0.00    +0.006 A 
ATOM     21  C   UNL     1       2.354   0.057   0.011  0.00  0.00    +0.065 A 
ATOM     22  C   UNL     1       1.153  -0.628   0.081  0.00  0.00    +0.060 A 
ATOM     23  C   UNL     1      -0.036   0.072   0.192  0.00  0.00    +0.021 A 
ATOM     24 CL   UNL     1       1.138  -2.363   0.027  0.00  0.00    -0.082 Cl
ATOM     25 CL   UNL     1       3.846  -0.819  -0.130  0.00  0.00    -0.082 Cl
ENDBRANCH  17  20
BRANCH  17  26
ATOM     26  C   UNL     1       4.235   2.327   1.330  0.00  0.00    +0.090 C 
ATOM     27  N   UNL     1       4.670   2.436   2.373  0.00  0.00    -0.194 NA
ENDBRANCH  17  26
ENDBRANCH   1  17
TORSDOF 4
