REMARK  Name = ZINC36334997
REMARK  3 active torsions:
REMARK  status: ('A' for Active; 'I' for Inactive)
REMARK    1  A    between atoms: C_1  and  C_2
REMARK    2  A    between atoms: C_6  and  C_10
REMARK    3  A    between atoms: C_11  and  C_13
REMARK                            x       y       z     vdW  Elec       q    Type
REMARK                         _______ _______ _______ _____ _____    ______ ____
ROOT
ATOM      1  C   UNL     1       0.859   1.299  -0.316  0.00  0.00    +0.039 C 
ATOM      2  C   UNL     1       0.703  -0.218  -0.184  0.00  0.00    +0.133 C 
ATOM      3  C   UNL     1      -0.777  -0.593  -0.319  0.00  0.00    +0.139 C 
ATOM      4  N   UNL     1      -0.924  -2.023  -0.004  0.00  0.00    -0.291 N 
ATOM      5  C   UNL     1      -0.326  -2.521   1.246  0.00  0.00    +0.099 C 
ATOM      6  C   UNL     1       1.133  -2.051   1.304  0.00  0.00    +0.182 C 
ATOM      7  O   UNL     1       1.182  -0.638   1.096  0.00  0.00    -0.373 OA
ATOM      8  C   UNL     1      -0.377  -4.050   1.268  0.00  0.00    +0.030 C 
ATOM      9  C   UNL     1      -1.587  -2.852  -0.834  0.00  0.00    +0.239 C 
ATOM     10  O   UNL     1      -1.623  -4.045  -0.601  0.00  0.00    -0.271 OA
ENDROOT
BRANCH   9  11
ATOM     11  C   UNL     1      -2.266  -2.314  -2.022  0.00  0.00    +0.060 C 
ATOM     12  C   UNL     1      -2.830  -3.142  -2.897  0.00  0.00    +0.013 C 
ENDBRANCH   9  11
TORSDOF 1
