REMARK  Name = ZINC02754878
REMARK  6 active torsions:
REMARK  status: ('A' for Active; 'I' for Inactive)
REMARK    1  A    between atoms: C_1  and  C_2
REMARK    2  A    between atoms: C_2  and  C_3
REMARK    3  A    between atoms: C_5  and  C_8
REMARK    4  A    between atoms: N_10  and  N_11
REMARK    5  A    between atoms: C_12  and  C_14
REMARK    6  A    between atoms: C_20  and  C_22
REMARK                            x       y       z     vdW  Elec       q    Type
REMARK                         _______ _______ _______ _____ _____    ______ ____
ROOT
ATOM      1  N   UNL     1      -3.621  -0.907   0.128  0.00  0.00    -0.234 N 
ATOM      2  C   UNL     1      -4.813  -0.283   0.047  0.00  0.00    +0.233 C 
ATOM      3  O   UNL     1      -4.859   0.927  -0.032  0.00  0.00    -0.274 OA
ATOM      4  H   UNL     1      -3.584  -1.874   0.191  0.00  0.00    +0.173 HD
ENDROOT
BRANCH   2   5
ATOM      5  C   UNL     1      -6.087  -1.087   0.056  0.00  0.00    +0.094 C 
ATOM      6  C   UNL     1      -7.152  -0.354   0.874  0.00  0.00    +0.040 C 
ATOM      7  C   UNL     1      -7.609   0.876   0.146  0.00  0.00    -0.030 C 
ATOM      8  C   UNL     1      -7.410   1.088  -1.115  0.00  0.00    -0.030 C 
ATOM      9  C   UNL     1      -6.686   0.137  -2.023  0.00  0.00    +0.042 C 
ATOM     10  C   UNL     1      -6.604  -1.248  -1.379  0.00  0.00    +0.118 C 
BRANCH  10  11
ATOM     11  C   UNL     1      -5.656  -2.117  -2.165  0.00  0.00    +0.360 C 
ATOM     12  O   UNL     1      -4.666  -2.564  -1.635  0.00  0.00    -0.246 OA
ATOM     13  O   UNL     1      -5.911  -2.395  -3.453  0.00  0.00    -0.246 OA
ENDBRANCH  10  11
ENDBRANCH   2   5
BRANCH   1  16
ATOM     14  C   UNL     1      -1.245  -0.784   0.200  0.00  0.00    +0.261 C 
ATOM     15  O   UNL     1      -1.198  -1.997   0.280  0.00  0.00    -0.269 OA
ATOM     16  N   UNL     1      -2.437  -0.160   0.120  0.00  0.00    -0.230 N 
ATOM     17  H   UNL     1      -2.474   0.808   0.057  0.00  0.00    +0.173 HD
BRANCH  14  20
ATOM     18  C   UNL     1       2.372   0.171   0.262  0.00  0.00    -0.010 A 
ATOM     19  C   UNL     1       1.291  -0.633   0.277  0.00  0.00    +0.024 A 
ATOM     20  C   UNL     1      -0.000   0.002   0.192  0.00  0.00    +0.045 A 
ATOM     21  C   UNL     1      -0.018   1.378   0.104  0.00  0.00    +0.058 A 
ATOM     22  S   UNL     1       1.661   1.799   0.134  0.00  0.00    -0.101 S 
BRANCH  18  24
ATOM     23  C   UNL     1       4.368  -0.434  -1.079  0.00  0.00    +0.009 C 
ATOM     24  C   UNL     1       3.827  -0.213   0.335  0.00  0.00    +0.039 C 
ENDBRANCH  18  24
ENDBRANCH  14  20
ENDBRANCH   1  16
TORSDOF 5
