REMARK  Name = ZINC39073355
REMARK  2 active torsions:
REMARK  status: ('A' for Active; 'I' for Inactive)
REMARK    1  A    between atoms: C_6  and  C_10
REMARK    2  A    between atoms: N_12  and  C_13
REMARK                            x       y       z     vdW  Elec       q    Type
REMARK                         _______ _______ _______ _____ _____    ______ ____
ROOT
ATOM      1  C   UNL     1       4.503  -2.781  -1.122  0.00  0.00    +0.263 C 
ATOM      2  O   UNL     1       4.384  -3.511  -2.086  0.00  0.00    -0.269 OA
ATOM      3  N   UNL     1       5.240  -3.176  -0.064  0.00  0.00    -0.307 N 
ATOM      4  H   UNL     1       5.335  -2.593   0.705  0.00  0.00    +0.149 HD
ENDROOT
BRANCH   1  10
ATOM      5  C   UNL     1       1.380   2.055  -2.444  0.00  0.00    +0.131 A 
ATOM      6  C   UNL     1       1.956   2.142  -1.221  0.00  0.00    +0.114 A 
ATOM      7  N   UNL     1       2.647   0.984  -1.018  0.00  0.00    -0.290 N 
ATOM      8  C   UNL     1       3.405   0.517   0.012  0.00  0.00    +0.206 A 
ATOM      9  N   UNL     1       3.972  -0.652  -0.039  0.00  0.00    -0.232 NA
ATOM     10  C   UNL     1       3.840  -1.461  -1.108  0.00  0.00    +0.130 A 
ATOM     11  C   UNL     1       3.084  -1.056  -2.193  0.00  0.00    +0.079 A 
ATOM     12  C   UNL     1       2.468   0.210  -2.143  0.00  0.00    +0.141 A 
ATOM     13  N   UNL     1       1.701   0.880  -2.985  0.00  0.00    -0.236 NA
ENDBRANCH   1  10
BRANCH   3  14
ATOM     14  C   UNL     1       5.897  -4.485  -0.078  0.00  0.00    +0.073 C 
ATOM     15  C   UNL     1       6.227  -4.940   1.363  0.00  0.00    +0.007 C 
ATOM     16  C   UNL     1       7.779  -5.093   1.377  0.00  0.00    -0.070 C 
ATOM     17  C   UNL     1       8.038  -5.588  -0.089  0.00  0.00    -0.012 C 
ATOM     18  C   UNL     1       7.287  -4.391  -0.780  0.00  0.00    -0.009 C 
ATOM     19  C   UNL     1       7.992  -3.198  -0.063  0.00  0.00    -0.077 C 
ATOM     20  N   UNL     1       8.298  -3.692   1.326  0.00  0.00    +0.381 N 
ATOM     21  H   UNL     1       7.836  -3.126   2.021  0.00  0.00    -0.086 HD
ATOM     22  H   UNL     1       9.295  -3.687   1.482  0.00  0.00    -0.086 HD
ENDBRANCH   3  14
TORSDOF 2
