REMARK  Name = ZINC05528123
REMARK  5 active torsions:
REMARK  status: ('A' for Active; 'I' for Inactive)
REMARK    1  A    between atoms: C_1  and  C_2
REMARK    2  A    between atoms: C_9  and  N_13
REMARK    3  A    between atoms: C_10  and  C_11
REMARK    4  A    between atoms: C_14  and  C_16
REMARK    5  A    between atoms: C_17  and  C_18
REMARK                            x       y       z     vdW  Elec       q    Type
REMARK                         _______ _______ _______ _____ _____    ______ ____
ROOT
ATOM      1  C   UNL     1      -0.618  -8.497   0.059  0.00  0.00    +0.008 C 
ATOM      2  C   UNL     1      -1.101  -7.076   0.357  0.00  0.00    -0.009 C 
ATOM      3  C   UNL     1      -2.358  -6.778  -0.467  0.00  0.00    +0.008 C 
ATOM      4  C   UNL     1      -2.988  -5.465   0.002  0.00  0.00    +0.037 C 
ATOM      5  C   UNL     1      -1.919  -4.379  -0.002  0.00  0.00    -0.018 A 
ATOM      6  C   UNL     1      -0.606  -4.696  -0.016  0.00  0.00    -0.004 A 
ATOM      7  S   UNL     1       0.235  -3.138  -0.017  0.00  0.00    -0.077 S 
ATOM      8  C   UNL     1      -1.137  -2.080   0.002  0.00  0.00    +0.090 A 
ATOM      9  C   UNL     1      -2.212  -2.957   0.013  0.00  0.00    +0.084 A 
ATOM     10  C   UNL     1      -0.008  -6.069  -0.027  0.00  0.00    +0.046 C 
ENDROOT
BRANCH   8  11
ATOM     11  N   UNL     1      -1.156  -0.694   0.009  0.00  0.00    -0.275 N 
ATOM     12  C   UNL     1       0.002  -0.004   0.002  0.00  0.00    +0.241 C 
ATOM     13  O   UNL     1       1.065  -0.599  -0.011  0.00  0.00    -0.270 OA
ATOM     14  H   UNL     1      -2.002  -0.220   0.020  0.00  0.00    +0.156 HD
BRANCH  12  15
ATOM     15  C   UNL     1      -0.017   1.410   0.010  0.00  0.00    +0.068 C 
ATOM     16  C   UNL     1       1.149   2.104   0.002  0.00  0.00    +0.020 C 
BRANCH  16  17
ATOM     17  C   UNL     1       1.129   3.520   0.010  0.00  0.00    +0.012 A 
ATOM     18  C   UNL     1       2.196   4.410   0.011  0.00  0.00    +0.015 A 
ATOM     19  C   UNL     1       1.891   5.748   0.015  0.00  0.00    +0.008 A 
ATOM     20  C   UNL     1       0.587   6.132   0.030  0.00  0.00    +0.046 A 
ATOM     21  S   UNL     1      -0.271   4.625   0.030  0.00  0.00    -0.097 S 
ENDBRANCH  16  17
ENDBRANCH  12  15
ENDBRANCH   8  11
BRANCH   9  22
ATOM     22  C   UNL     1      -3.561  -2.477   0.035  0.00  0.00    +0.102 C 
ATOM     23  N   UNL     1      -4.631  -2.096   0.052  0.00  0.00    -0.191 NA
ENDBRANCH   9  22
TORSDOF 4
