REMARK  Name = ZINC04966080
REMARK  5 active torsions:
REMARK  status: ('A' for Active; 'I' for Inactive)
REMARK    1  A    between atoms: C_1  and  C_2
REMARK    2  A    between atoms: C_4  and  C_26
REMARK    3  A    between atoms: C_11  and  C_14
REMARK    4  A    between atoms: N_16  and  C_17
REMARK    5  A    between atoms: C_23  and  C_25
REMARK                            x       y       z     vdW  Elec       q    Type
REMARK                         _______ _______ _______ _____ _____    ______ ____
ROOT
ATOM      1  C   UNL     1      -3.839   1.499  10.217  0.00  0.00    +0.066 C 
ATOM      2  C   UNL     1      -2.918   2.386   9.420  0.00  0.00    +0.044 A 
ATOM      3  C   UNL     1      -2.565   3.639   9.896  0.00  0.00    +0.046 A 
ATOM      4  C   UNL     1      -1.715   4.423   9.132  0.00  0.00    +0.044 A 
ATOM      5  N   UNL     1      -1.269   3.955   7.978  0.00  0.00    -0.220 NA
ATOM      6  C   UNL     1      -1.626   2.753   7.551  0.00  0.00    +0.218 A 
ATOM      7  N   UNL     1      -2.441   1.981   8.255  0.00  0.00    -0.220 NA
ATOM      8  N   UNL     1      -1.140   2.294   6.339  0.00  0.00    -0.300 N 
ATOM      9  C   UNL     1      -1.647   0.948   6.044  0.00  0.00    +0.108 C 
ATOM     10  C   UNL     1      -0.978   0.416   4.774  0.00  0.00    +0.032 C 
ATOM     11  C   UNL     1      -1.281   1.363   3.609  0.00  0.00    +0.078 C 
ATOM     12  C   UNL     1      -0.786   2.768   3.962  0.00  0.00    +0.032 C 
ATOM     13  C   UNL     1      -1.460   3.232   5.255  0.00  0.00    +0.108 C 
ATOM     14  C   UNL     1      -1.305   5.793   9.609  0.00  0.00    +0.066 C 
ENDROOT
BRANCH  11  15
ATOM     15  C   UNL     1      -0.575   0.877   2.369  0.00  0.00    +0.216 C 
ATOM     16  O   UNL     1       0.103  -0.128   2.412  0.00  0.00    -0.276 OA
ATOM     17  N   UNL     1      -0.698   1.558   1.213  0.00  0.00    -0.312 N 
ATOM     18  H   UNL     1      -1.241   2.362   1.179  0.00  0.00    +0.149 HD
BRANCH  17  19
ATOM     19  C   UNL     1      -0.013   1.086   0.008  0.00  0.00    +0.076 C 
ATOM     20  C   UNL     1       1.423   1.615  -0.003  0.00  0.00    +0.022 C 
ATOM     21  C   UNL     1       1.402   3.145   0.006  0.00  0.00    +0.002 C 
ATOM     22  C   UNL     1       0.662   3.652  -1.234  0.00  0.00    +0.000 C 
ATOM     23  C   UNL     1      -0.773   3.123  -1.223  0.00  0.00    +0.005 C 
ATOM     24  C   UNL     1      -0.753   1.593  -1.232  0.00  0.00    +0.006 C 
ATOM     25  C   UNL     1      -2.188   1.063  -1.221  0.00  0.00    +0.009 C 
ENDBRANCH  17  19
ENDBRANCH  11  15
TORSDOF 2
