REMARK  Name = ZINC46620194
REMARK  7 active torsions:
REMARK  status: ('A' for Active; 'I' for Inactive)
REMARK    1  A    between atoms: C_1  and  C_2
REMARK    2  A    between atoms: C_2  and  C_4
REMARK    3  A    between atoms: C_2  and  N_15
REMARK    4  A    between atoms: C_16  and  C_18
REMARK    5  A    between atoms: N_23  and  C_25
REMARK    6  A    between atoms: C_29  and  O_31
REMARK    7  A    between atoms: O_31  and  C_32
REMARK                            x       y       z     vdW  Elec       q    Type
REMARK                         _______ _______ _______ _____ _____    ______ ____
ROOT
ATOM      1  N   UNL     1      -1.366  -0.538  -0.003  0.00  0.00    -0.308 N 
ATOM      2  C   UNL     1      -2.052  -0.667  -1.156  0.00  0.00    +0.219 C 
ATOM      3  O   UNL     1      -1.526  -0.375  -2.209  0.00  0.00    -0.275 OA
ATOM      4  H   UNL     1      -1.786  -0.772   0.840  0.00  0.00    +0.149 HD
ENDROOT
BRANCH   2   5
ATOM      5  C   UNL     1      -3.471  -1.173  -1.136  0.00  0.00    +0.101 C 
ATOM      6  C   UNL     1      -4.399  -0.189  -0.387  0.00  0.00    +0.110 C 
ATOM      7  C   UNL     1      -4.956   0.699  -1.479  0.00  0.00    +0.221 C 
ATOM      8  O   UNL     1      -5.500   1.767  -1.295  0.00  0.00    -0.275 OA
ATOM      9  N   UNL     1      -4.760   0.132  -2.681  0.00  0.00    -0.271 N 
ATOM     10  C   UNL     1      -4.080  -1.165  -2.555  0.00  0.00    +0.127 C 
BRANCH   9  11
ATOM     11  C   UNL     1      -5.152   0.703  -3.897  0.00  0.00    +0.040 A 
ATOM     12  C   UNL     1      -4.804   0.092  -5.096  0.00  0.00    +0.024 A 
ATOM     13  C   UNL     1      -5.191   0.656  -6.296  0.00  0.00    +0.005 A 
ATOM     14  C   UNL     1      -5.924   1.828  -6.308  0.00  0.00    +0.046 A 
ATOM     15  C   UNL     1      -6.273   2.442  -5.113  0.00  0.00    +0.122 A 
ATOM     16  C   UNL     1      -5.893   1.876  -3.907  0.00  0.00    +0.069 A 
BRANCH  15  17
ATOM     17  O   UNL     1      -6.994   3.594  -5.126  0.00  0.00    -0.495 OA
ATOM     18  C   UNL     1      -7.357   4.117  -6.405  0.00  0.00    +0.277 C 
ENDBRANCH  15  17
ENDBRANCH   9  11
ENDBRANCH   2   5
BRANCH   1  20
ATOM     19  C   UNL     1       0.010   1.484  -0.018  0.00  0.00    +0.033 C 
ATOM     20  C   UNL     1       0.014  -0.046  -0.022  0.00  0.00    +0.100 C 
BRANCH  20  21
ATOM     21  C   UNL     1       0.744  -0.549   1.197  0.00  0.00    -0.026 A 
ATOM     22  C   UNL     1       0.097  -0.592   2.419  0.00  0.00    +0.009 A 
ATOM     23  C   UNL     1       0.759  -1.054   3.542  0.00  0.00    +0.048 A 
ATOM     24  C   UNL     1       2.074  -1.473   3.443  0.00  0.00    +0.142 A 
ATOM     25  C   UNL     1       2.726  -1.429   2.212  0.00  0.00    +0.076 A 
ATOM     26  C   UNL     1       2.056  -0.971   1.090  0.00  0.00    +0.032 A 
ATOM     27  N   UNL     1       4.060  -1.854   2.127  0.00  0.00    -0.280 N 
ATOM     28  C   UNL     1       4.581  -2.582   3.139  0.00  0.00    +0.255 C 
ATOM     29  O   UNL     1       5.741  -2.934   3.101  0.00  0.00    -0.272 OA
ATOM     30  C   UNL     1       3.715  -2.953   4.315  0.00  0.00    +0.325 C 
ATOM     31  O   UNL     1       2.740  -1.931   4.537  0.00  0.00    -0.481 OA
ATOM     32  H   UNL     1       4.599  -1.630   1.353  0.00  0.00    +0.155 HD
ENDBRANCH  20  21
ENDBRANCH   1  20
TORSDOF 5
