REMARK  Name = ZINC12349733
REMARK  7 active torsions:
REMARK  status: ('A' for Active; 'I' for Inactive)
REMARK    1  A    between atoms: C_1  and  C_2
REMARK    2  A    between atoms: N_5  and  C_7
REMARK    3  A    between atoms: C_16  and  C_18
REMARK    4  A    between atoms: C_21  and  O_24
REMARK    5  A    between atoms: O_24  and  C_25
REMARK    6  A    between atoms: C_25  and  C_26
REMARK    7  A    between atoms: C_31  and  C_34
REMARK                            x       y       z     vdW  Elec       q    Type
REMARK                         _______ _______ _______ _____ _____    ______ ____
ROOT
ATOM      1  C   UNL     1       2.016   0.129   3.047  0.00  0.00    +0.068 C 
ATOM      2  C   UNL     1       3.103   1.035   2.529  0.00  0.00    +0.066 A 
ATOM      3  C   UNL     1       3.284   1.412   1.205  0.00  0.00    +0.027 A 
ATOM      4  C   UNL     1       4.378   2.235   1.149  0.00  0.00    +0.131 A 
ATOM      5  N   UNL     1       4.856   2.367   2.404  0.00  0.00    -0.218 N 
ATOM      6  N   UNL     1       4.039   1.602   3.252  0.00  0.00    -0.170 NA
ATOM      7  N   UNL     1       4.820   2.771  -0.054  0.00  0.00    -0.302 N 
ATOM      8  C   UNL     1       4.346   2.231  -1.224  0.00  0.00    +0.017 C 
ATOM      9  C   UNL     1       3.264   1.423  -1.260  0.00  0.00    +0.024 C 
ATOM     10  C   UNL     1       2.490   1.045  -0.016  0.00  0.00    +0.089 C 
ATOM     11  C   UNL     1       2.802   0.892  -2.478  0.00  0.00    +0.162 C 
ATOM     12  O   UNL     1       1.830   0.162  -2.476  0.00  0.00    -0.292 OA
ATOM     13  C   UNL     1       3.482   1.205  -3.781  0.00  0.00    +0.088 C 
ATOM     14  C   UNL     1       4.138   2.586  -3.677  0.00  0.00    +0.039 C 
ATOM     15  C   UNL     1       5.101   2.572  -2.488  0.00  0.00    +0.060 C 
ATOM     16  H   UNL     1       5.448   3.510  -0.067  0.00  0.00    +0.153 HD
ENDROOT
BRANCH   5  17
ATOM     17  C   UNL     1       5.967   3.129   2.790  0.00  0.00    +0.067 A 
ATOM     18  C   UNL     1       7.069   3.228   1.950  0.00  0.00    +0.028 A 
ATOM     19  C   UNL     1       8.160   3.985   2.331  0.00  0.00    +0.002 A 
ATOM     20  C   UNL     1       8.161   4.633   3.552  0.00  0.00    +0.000 A 
ATOM     21  C   UNL     1       7.068   4.531   4.393  0.00  0.00    +0.002 A 
ATOM     22  C   UNL     1       5.972   3.781   4.016  0.00  0.00    +0.028 A 
ENDBRANCH   5  17
BRANCH  10  23
ATOM     23  C   UNL     1       1.176   1.783   0.000  0.00  0.00    -0.035 A 
ATOM     24  C   UNL     1      -0.013   1.076   0.008  0.00  0.00    +0.008 A 
ATOM     25  C   UNL     1      -1.218   1.750   0.017  0.00  0.00    +0.046 A 
ATOM     26  C   UNL     1      -1.237   3.137   0.031  0.00  0.00    +0.121 A 
ATOM     27  C   UNL     1      -0.043   3.844   0.024  0.00  0.00    +0.046 A 
ATOM     28  C   UNL     1       1.160   3.165   0.008  0.00  0.00    +0.008 A 
BRANCH  26  29
ATOM     29  O   UNL     1      -2.422   3.802   0.045  0.00  0.00    -0.481 OA
BRANCH  29  30
ATOM     30  C   UNL     1      -3.611   3.009   0.052  0.00  0.00    +0.353 C 
BRANCH  30  31
ATOM     31  C   UNL     1      -4.817   3.913   0.068  0.00  0.00    +0.393 C 
ATOM     32  O   UNL     1      -4.673   5.112   0.073  0.00  0.00    -0.243 OA
ATOM     33  O   UNL     1      -6.051   3.385   0.076  0.00  0.00    -0.243 OA
ENDBRANCH  30  31
ENDBRANCH  29  30
ENDBRANCH  26  29
ENDBRANCH  10  23
BRANCH  14  34
ATOM     34  C   UNL     1       4.899   2.884  -4.943  0.00  0.00    -0.006 A 
ATOM     35  C   UNL     1       4.724   3.898  -5.826  0.00  0.00    +0.011 A 
ATOM     36  C   UNL     1       5.552   3.976  -6.930  0.00  0.00    +0.008 A 
ATOM     37  C   UNL     1       6.508   3.030  -7.103  0.00  0.00    +0.045 A 
ATOM     38  S   UNL     1       6.260   1.989  -5.674  0.00  0.00    -0.101 S 
ENDBRANCH  14  34
TORSDOF 6
