REMARK  Name = ZINC12763783
REMARK  7 active torsions:
REMARK  status: ('A' for Active; 'I' for Inactive)
REMARK    1  A    between atoms: C_1  and  C_2
REMARK    2  A    between atoms: C_3  and  C_27
REMARK    3  A    between atoms: N_9  and  C_22
REMARK    4  A    between atoms: C_10  and  S_12
REMARK    5  A    between atoms: S_12  and  C_13
REMARK    6  A    between atoms: C_13  and  C_15
REMARK    7  A    between atoms: C_13  and  C_16
REMARK                            x       y       z     vdW  Elec       q    Type
REMARK                         _______ _______ _______ _____ _____    ______ ____
ROOT
ATOM      1  C   UNL     1      -0.888  -5.150  -0.016  0.00  0.00    +0.045 C 
ATOM      2  C   UNL     1       0.274  -4.189  -0.023  0.00  0.00    -0.026 A 
ATOM      3  C   UNL     1       1.534  -4.648  -0.038  0.00  0.00    -0.008 A 
ATOM      4  S   UNL     1       2.516  -3.161  -0.040  0.00  0.00    -0.073 S 
ATOM      5  C   UNL     1       1.206  -1.965  -0.021  0.00  0.00    +0.117 A 
ATOM      6  C   UNL     1       0.041  -2.755  -0.014  0.00  0.00    +0.075 A 
ATOM      7  C   UNL     1      -1.197  -2.039   0.003  0.00  0.00    +0.263 A 
ATOM      8  O   UNL     1      -2.258  -2.640   0.009  0.00  0.00    -0.267 OA
ATOM      9  N   UNL     1      -1.176  -0.694   0.010  0.00  0.00    -0.284 N 
ATOM     10  C   UNL     1       0.002  -0.004   0.002  0.00  0.00    +0.174 A 
ATOM     11  N   UNL     1       1.157  -0.638  -0.018  0.00  0.00    -0.216 NA
ATOM     12  C   UNL     1       2.006  -6.080  -0.050  0.00  0.00    +0.052 C 
ENDROOT
BRANCH   9  13
ATOM     13  C   UNL     1      -2.441   0.045   0.026  0.00  0.00    +0.093 C 
ATOM     14  C   UNL     1      -3.273  -0.360   1.260  0.00  0.00    +0.025 C 
ATOM     15  C   UNL     1      -4.736  -0.363   0.746  0.00  0.00    +0.002 C 
ATOM     16  C   UNL     1      -4.594  -0.934  -0.687  0.00  0.00    +0.002 C 
ATOM     17  C   UNL     1      -3.280  -0.319  -1.211  0.00  0.00    +0.025 C 
ENDBRANCH   9  13
BRANCH  10  18
ATOM     18  S   UNL     1      -0.022   1.758   0.012  0.00  0.00    -0.075 S 
BRANCH  18  19
ATOM     19  C   UNL     1       1.756   2.096  -0.004  0.00  0.00    +0.137 C 
ATOM     20  C   UNL     1       2.384   1.586   1.295  0.00  0.00    +0.029 C 
BRANCH  19  21
ATOM     21  C   UNL     1       1.984   3.581  -0.121  0.00  0.00    +0.233 C 
ATOM     22  O   UNL     1       1.132   4.357   0.255  0.00  0.00    -0.274 OA
ATOM     23  N   UNL     1       3.135   4.047  -0.646  0.00  0.00    -0.239 N 
ATOM     24  C   UNL     1       3.338   5.375  -0.752  0.00  0.00    +0.303 C 
ATOM     25  O   UNL     1       2.484   6.153  -0.374  0.00  0.00    -0.253 OA
ATOM     26  N   UNL     1       4.489   5.841  -1.276  0.00  0.00    -0.313 N 
ATOM     27  H   UNL     1       3.816   3.426  -0.948  0.00  0.00    +0.159 HD
ATOM     28  H   UNL     1       5.171   5.220  -1.578  0.00  0.00    +0.146 HD
ATOM     29  H   UNL     1       4.636   6.797  -1.352  0.00  0.00    +0.146 HD
ENDBRANCH  19  21
ENDBRANCH  18  19
ENDBRANCH  10  18
TORSDOF 4
