REMARK  Name = ZINC45153794
REMARK  6 active torsions:
REMARK  status: ('A' for Active; 'I' for Inactive)
REMARK    1  A    between atoms: C_1  and  C_2
REMARK    2  A    between atoms: C_5  and  C_7
REMARK    3  A    between atoms: C_7  and  N_8
REMARK    4  A    between atoms: N_11  and  C_12
REMARK    5  A    between atoms: C_12  and  C_14
REMARK    6  A    between atoms: C_12  and  C_20
REMARK                            x       y       z     vdW  Elec       q    Type
REMARK                         _______ _______ _______ _____ _____    ______ ____
ROOT
ATOM      1  N   UNL     1       1.210  -4.510  -1.412  0.00  0.00    -0.295 N 
ATOM      2  C   UNL     1       1.680  -5.747  -1.667  0.00  0.00    +0.301 C 
ATOM      3  O   UNL     1       1.965  -6.491  -0.749  0.00  0.00    -0.253 OA
ATOM      4  N   UNL     1       1.834  -6.159  -2.941  0.00  0.00    -0.286 N 
ATOM      5  H   UNL     1       0.983  -3.917  -2.144  0.00  0.00    +0.151 HD
ATOM      6  H   UNL     1       1.606  -5.566  -3.674  0.00  0.00    +0.151 HD
ENDROOT
BRANCH   1   7
ATOM      7  C   UNL     1       1.043  -4.062  -0.027  0.00  0.00    +0.148 C 
BRANCH   7  12
ATOM      8  C   UNL     1      -0.018   1.503   0.010  0.00  0.00    +0.051 C 
ATOM      9  C   UNL     1       0.002  -0.004   0.002  0.00  0.00    -0.013 A 
ATOM     10  C   UNL     1      -1.039  -0.872   0.002  0.00  0.00    +0.011 A 
ATOM     11  C   UNL     1      -0.780  -2.230  -0.007  0.00  0.00    +0.013 A 
ATOM     12  C   UNL     1       0.507  -2.653  -0.016  0.00  0.00    +0.007 A 
ATOM     13  S   UNL     1       1.404  -1.109  -0.018  0.00  0.00    -0.097 S 
ENDBRANCH   7  12
ENDBRANCH   1   7
BRANCH   4  14
ATOM     14  C   UNL     1       2.345  -7.504  -3.219  0.00  0.00    +0.171 C 
BRANCH  14  15
ATOM     15  C   UNL     1       2.991  -7.524  -4.580  0.00  0.00    -0.020 A 
ATOM     16  C   UNL     1       2.417  -6.831  -5.629  0.00  0.00    +0.006 A 
ATOM     17  C   UNL     1       3.010  -6.849  -6.877  0.00  0.00    +0.000 A 
ATOM     18  C   UNL     1       4.178  -7.561  -7.077  0.00  0.00    +0.000 A 
ATOM     19  C   UNL     1       4.753  -8.254  -6.028  0.00  0.00    +0.000 A 
ATOM     20  C   UNL     1       4.162  -8.232  -4.779  0.00  0.00    +0.006 A 
ENDBRANCH  14  15
BRANCH  14  21
ATOM     21  C   UNL     1       1.205  -8.490  -3.190  0.00  0.00    +0.129 A 
ATOM     22  C   UNL     1       1.247  -9.725  -2.658  0.00  0.00    +0.047 A 
ATOM     23  C   UNL     1      -0.032 -10.297  -2.849  0.00  0.00    +0.041 A 
ATOM     24  C   UNL     1      -0.778  -9.377  -3.486  0.00  0.00    +0.195 A 
ATOM     25  O   UNL     1      -0.026  -8.283  -3.685  0.00  0.00    -0.466 OA
ENDBRANCH  14  21
ENDBRANCH   4  14
TORSDOF 5
