REMARK  Name = ZINC62537801
REMARK  4 active torsions:
REMARK  status: ('A' for Active; 'I' for Inactive)
REMARK    1  A    between atoms: C_1  and  C_2
REMARK    2  A    between atoms: C_6  and  C_9
REMARK    3  A    between atoms: C_7  and  N_8
REMARK    4  A    between atoms: C_11  and  C_13
REMARK                            x       y       z     vdW  Elec       q    Type
REMARK                         _______ _______ _______ _____ _____    ______ ____
ROOT
ATOM      1  C   UNL     1      -0.018   1.503   0.010  0.00  0.00    +0.046 C 
ATOM      2  C   UNL     1       0.002  -0.004   0.002  0.00  0.00    -0.026 A 
ATOM      3  C   UNL     1       0.006  -0.683  -1.199  0.00  0.00    +0.053 A 
ATOM      4  C   UNL     1       0.024  -2.068  -1.211  0.00  0.00    +0.156 A 
ATOM      5  C   UNL     1       0.040  -2.780  -0.001  0.00  0.00    +0.115 A 
ATOM      6  C   UNL     1       0.036  -2.086   1.211  0.00  0.00    -0.001 A 
ATOM      7  C   UNL     1       0.023  -0.703   1.207  0.00  0.00    +0.033 A 
ATOM      8  C   UNL     1       0.052  -2.839   2.516  0.00  0.00    +0.048 C 
ATOM      9  N   UNL     1       0.056  -4.099  -0.324  0.00  0.00    -0.209 NA
ATOM     10  C   UNL     1       0.051  -4.213  -1.628  0.00  0.00    +0.228 A 
ATOM     11  O   UNL     1       0.032  -2.994  -2.198  0.00  0.00    -0.435 OA
ENDROOT
BRANCH  10  12
ATOM     12  C   UNL     1       0.065  -5.493  -2.366  0.00  0.00    +0.037 A 
ATOM     13  C   UNL     1       0.080  -6.704  -1.670  0.00  0.00    +0.016 A 
ATOM     14  C   UNL     1       0.093  -7.895  -2.364  0.00  0.00    +0.039 A 
ATOM     15  C   UNL     1       0.092  -7.893  -3.750  0.00  0.00    +0.123 A 
ATOM     16  C   UNL     1       0.078  -6.694  -4.446  0.00  0.00    +0.039 A 
ATOM     17  C   UNL     1       0.058  -5.497  -3.762  0.00  0.00    +0.016 A 
ATOM     18  F   UNL     1       0.106  -9.063  -4.425  0.00  0.00    -0.205 F 
ENDBRANCH  10  12
BRANCH   7  19
ATOM     19  N   UNL     1       0.025  -0.002   2.418  0.00  0.00    -0.357 N 
ATOM     20  H   UNL     1       0.012   0.968   2.418  0.00  0.00    +0.142 HD
ATOM     21  H   UNL     1       0.040  -0.487   3.258  0.00  0.00    +0.142 HD
ENDBRANCH   7  19
TORSDOF 2
