REMARK  Name = ZINC01619591
REMARK  9 active torsions:
REMARK  status: ('A' for Active; 'I' for Inactive)
REMARK    1  A    between atoms: C_1  and  C_2
REMARK    2  A    between atoms: C_2  and  C_23
REMARK    3  A    between atoms: C_10  and  C_13
REMARK    4  A    between atoms: C_11  and  N_12
REMARK    5  A    between atoms: C_13  and  C_15
REMARK    6  A    between atoms: C_15  and  CA_16
REMARK    7  A    between atoms: CA_16  and  C_18
REMARK    8  A    between atoms: CA_16  and  N_41
REMARK    9  A    between atoms: C_18  and  O_19
REMARK                            x       y       z     vdW  Elec       q    Type
REMARK                         _______ _______ _______ _____ _____    ______ ____
ROOT
ATOM      1  C   UNL     1      -6.220  -0.933  -0.723  0.00  0.00    +0.056 C 
ATOM      2  C   UNL     1      -4.869  -0.246  -0.926  0.00  0.00    +0.112 C 
ATOM      3  C   UNL     1      -3.741  -1.194  -0.493  0.00  0.00    +0.127 C 
ATOM      4  C   UNL     1      -2.432  -0.449  -0.684  0.00  0.00    +0.172 C 
ATOM      5  O   UNL     1      -1.442  -0.999  -1.121  0.00  0.00    -0.292 OA
ATOM      6  C   UNL     1      -2.424   0.972  -0.312  0.00  0.00    +0.080 A 
ATOM      7  C   UNL     1      -3.647   1.619  -0.060  0.00  0.00    +0.134 A 
ATOM      8  C   UNL     1      -3.652   2.969   0.277  0.00  0.00    +0.047 A 
ATOM      9  C   UNL     1      -2.474   3.672   0.372  0.00  0.00    +0.017 A 
ATOM     10  C   UNL     1      -1.244   3.042   0.136  0.00  0.00    +0.039 A 
ATOM     11  C   UNL     1      -1.217   1.677  -0.213  0.00  0.00    +0.049 A 
ATOM     12  O   UNL     1      -4.815   0.943  -0.138  0.00  0.00    -0.485 OA
ATOM     13  C   UNL     1      -4.695   0.113  -2.404  0.00  0.00    +0.056 C 
ENDROOT
BRANCH  11  14
ATOM     14  N   UNL     1      -0.017   1.042  -0.449  0.00  0.00    -0.357 N 
ATOM     15  H   UNL     1       0.737   1.544  -0.797  0.00  0.00    +0.142 HD
ATOM     16  H   UNL     1       0.075   0.095  -0.262  0.00  0.00    +0.142 HD
ENDBRANCH  11  14
BRANCH  10  17
ATOM     17  C   UNL     1       0.004   3.798   0.248  0.00  0.00    +0.163 C 
ATOM     18  O   UNL     1       1.070   3.228   0.146  0.00  0.00    -0.292 OA
BRANCH  17  19
ATOM     19  C   UNL     1      -0.036   5.285   0.488  0.00  0.00    +0.066 C 
BRANCH  19  20
ATOM     20  CA  UNL     1       1.393   5.828   0.564  0.00  0.00    -0.042 C 
BRANCH  20  23
ATOM     21  H1  UNL     1       1.551   6.162  -1.462  0.00  0.00    -0.090 HD
ATOM     22  H2  UNL     1       3.014   5.954  -0.699  0.00  0.00    -0.090 HD
ATOM     23  N   UNL     1       2.047   5.637  -0.743  0.00  0.00    +0.382 N 
ATOM     24  H3  UNL     1       2.031   4.640  -0.986  0.00  0.00    -0.090 HD
ENDBRANCH  20  23
BRANCH  20  25
ATOM     25  C   UNL     1       1.356   7.312   0.931  0.00  0.00    +0.140 C 
BRANCH  25  26
ATOM     26  O   UNL     1       2.690   7.791   1.116  0.00  0.00    -0.397 OA
ATOM     27  H   UNL     1       2.743   8.727   1.351  0.00  0.00    +0.209 HD
ENDBRANCH  25  26
ENDBRANCH  20  25
ENDBRANCH  19  20
ENDBRANCH  17  19
ENDBRANCH  10  17
TORSDOF 7
