REMARK  Name = ZINC49275357
REMARK  6 active torsions:
REMARK  status: ('A' for Active; 'I' for Inactive)
REMARK    1  A    between atoms: C_1  and  C_2
REMARK    2  A    between atoms: C_2  and  C_3
REMARK    3  A    between atoms: C_3  and  N_4
REMARK    4  A    between atoms: N_7  and  N_8
REMARK    5  A    between atoms: N_8  and  S_9
REMARK    6  A    between atoms: S_9  and  C_12
REMARK                            x       y       z     vdW  Elec       q    Type
REMARK                         _______ _______ _______ _____ _____    ______ ____
ROOT
ATOM      1  S   UNL     1      -0.406  -5.825  -1.557  0.00  0.00    +0.079 S 
ATOM      2  O   UNL     1      -0.695  -6.465  -0.322  0.00  0.00    -0.152 OA
ATOM      3  O   UNL     1      -1.406  -5.182  -2.335  0.00  0.00    -0.152 OA
ENDROOT
BRANCH   1   4
ATOM      4  C   UNL     1       0.333  -7.043  -2.595  0.00  0.00    +0.177 A 
ATOM      5  C   UNL     1       0.286  -6.900  -3.971  0.00  0.00    +0.155 A 
ATOM      6  C   UNL     1       0.866  -7.857  -4.786  0.00  0.00    +0.078 A 
ATOM      7  C   UNL     1       1.494  -8.955  -4.226  0.00  0.00    +0.129 A 
ATOM      8  C   UNL     1       1.543  -9.097  -2.849  0.00  0.00    +0.078 A 
ATOM      9  C   UNL     1       0.966  -8.139  -2.034  0.00  0.00    +0.155 A 
ATOM     10  F   UNL     1       1.017  -8.275  -0.691  0.00  0.00    -0.203 F 
ATOM     11  F   UNL     1       2.060  -9.889  -5.021  0.00  0.00    -0.205 F 
ATOM     12  F   UNL     1      -0.328  -5.828  -4.519  0.00  0.00    -0.203 F 
ENDBRANCH   1   4
BRANCH   1  13
ATOM     13  N   UNL     1       0.752  -4.685  -1.240  0.00  0.00    -0.107 NA
ATOM     14  H   UNL     1       1.024  -4.511  -0.325  0.00  0.00    +0.172 HD
BRANCH  13  18
ATOM     15  N   UNL     1       0.738  -1.962  -1.265  0.00  0.00    -0.298 N 
ATOM     16  C   UNL     1       1.321  -2.623  -2.285  0.00  0.00    +0.315 C 
ATOM     17  O   UNL     1       1.831  -2.003  -3.198  0.00  0.00    -0.251 OA
ATOM     18  N   UNL     1       1.339  -3.970  -2.292  0.00  0.00    -0.216 N 
ATOM     19  H   UNL     1       0.332  -2.457  -0.536  0.00  0.00    +0.150 HD
ATOM     20  H   UNL     1       1.759  -4.446  -3.026  0.00  0.00    +0.172 HD
BRANCH  15  21
ATOM     21  C   UNL     1       0.718  -0.497  -1.257  0.00  0.00    +0.105 C 
BRANCH  21  23
ATOM     22  C   UNL     1      -0.019   1.526   0.010  0.00  0.00    +0.005 C 
ATOM     23  C   UNL     1       0.002  -0.004   0.002  0.00  0.00    +0.015 C 
ENDBRANCH  21  23
ENDBRANCH  15  21
ENDBRANCH  13  18
ENDBRANCH   1  13
TORSDOF 5
