REMARK  Name = ZINC36556344
REMARK  17 active torsions:
REMARK  status: ('A' for Active; 'I' for Inactive)
REMARK    1  A    between atoms: C_1  and  C_2
REMARK    2  A    between atoms: C_5  and  C_7
REMARK    3  A    between atoms: C_7  and  N_8
REMARK    4  A    between atoms: N_8  and  C_9
REMARK    5  A    between atoms: C_9  and  C_11
REMARK    6  A    between atoms: C_9  and  C_20
REMARK    7  A    between atoms: C_12  and  O_19
REMARK    8  A    between atoms: C_14  and  O_18
REMARK    9  A    between atoms: C_16  and  O_17
REMARK   10  A    between atoms: N_22  and  C_23
REMARK   11  A    between atoms: C_23  and  C_24
REMARK   12  A    between atoms: C_23  and  C_25
REMARK   13  A    between atoms: C_23  and  C_26
REMARK   14  A    between atoms: C_27  and  C_29
REMARK   15  A    between atoms: C_29  and  C_31
REMARK   16  A    between atoms: C_29  and  O_37
REMARK   17  A    between atoms: O_37  and  C_38
REMARK                            x       y       z     vdW  Elec       q    Type
REMARK                         _______ _______ _______ _____ _____    ______ ____
ROOT
ATOM      1  C   UNL     1       2.824  -3.397  -0.898  0.00  0.00    +0.200 C 
ENDROOT
BRANCH   1   2
ATOM      2  C   UNL     1       3.465  -4.704  -0.508  0.00  0.00    +0.065 A 
ATOM      3  C   UNL     1       4.464  -5.250  -1.300  0.00  0.00    +0.129 A 
ATOM      4  C   UNL     1       5.054  -6.452  -0.941  0.00  0.00    +0.091 A 
ATOM      5  C   UNL     1       4.645  -7.108   0.211  0.00  0.00    +0.124 A 
ATOM      6  C   UNL     1       3.647  -6.562   1.003  0.00  0.00    +0.091 A 
ATOM      7  C   UNL     1       3.060  -5.357   0.646  0.00  0.00    +0.129 A 
BRANCH   7   8
ATOM      8  O   UNL     1       2.085  -4.819   1.426  0.00  0.00    -0.506 OA
ATOM      9  H   UNL     1       1.192  -5.102   1.188  0.00  0.00    +0.292 HD
ENDBRANCH   7   8
BRANCH   5  10
ATOM     10  O   UNL     1       5.223  -8.287   0.562  0.00  0.00    -0.507 OA
ATOM     11  H   UNL     1       6.000  -8.191   1.130  0.00  0.00    +0.292 HD
ENDBRANCH   5  10
BRANCH   3  12
ATOM     12  O   UNL     1       4.864  -4.607  -2.428  0.00  0.00    -0.506 OA
ATOM     13  H   UNL     1       5.639  -4.041  -2.305  0.00  0.00    +0.292 HD
ENDBRANCH   3  12
ENDBRANCH   1   2
BRANCH   1  14
ATOM     14  C   UNL     1       3.252  -2.320   0.066  0.00  0.00    +0.239 C 
ATOM     15  O   UNL     1       2.418  -1.701   0.692  0.00  0.00    -0.273 OA
ATOM     16  N   UNL     1       4.561  -2.045   0.231  0.00  0.00    -0.309 N 
ATOM     17  H   UNL     1       5.227  -2.540  -0.270  0.00  0.00    +0.149 HD
BRANCH  16  18
ATOM     18  C   UNL     1       4.976  -0.998   1.168  0.00  0.00    +0.026 C 
ATOM     19  C   UNL     1       4.492  -1.351   2.575  0.00  0.00    +0.031 C 
ATOM     20  C   UNL     1       6.502  -0.888   1.165  0.00  0.00    +0.031 C 
ATOM     21  C   UNL     1       4.369   0.340   0.740  0.00  0.00    +0.031 C 
ENDBRANCH  16  18
ENDBRANCH   1  14
BRANCH   1  22
ATOM     22  N   UNL     1       1.366  -3.537  -0.858  0.00  0.00    -0.276 N 
ATOM     23  C   UNL     1       0.722  -4.170  -1.859  0.00  0.00    +0.250 C 
ATOM     24  O   UNL     1       1.335  -4.530  -2.842  0.00  0.00    -0.272 OA
BRANCH  22  25
ATOM     25  C   UNL     1       0.608  -2.990   0.270  0.00  0.00    +0.183 C 
BRANCH  25  30
ATOM     26  C   UNL     1       0.236   2.028  -0.086  0.00  0.00    +0.086 C 
ATOM     27  C   UNL     1      -0.071   0.561  -0.244  0.00  0.00    +0.102 A 
ATOM     28  C   UNL     1      -1.127   0.045  -0.897  0.00  0.00    +0.045 A 
ATOM     29  C   UNL     1      -1.023  -1.362  -0.798  0.00  0.00    +0.046 A 
ATOM     30  C   UNL     1       0.091  -1.621  -0.090  0.00  0.00    +0.122 A 
ATOM     31  O   UNL     1       0.667  -0.452   0.238  0.00  0.00    -0.463 OA
ENDBRANCH  25  30
ENDBRANCH  22  25
BRANCH  23  32
ATOM     32  C   UNL     1      -0.758  -4.429  -1.757  0.00  0.00    +0.233 C 
BRANCH  32  33
ATOM     33  C   UNL     1      -0.999  -5.619  -0.863  0.00  0.00    -0.010 A 
ATOM     34  C   UNL     1      -0.779  -6.897  -1.340  0.00  0.00    +0.006 A 
ATOM     35  C   UNL     1      -1.000  -7.989  -0.521  0.00  0.00    +0.000 A 
ATOM     36  C   UNL     1      -1.441  -7.801   0.776  0.00  0.00    +0.000 A 
ATOM     37  C   UNL     1      -1.661  -6.522   1.253  0.00  0.00    +0.000 A 
ATOM     38  C   UNL     1      -1.435  -5.431   0.435  0.00  0.00    +0.006 A 
ENDBRANCH  32  33
BRANCH  32  39
ATOM     39  O   UNL     1      -1.286  -4.696  -3.058  0.00  0.00    -0.366 OA
ATOM     40  C   UNL     1      -1.736  -3.531  -3.753  0.00  0.00    +0.195 C 
ENDBRANCH  32  39
ENDBRANCH  23  32
ENDBRANCH   1  22
TORSDOF 12
