REMARK  Name = ZINC65252692
REMARK  13 active torsions:
REMARK  status: ('A' for Active; 'I' for Inactive)
REMARK    1  A    between atoms: C_1  and  C_2
REMARK    2  A    between atoms: C_2  and  C_3
REMARK    3  A    between atoms: C_3  and  C_4
REMARK    4  A    between atoms: C_4  and  C_5
REMARK    5  A    between atoms: C_4  and  N_6
REMARK    6  A    between atoms: C_7  and  C_9
REMARK    7  A    between atoms: N_13  and  C_15
REMARK    8  A    between atoms: C_15  and  C_16
REMARK    9  A    between atoms: C_15  and  C_17
REMARK   10  A    between atoms: N_22  and  C_23
REMARK   11  A    between atoms: C_23  and  C_24
REMARK   12  A    between atoms: C_23  and  C_25
REMARK   13  A    between atoms: C_23  and  C_26
REMARK                            x       y       z     vdW  Elec       q    Type
REMARK                         _______ _______ _______ _____ _____    ______ ____
ROOT
ATOM      1  C   UNL     1       0.589  -4.528   1.681  0.00  0.00    +0.058 C 
ATOM      2  C   UNL     1       0.492  -3.610   2.903  0.00  0.00    +0.009 C 
ATOM      3  C   UNL     1       1.731  -3.811   3.780  0.00  0.00    -0.018 C 
ATOM      4  C   UNL     1       1.838  -5.287   4.171  0.00  0.00    -0.078 C 
ATOM      5  N   UNL     1       1.955  -6.110   2.961  0.00  0.00    +0.388 N 
ATOM      6  C   UNL     1       0.739  -5.977   2.150  0.00  0.00    -0.065 C 
ATOM      7  H   UNL     1       2.752  -5.804   2.423  0.00  0.00    -0.081 HD
ENDROOT
BRANCH   1   9
ATOM      8  N   UNL     1      -0.999  -3.199   0.329  0.00  0.00    -0.313 N 
ATOM      9  C   UNL     1      -0.662  -4.394   0.851  0.00  0.00    +0.215 C 
ATOM     10  O   UNL     1      -1.364  -5.363   0.653  0.00  0.00    -0.276 OA
ATOM     11  H   UNL     1      -0.437  -2.424   0.487  0.00  0.00    +0.149 HD
BRANCH   8  12
ATOM     12  C   UNL     1      -2.215  -3.069  -0.479  0.00  0.00    +0.070 C 
ATOM     13  C   UNL     1      -1.908  -3.451  -1.928  0.00  0.00    +0.028 C 
BRANCH  12  14
ATOM     14  C   UNL     1      -2.710  -1.622  -0.426  0.00  0.00    +0.022 C 
BRANCH  14  16
ATOM     15  C   UNL     1      -3.629   0.167   1.055  0.00  0.00    +0.004 C 
ATOM     16  C   UNL     1      -3.135  -1.280   1.003  0.00  0.00    -0.002 C 
ENDBRANCH  14  16
ENDBRANCH  12  14
ENDBRANCH   8  12
ENDBRANCH   1   9
BRANCH   5  17
ATOM     17  C   UNL     1       2.136  -7.516   3.343  0.00  0.00    +0.017 C 
ATOM     18  C   UNL     1       3.412  -7.659   4.175  0.00  0.00    -0.004 C 
BRANCH  17  19
ATOM     19  C   UNL     1       2.249  -8.363   2.101  0.00  0.00    +0.207 C 
ATOM     20  O   UNL     1       2.698  -7.887   1.081  0.00  0.00    -0.277 OA
ATOM     21  N   UNL     1       1.851  -9.651   2.125  0.00  0.00    -0.242 N 
ATOM     22  C   UNL     1       1.952 -10.408   1.015  0.00  0.00    +0.306 C 
ATOM     23  O   UNL     1       2.402  -9.930  -0.008  0.00  0.00    -0.252 OA
ATOM     24  N   UNL     1       1.553 -11.695   1.039  0.00  0.00    -0.294 N 
ATOM     25  H   UNL     1       1.491 -10.032   2.942  0.00  0.00    +0.159 HD
ATOM     26  H   UNL     1       1.194 -12.077   1.855  0.00  0.00    +0.151 HD
BRANCH  24  27
ATOM     27  C   UNL     1       1.663 -12.519  -0.168  0.00  0.00    +0.028 C 
ATOM     28  C   UNL     1       3.128 -12.593  -0.603  0.00  0.00    +0.031 C 
ATOM     29  C   UNL     1       1.147 -13.928   0.128  0.00  0.00    +0.031 C 
ATOM     30  C   UNL     1       0.829 -11.895  -1.288  0.00  0.00    +0.031 C 
ENDBRANCH  24  27
ENDBRANCH  17  19
ENDBRANCH   5  17
TORSDOF 7
