REMARK  Name = ZINC59720813
REMARK  7 active torsions:
REMARK  status: ('A' for Active; 'I' for Inactive)
REMARK    1  A    between atoms: C_1  and  C_2
REMARK    2  A    between atoms: C_2  and  C_16
REMARK    3  A    between atoms: N_3  and  N_4
REMARK    4  A    between atoms: C_5  and  C_7
REMARK    5  A    between atoms: C_7  and  N_8
REMARK    6  A    between atoms: N_8  and  C_9
REMARK    7  A    between atoms: C_19  and  N_22
REMARK                            x       y       z     vdW  Elec       q    Type
REMARK                         _______ _______ _______ _____ _____    ______ ____
ROOT
ATOM      1  N   UNL     1      -1.028  -1.642   1.344  0.00  0.00    -0.205 N 
ATOM      2  C   UNL     1      -1.521  -1.998   2.546  0.00  0.00    +0.249 C 
ATOM      3  O   UNL     1      -1.410  -1.249   3.494  0.00  0.00    -0.272 OA
ATOM      4  H   UNL     1      -1.117  -2.241   0.586  0.00  0.00    +0.177 HD
ENDROOT
BRANCH   1   7
ATOM      5  C   UNL     1       0.815   1.237  -0.141  0.00  0.00    +0.068 C 
ATOM      6  C   UNL     1      -0.010  -0.015   0.009  0.00  0.00    +0.063 C 
ATOM      7  N   UNL     1      -0.388  -0.405   1.187  0.00  0.00    -0.185 NA
BRANCH   6   8
ATOM      8  C   UNL     1      -0.386  -0.797  -1.183  0.00  0.00    -0.002 A 
ATOM      9  C   UNL     1      -1.654  -1.377  -1.270  0.00  0.00    +0.012 A 
ATOM     10  C   UNL     1      -2.000  -2.107  -2.389  0.00  0.00    +0.033 A 
ATOM     11  C   UNL     1      -1.094  -2.265  -3.422  0.00  0.00    +0.126 A 
ATOM     12  C   UNL     1       0.164  -1.694  -3.343  0.00  0.00    +0.033 A 
ATOM     13  C   UNL     1       0.521  -0.957  -2.233  0.00  0.00    +0.012 A 
BRANCH  11  14
ATOM     14  N   UNL     1      -1.472  -3.051  -4.619  0.00  0.00    +0.056 N 
ATOM     15  O   UNL     1      -2.570  -3.552  -4.691  0.00  0.00    -0.126 OA
ATOM     16  O   UNL     1      -0.682  -3.191  -5.524  0.00  0.00    -0.126 OA
ENDBRANCH  11  14
ENDBRANCH   6   8
ENDBRANCH   1   7
BRANCH   2  17
ATOM     17  C   UNL     1      -2.209  -3.328   2.715  0.00  0.00    +0.199 C 
BRANCH  17  18
ATOM     18  N   UNL     1      -2.651  -3.478   4.103  0.00  0.00    -0.335 N 
ATOM     19  H   UNL     1      -2.479  -2.771   4.745  0.00  0.00    +0.147 HD
BRANCH  18  20
ATOM     20  C   UNL     1      -3.319  -4.638   4.503  0.00  0.00    +0.028 A 
ATOM     21  C   UNL     1      -3.560  -5.653   3.586  0.00  0.00    +0.024 A 
ATOM     22  C   UNL     1      -4.220  -6.798   3.985  0.00  0.00    +0.016 A 
ATOM     23  C   UNL     1      -4.642  -6.935   5.295  0.00  0.00    +0.013 A 
ATOM     24  C   UNL     1      -4.403  -5.926   6.210  0.00  0.00    +0.016 A 
ATOM     25  C   UNL     1      -3.738  -4.781   5.820  0.00  0.00    +0.024 A 
ATOM     26  I   UNL     1      -5.645  -8.674   5.894  0.00  0.00    -0.044 I 
ENDBRANCH  18  20
ENDBRANCH  17  18
ENDBRANCH   2  17
TORSDOF 6
