REMARK  Name = ZINC50832512
REMARK  7 active torsions:
REMARK  status: ('A' for Active; 'I' for Inactive)
REMARK    1  A    between atoms: C_1  and  C_2
REMARK    2  A    between atoms: C_7  and  O_10
REMARK    3  A    between atoms: O_10  and  C_11
REMARK    4  A    between atoms: C_11  and  C_12
REMARK    5  A    between atoms: C_14  and  N_20
REMARK    6  A    between atoms: C_17  and  N_18
REMARK    7  A    between atoms: N_18  and  C_19
REMARK                            x       y       z     vdW  Elec       q    Type
REMARK                         _______ _______ _______ _____ _____    ______ ____
ROOT
ATOM      1  C   UNL     1       2.812  -4.165   3.477  0.00  0.00    +0.001 A 
ATOM      2  C   UNL     1       2.727  -3.356   4.593  0.00  0.00    +0.040 A 
ATOM      3  C   UNL     1       3.361  -3.723   5.765  0.00  0.00    +0.127 A 
ATOM      4  C   UNL     1       4.082  -4.902   5.825  0.00  0.00    +0.034 A 
ATOM      5  C   UNL     1       4.171  -5.716   4.713  0.00  0.00    +0.025 A 
ATOM      6  C   UNL     1       3.530  -5.352   3.535  0.00  0.00    +0.032 A 
ENDROOT
BRANCH   6   7
ATOM      7  N   UNL     1       3.613  -6.176   2.411  0.00  0.00    -0.347 N 
ATOM      8  C   UNL     1       4.371  -7.428   2.474  0.00  0.00    +0.125 C 
ATOM      9  H   UNL     1       3.168  -5.920   1.587  0.00  0.00    +0.146 HD
ENDBRANCH   6   7
BRANCH   3  10
ATOM     10  N   UNL     1       3.268  -2.853   6.959  0.00  0.00    +0.056 N 
ATOM     11  O   UNL     1       2.639  -1.822   6.908  0.00  0.00    -0.126 OA
ATOM     12  O   UNL     1       3.822  -3.173   7.985  0.00  0.00    -0.126 OA
ENDBRANCH   3  10
BRANCH   1  13
ATOM     13  C   UNL     1       2.120  -3.764   2.200  0.00  0.00    +0.197 C 
BRANCH  13  14
ATOM     14  O   UNL     1       1.454  -2.514   2.391  0.00  0.00    -0.372 OA
BRANCH  14  20
ATOM     15  C   UNL     1      -0.019   1.526   0.010  0.00  0.00    +0.007 C 
ATOM     16  C   UNL     1       0.002  -0.004   0.002  0.00  0.00    -0.012 C 
ATOM     17  C   UNL     1      -1.433  -0.534   0.013  0.00  0.00    +0.003 C 
ATOM     18  C   UNL     1      -1.413  -2.063   0.004  0.00  0.00    +0.003 C 
ATOM     19  C   UNL     1      -0.673  -2.570   1.244  0.00  0.00    +0.031 C 
ATOM     20  C   UNL     1       0.763  -2.041   1.233  0.00  0.00    +0.119 C 
ATOM     21  C   UNL     1       0.742  -0.511   1.242  0.00  0.00    +0.035 C 
ENDBRANCH  14  20
ENDBRANCH  13  14
ENDBRANCH   1  13
TORSDOF 5
