REMARK  Name = ZINC37543771
REMARK  7 active torsions:
REMARK  status: ('A' for Active; 'I' for Inactive)
REMARK    1  A    between atoms: C_4  and  O_11
REMARK    2  A    between atoms: C_5  and  C_7
REMARK    3  A    between atoms: C_8  and  C_9
REMARK    4  A    between atoms: C_9  and  O_10
REMARK    5  A    between atoms: O_11  and  C_12
REMARK    6  A    between atoms: C_12  and  C_13
REMARK    7  A    between atoms: C_16  and  C_19
REMARK                            x       y       z     vdW  Elec       q    Type
REMARK                         _______ _______ _______ _____ _____    ______ ____
ROOT
ATOM      1  C   UNL     1      -0.017   1.375   0.010  0.00  0.00    +0.001 A 
ATOM      2  C   UNL     1       1.169   2.089   0.002  0.00  0.00    +0.004 A 
ATOM      3  C   UNL     1       2.382   1.427  -0.013  0.00  0.00    +0.047 A 
ATOM      4  C   UNL     1       2.418   0.042  -0.022  0.00  0.00    +0.136 A 
ATOM      5  C   UNL     1       1.221  -0.683  -0.014  0.00  0.00    +0.067 A 
ATOM      6  C   UNL     1       0.002  -0.004   0.002  0.00  0.00    +0.020 A 
ENDROOT
BRANCH   5   7
ATOM      7  C   UNL     1       1.246  -2.115  -0.022  0.00  0.00    -0.060 C 
ATOM      8  C   UNL     1       1.268  -3.289  -0.030  0.00  0.00    -0.069 C 
BRANCH   8   9
ATOM      9  C   UNL     1       1.294  -4.760  -0.039  0.00  0.00    +0.244 C 
BRANCH   9  10
ATOM     10  O   UNL     1      -0.044  -5.261  -0.028  0.00  0.00    -0.383 OA
ATOM     11  H   UNL     1      -0.103  -6.226  -0.033  0.00  0.00    +0.211 HD
ENDBRANCH   9  10
ENDBRANCH   8   9
ENDBRANCH   5   7
BRANCH   4  12
ATOM     12  O   UNL     1       3.610  -0.609  -0.038  0.00  0.00    -0.486 OA
BRANCH  12  13
ATOM     13  C   UNL     1       4.790   0.197  -0.046  0.00  0.00    +0.264 C 
BRANCH  13  14
ATOM     14  C   UNL     1       6.006  -0.693  -0.063  0.00  0.00    -0.010 A 
ATOM     15  C   UNL     1       6.571  -1.111   1.129  0.00  0.00    +0.008 A 
ATOM     16  C   UNL     1       7.684  -1.925   1.119  0.00  0.00    +0.019 A 
ATOM     17  C   UNL     1       8.241  -2.328  -0.096  0.00  0.00    +0.052 A 
ATOM     18  C   UNL     1       7.665  -1.903  -1.295  0.00  0.00    +0.019 A 
ATOM     19  C   UNL     1       6.549  -1.093  -1.272  0.00  0.00    +0.008 A 
BRANCH  17  20
ATOM     20  C   UNL     1       9.396  -3.173  -0.113  0.00  0.00    +0.099 C 
ATOM     21  N   UNL     1      10.313  -3.844  -0.126  0.00  0.00    -0.191 NA
ENDBRANCH  17  20
ENDBRANCH  13  14
ENDBRANCH  12  13
ENDBRANCH   4  12
TORSDOF 7
