REMARK  Name = ZINC40907137
REMARK  3 active torsions:
REMARK  status: ('A' for Active; 'I' for Inactive)
REMARK    1  A    between atoms: C_4  and  N_14
REMARK    2  A    between atoms: C_5  and  N_7
REMARK    3  A    between atoms: C_8  and  N_13
REMARK                            x       y       z     vdW  Elec       q    Type
REMARK                         _______ _______ _______ _____ _____    ______ ____
ROOT
ATOM      1  N   UNL     1       1.137  -2.024   0.564  0.00  0.00    -0.215 N 
ATOM      2  C   UNL     1       0.345  -2.952  -0.042  0.00  0.00    +0.122 A 
ATOM      3  C   UNL     1       0.632  -4.161   0.513  0.00  0.00    +0.088 A 
ATOM      4  C   UNL     1       1.625  -3.963   1.484  0.00  0.00    +0.140 A 
ATOM      5  N   UNL     1       1.930  -2.686   1.509  0.00  0.00    -0.150 NA
ATOM      6  N   UNL     1       2.197  -4.957   2.285  0.00  0.00    -0.342 N 
ATOM      7  H   UNL     1       1.911  -5.879   2.192  0.00  0.00    +0.144 HD
ATOM      8  H   UNL     1       2.881  -4.725   2.932  0.00  0.00    +0.144 HD
ENDROOT
BRANCH   1  13
ATOM      9  C   UNL     1       0.240   1.543   0.589  0.00  0.00    +0.002 A 
ATOM     10  C   UNL     1       1.199   2.060  -0.263  0.00  0.00    +0.002 A 
ATOM     11  C   UNL     1       2.137   1.225  -0.841  0.00  0.00    +0.035 A 
ATOM     12  C   UNL     1       2.119  -0.130  -0.569  0.00  0.00    +0.151 A 
ATOM     13  C   UNL     1       1.158  -0.652   0.286  0.00  0.00    +0.098 A 
ATOM     14  C   UNL     1       0.217   0.190   0.865  0.00  0.00    +0.030 A 
BRANCH  12  15
ATOM     15  N   UNL     1       3.123  -1.023  -1.189  0.00  0.00    +0.059 N 
ATOM     16  O   UNL     1       4.018  -0.557  -1.854  0.00  0.00    -0.126 OA
ATOM     17  O   UNL     1       3.048  -2.219  -1.030  0.00  0.00    -0.126 OA
ENDBRANCH  12  15
ENDBRANCH   1  13
BRANCH   2  18
ATOM     18  N   UNL     1      -0.587  -2.708  -1.046  0.00  0.00    -0.343 N 
ATOM     19  H   UNL     1      -0.664  -1.821  -1.431  0.00  0.00    +0.144 HD
ATOM     20  H   UNL     1      -1.159  -3.425  -1.361  0.00  0.00    +0.144 HD
ENDBRANCH   2  18
TORSDOF 3
