REMARK  Name = ZINC04501056
REMARK  7 active torsions:
REMARK  status: ('A' for Active; 'I' for Inactive)
REMARK    1  A    between atoms: C_1  and  C_2
REMARK    2  A    between atoms: C_7  and  N_8
REMARK    3  A    between atoms: C_12  and  S_13
REMARK    4  A    between atoms: S_13  and  C_14
REMARK    5  A    between atoms: C_14  and  C_15
REMARK    6  A    between atoms: N_17  and  C_18
REMARK    7  A    between atoms: C_24  and  C_26
REMARK                            x       y       z     vdW  Elec       q    Type
REMARK                         _______ _______ _______ _____ _____    ______ ____
ROOT
ATOM      1  S   UNL     1      -3.856   0.249  -3.285  0.00  0.00    -0.076 S 
ENDROOT
BRANCH   1   6
ATOM      2  N   UNL     1      -5.580   0.631  -5.458  0.00  0.00    -0.277 N 
ATOM      3  C   UNL     1      -5.725   1.566  -6.449  0.00  0.00    +0.230 A 
ATOM      4  N   UNL     1      -4.793   2.460  -6.277  0.00  0.00    -0.137 NA
ATOM      5  N   UNL     1      -4.077   2.162  -5.253  0.00  0.00    -0.122 NA
ATOM      6  C   UNL     1      -4.516   1.051  -4.708  0.00  0.00    +0.196 A 
BRANCH   2  13
ATOM      7  C   UNL     1      -7.141   0.470  -3.084  0.00  0.00    +0.046 C 
ATOM      8  C   UNL     1      -7.137  -0.634  -4.110  0.00  0.00    -0.027 A 
ATOM      9  C   UNL     1      -7.909  -1.763  -3.914  0.00  0.00    +0.005 A 
ATOM     10  C   UNL     1      -7.902  -2.778  -4.852  0.00  0.00    +0.000 A 
ATOM     11  C   UNL     1      -7.126  -2.665  -5.992  0.00  0.00    +0.002 A 
ATOM     12  C   UNL     1      -6.356  -1.537  -6.195  0.00  0.00    +0.026 A 
ATOM     13  C   UNL     1      -6.361  -0.516  -5.255  0.00  0.00    +0.053 A 
ENDBRANCH   2  13
ENDBRANCH   1   6
BRANCH   1  14
ATOM     14  C   UNL     1      -2.502   1.382  -2.885  0.00  0.00    +0.173 C 
BRANCH  14  15
ATOM     15  C   UNL     1      -1.773   0.883  -1.664  0.00  0.00    +0.224 C 
ATOM     16  O   UNL     1      -2.134  -0.139  -1.118  0.00  0.00    -0.275 OA
ATOM     17  N   UNL     1      -0.721   1.571  -1.179  0.00  0.00    -0.312 N 
ATOM     18  H   UNL     1      -0.433   2.388  -1.615  0.00  0.00    +0.149 HD
BRANCH  17  19
ATOM     19  C   UNL     1      -0.013   1.086   0.008  0.00  0.00    +0.076 C 
ATOM     20  C   UNL     1      -0.729   1.579   1.267  0.00  0.00    +0.022 C 
ATOM     21  C   UNL     1       0.011   1.072   2.506  0.00  0.00    +0.002 C 
ATOM     22  C   UNL     1       1.446   1.602   2.495  0.00  0.00    +0.000 C 
ATOM     23  C   UNL     1       2.163   1.109   1.237  0.00  0.00    +0.005 C 
ATOM     24  C   UNL     1       1.423   1.615  -0.003  0.00  0.00    +0.006 C 
ATOM     25  C   UNL     1       2.139   1.122  -1.262  0.00  0.00    +0.009 C 
ENDBRANCH  17  19
ENDBRANCH  14  15
ENDBRANCH   1  14
TORSDOF 5
