REMARK  Name = ZINC04813708
REMARK  4 active torsions:
REMARK  status: ('A' for Active; 'I' for Inactive)
REMARK    1  A    between atoms: C_4  and  O_19
REMARK    2  A    between atoms: C_5  and  C_7
REMARK    3  A    between atoms: C_9  and  C_12
REMARK    4  A    between atoms: C_13  and  C_14
REMARK                            x       y       z     vdW  Elec       q    Type
REMARK                         _______ _______ _______ _____ _____    ______ ____
ROOT
ATOM      1  C   UNL     1       2.422   3.933   0.001  0.00  0.00    +0.262 A 
ATOM      2  N   UNL     1       3.641   3.426  -0.008  0.00  0.00    -0.188 NA
ATOM      3  C   UNL     1       4.475   4.491  -0.015  0.00  0.00    +0.195 A 
ATOM      4  N   UNL     1       3.728   5.571  -0.002  0.00  0.00    -0.056 NA
ATOM      5  O   UNL     1       2.554   5.269   0.007  0.00  0.00    -0.332 OA
ENDROOT
BRANCH   1  10
ATOM      6  C   UNL     1      -0.013   1.076   0.008  0.00  0.00    +0.001 A 
ATOM      7  C   UNL     1      -1.223   1.749   0.017  0.00  0.00    +0.004 A 
ATOM      8  C   UNL     1      -1.254   3.130   0.031  0.00  0.00    +0.046 A 
ATOM      9  C   UNL     1      -0.070   3.852   0.023  0.00  0.00    +0.129 A 
ATOM     10  C   UNL     1       1.156   3.175   0.008  0.00  0.00    +0.081 A 
ATOM     11  C   UNL     1       1.173   1.778   0.000  0.00  0.00    +0.017 A 
BRANCH   9  12
ATOM     12  O   UNL     1      -0.100   5.208   0.031  0.00  0.00    -0.506 OA
ATOM     13  H   UNL     1      -0.116   5.607  -0.850  0.00  0.00    +0.292 HD
ENDBRANCH   9  12
ENDBRANCH   1  10
BRANCH   3  14
ATOM     14  C   UNL     1       5.946   4.447  -0.028  0.00  0.00    +0.052 C 
ATOM     15  C   UNL     1       6.655   5.594  -0.029  0.00  0.00    +0.019 C 
BRANCH  15  16
ATOM     16  C   UNL     1       8.118   5.551  -0.042  0.00  0.00    +0.012 A 
ATOM     17  C   UNL     1       9.023   6.600  -0.050  0.00  0.00    +0.015 A 
ATOM     18  C   UNL     1      10.366   6.304  -0.059  0.00  0.00    +0.008 A 
ATOM     19  C   UNL     1      10.760   5.003  -0.070  0.00  0.00    +0.046 A 
ATOM     20  S   UNL     1       9.202   4.132  -0.060  0.00  0.00    -0.097 S 
ENDBRANCH  15  16
ENDBRANCH   3  14
TORSDOF 4
