REMARK  Name = ZINC02242601
REMARK  3 active torsions:
REMARK  status: ('A' for Active; 'I' for Inactive)
REMARK    1  A    between atoms: C_1  and  O_2
REMARK    2  A    between atoms: O_2  and  C_3
REMARK    3  A    between atoms: C_3  and  C_5
REMARK                            x       y       z     vdW  Elec       q    Type
REMARK                         _______ _______ _______ _____ _____    ______ ____
ROOT
ATOM      1  C   UNL     1      -0.014   1.208   0.009  0.00  0.00    +0.391 C 
ATOM      2  O   UNL     1       0.002  -0.004   0.002  0.00  0.00    -0.240 OA
ENDROOT
BRANCH   1   3
ATOM      3  C   UNL     1       1.267   1.972   0.001  0.00  0.00    +0.329 C 
ATOM      4  O   UNL     1       1.251   3.180   0.007  0.00  0.00    -0.267 OA
ATOM      5 CL   UNL     1       2.782   1.124  -0.018  0.00  0.00    -0.032 Cl
ENDBRANCH   1   3
BRANCH   1   7
ATOM      6  C   UNL     1      -2.396   1.058   0.019  0.00  0.00    +0.280 C 
ATOM      7  O   UNL     1      -1.189   1.865   0.018  0.00  0.00    -0.462 OA
ENDBRANCH   1   7
TORSDOF 2
