REMARK  Name = ZINC04236778
REMARK  14 active torsions:
REMARK  status: ('A' for Active; 'I' for Inactive)
REMARK    1  A    between atoms: C_1  and  C_2
REMARK    2  A    between atoms: C_5  and  O_30
REMARK    3  A    between atoms: C_7  and  C_27
REMARK    4  A    between atoms: C_7  and  C_28
REMARK    5  A    between atoms: C_12  and  O_26
REMARK    6  A    between atoms: C_14  and  C_16
REMARK    7  A    between atoms: C_16  and  C_17
REMARK    8  A    between atoms: N_19  and  C_20
REMARK    9  A    between atoms: C_20  and  C_21
REMARK   10  A    between atoms: C_28  and  O_29
REMARK   11  A    between atoms: O_30  and  C_31
REMARK   12  A    between atoms: N_33  and  C_34
REMARK   13  A    between atoms: C_38  and  S_40
REMARK   14  A    between atoms: S_40  and  C_41
REMARK                            x       y       z     vdW  Elec       q    Type
REMARK                         _______ _______ _______ _____ _____    ______ ____
ROOT
ATOM      1  C   UNL     1      -4.993   4.117  -4.720  0.00  0.00    +0.012 C 
ATOM      2  C   UNL     1      -4.620   5.446  -4.061  0.00  0.00    -0.023 C 
ATOM      3  C   UNL     1      -3.468   6.093  -4.832  0.00  0.00    +0.011 C 
ATOM      4  C   UNL     1      -3.900   6.345  -6.278  0.00  0.00    +0.046 C 
ATOM      5  C   UNL     1      -5.112   7.279  -6.293  0.00  0.00    +0.186 C 
ATOM      6  C   UNL     1      -6.264   6.632  -5.522  0.00  0.00    +0.031 C 
ATOM      7  C   UNL     1      -5.832   6.380  -4.076  0.00  0.00    +0.007 C 
ATOM      8  C   UNL     1      -6.984   5.734  -3.304  0.00  0.00    +0.007 C 
ATOM      9  C   UNL     1      -6.552   5.482  -1.858  0.00  0.00    +0.032 C 
ATOM     10  C   UNL     1      -5.340   4.548  -1.843  0.00  0.00    +0.119 C 
ATOM     11  C   UNL     1      -4.188   5.194  -2.615  0.00  0.00    +0.032 C 
ATOM     12  C   UNL     1      -7.476   7.566  -5.537  0.00  0.00    +0.017 C 
ENDROOT
BRANCH  10  13
ATOM     13  O   UNL     1      -5.689   3.306  -2.459  0.00  0.00    -0.391 OA
ATOM     14  H   UNL     1      -6.414   2.840  -2.022  0.00  0.00    +0.210 HD
ENDBRANCH  10  13
BRANCH  11  15
ATOM     15  C   UNL     1      -2.977   4.260  -2.600  0.00  0.00    +0.102 C 
BRANCH  15  16
ATOM     16  C   UNL     1      -2.475   4.110  -1.186  0.00  0.00    +0.214 C 
ATOM     17  O   UNL     1      -3.033   4.693  -0.280  0.00  0.00    -0.276 OA
ATOM     18  N   UNL     1      -1.408   3.328  -0.929  0.00  0.00    -0.311 N 
ATOM     19  H   UNL     1      -0.963   2.862  -1.654  0.00  0.00    +0.149 HD
BRANCH  18  20
ATOM     20  C   UNL     1      -0.921   3.182   0.445  0.00  0.00    +0.146 C 
BRANCH  20  21
ATOM     21  C   UNL     1       0.272   2.262   0.459  0.00  0.00    +0.007 A 
ATOM     22  C   UNL     1       1.586   2.566   0.324  0.00  0.00    +0.013 A 
ATOM     23  C   UNL     1       2.518   1.546   0.365  0.00  0.00    +0.008 A 
ATOM     24  C   UNL     1       2.090   0.271   0.539  0.00  0.00    +0.045 A 
ATOM     25  S   UNL     1       0.322   0.488   0.652  0.00  0.00    -0.100 S 
ENDBRANCH  20  21
ENDBRANCH  18  20
ENDBRANCH  15  16
ENDBRANCH  11  15
BRANCH   6  26
ATOM     26  C   UNL     1      -6.636   5.303  -6.181  0.00  0.00    +0.166 C 
BRANCH  26  27
ATOM     27  O   UNL     1      -7.224   5.554  -7.460  0.00  0.00    -0.394 OA
ATOM     28  H   UNL     1      -7.486   4.754  -7.936  0.00  0.00    +0.209 HD
ENDBRANCH  26  27
ENDBRANCH   6  26
BRANCH   5  29
ATOM     29  O   UNL     1      -5.522   7.518  -7.665  0.00  0.00    -0.446 OA
BRANCH  29  30
ATOM     30  C   UNL     1      -4.962   8.567  -8.296  0.00  0.00    +0.405 C 
ATOM     31  O   UNL     1      -4.153   9.264  -7.717  0.00  0.00    -0.226 OA
ATOM     32  N   UNL     1      -5.299   8.845  -9.572  0.00  0.00    -0.251 N 
ATOM     33  H   UNL     1      -5.994   8.331 -10.012  0.00  0.00    +0.158 HD
BRANCH  32  34
ATOM     34  C   UNL     1      -4.647   9.874 -10.260  0.00  0.00    +0.037 A 
ATOM     35  C   UNL     1      -4.391   9.748 -11.620  0.00  0.00    +0.023 A 
ATOM     36  C   UNL     1      -3.752  10.766 -12.302  0.00  0.00    +0.003 A 
ATOM     37  C   UNL     1      -3.354  11.906 -11.632  0.00  0.00    +0.015 A 
ATOM     38  C   UNL     1      -3.602  12.036 -10.270  0.00  0.00    +0.009 A 
ATOM     39  C   UNL     1      -4.249  11.018  -9.584  0.00  0.00    +0.038 A 
BRANCH  38  40
ATOM     40  S   UNL     1      -3.094  13.492  -9.416  0.00  0.00    -0.129 S 
ATOM     41  C   UNL     1      -2.313  14.505 -10.702  0.00  0.00    +0.090 C 
ENDBRANCH  38  40
ENDBRANCH  32  34
ENDBRANCH  29  30
ENDBRANCH   5  29
TORSDOF 11
