REMARK  Name = ZINC64981192
REMARK  3 active torsions:
REMARK  status: ('A' for Active; 'I' for Inactive)
REMARK    1  A    between atoms: C_1  and  N_2
REMARK    2  A    between atoms: N_15  and  N_16
REMARK    3  A    between atoms: C_17  and  C_18
REMARK                            x       y       z     vdW  Elec       q    Type
REMARK                         _______ _______ _______ _____ _____    ______ ____
ROOT
ATOM      1  C   UNL     1      -0.018   1.461   0.010  0.00  0.00    +0.151 C 
ATOM      2  N   UNL     1       0.002  -0.004   0.002  0.00  0.00    -0.326 N 
ATOM      3  C   UNL     1       0.007  -0.789  -1.140  0.00  0.00    +0.053 A 
ATOM      4  C   UNL     1      -0.003  -0.470  -2.494  0.00  0.00    +0.027 A 
ATOM      5  C   UNL     1       0.006  -1.474  -3.440  0.00  0.00    +0.017 A 
ATOM      6  C   UNL     1       0.025  -2.806  -3.055  0.00  0.00    +0.019 A 
ATOM      7  C   UNL     1       0.036  -3.141  -1.717  0.00  0.00    +0.027 A 
ATOM      8  C   UNL     1       0.028  -2.137  -0.752  0.00  0.00    +0.030 A 
ATOM      9  C   UNL     1       0.035  -2.145   0.721  0.00  0.00    +0.138 A 
ATOM     10  C   UNL     1       0.024  -0.794   1.125  0.00  0.00    +0.165 A 
ATOM     11  N   UNL     1       0.034  -0.524   2.427  0.00  0.00    -0.192 NA
ATOM     12  C   UNL     1       0.056  -1.526   3.296  0.00  0.00    +0.256 A 
ATOM     13  N   UNL     1       0.070  -2.791   2.891  0.00  0.00    -0.111 NA
ATOM     14  N   UNL     1       0.052  -3.099   1.640  0.00  0.00    -0.142 NA
ATOM     15  N   UNL     1       0.066  -1.247   4.652  0.00  0.00    -0.204 N 
ATOM     16 BR   UNL     1       0.037  -4.167  -4.368  0.00  0.00    -0.050 Br
ATOM     17  H   UNL     1       0.057  -0.326   4.958  0.00  0.00    +0.177 HD
ENDROOT
BRANCH  15  18
ATOM     18  N   UNL     1       0.090  -2.294   5.583  0.00  0.00    -0.187 NA
ATOM     19  C   UNL     1       0.100  -2.033   6.854  0.00  0.00    +0.142 C 
BRANCH  19  20
ATOM     20  C   UNL     1       0.124  -3.135   7.833  0.00  0.00    +0.048 A 
ATOM     21  C   UNL     1       0.144  -4.463   7.396  0.00  0.00    +0.133 A 
ATOM     22  C   UNL     1       0.168  -5.490   8.320  0.00  0.00    +0.039 A 
ATOM     23  C   UNL     1       0.171  -5.207   9.674  0.00  0.00    +0.004 A 
ATOM     24  C   UNL     1       0.152  -3.895  10.114  0.00  0.00    +0.021 A 
ATOM     25  C   UNL     1       0.135  -2.857   9.203  0.00  0.00    +0.052 A 
ATOM     26 CL   UNL     1       0.119  -1.212   9.758  0.00  0.00    -0.083 Cl
ATOM     27  F   UNL     1       0.140  -4.742   6.074  0.00  0.00    -0.205 F 
ENDBRANCH  19  20
ENDBRANCH  15  18
TORSDOF 2
