REMARK  Name = ZINC13065138
REMARK  13 active torsions:
REMARK  status: ('A' for Active; 'I' for Inactive)
REMARK    1  A    between atoms: C_1  and  C_2
REMARK    2  A    between atoms: C_2  and  C_3
REMARK    3  A    between atoms: C_3  and  C_5
REMARK    4  A    between atoms: C_3  and  N_72
REMARK    5  A    between atoms: N_9  and  C_10
REMARK    6  A    between atoms: C_10  and  C_11
REMARK    7  A    between atoms: C_11  and  C_12
REMARK    8  A    between atoms: C_18  and  C_19
REMARK    9  A    between atoms: C_18  and  N_72
REMARK   10  A    between atoms: C_26  and  C_27
REMARK   11  A    between atoms: C_26  and  N_72
REMARK   12  A    between atoms: C_32  and  C_40
REMARK   13  A    between atoms: C_33  and  C_39
REMARK                            x       y       z     vdW  Elec       q    Type
REMARK                         _______ _______ _______ _____ _____    ______ ____
ROOT
ATOM      1  N   UNL     1      -1.260   2.024  -0.958  0.00  0.00    +0.392 N 
ATOM      2  H   UNL     1      -0.696   1.326  -1.456  0.00  0.00    -0.080 HD
ENDROOT
BRANCH   1   3
ATOM      3  C   UNL     1      -2.691   1.702  -1.138  0.00  0.00    +0.003 C 
BRANCH   3   4
ATOM      4  C   UNL     1      -3.542   2.917  -0.873  0.00  0.00    +0.138 A 
ATOM      5  N   UNL     1      -3.645   3.981  -1.632  0.00  0.00    -0.115 NA
ATOM      6  N   UNL     1      -4.467   4.795  -1.066  0.00  0.00    -0.023 NA
ATOM      7  N   UNL     1      -4.891   4.279   0.035  0.00  0.00    -0.044 NA
ATOM      8  N   UNL     1      -4.348   3.119   0.186  0.00  0.00    -0.231 N 
BRANCH   8   9
ATOM      9  C   UNL     1      -4.564   2.196   1.303  0.00  0.00    +0.152 C 
BRANCH   9  10
ATOM     10  C   UNL     1      -3.662   2.592   2.474  0.00  0.00    +0.058 C 
BRANCH  10  11
ATOM     11  C   UNL     1      -3.801   1.579   3.581  0.00  0.00    -0.046 A 
ATOM     12  C   UNL     1      -4.756   1.755   4.564  0.00  0.00    +0.004 A 
ATOM     13  C   UNL     1      -4.887   0.823   5.576  0.00  0.00    +0.000 A 
ATOM     14  C   UNL     1      -4.056  -0.281   5.611  0.00  0.00    +0.000 A 
ATOM     15  C   UNL     1      -3.097  -0.455   4.630  0.00  0.00    +0.000 A 
ATOM     16  C   UNL     1      -2.970   0.475   3.615  0.00  0.00    +0.004 A 
ENDBRANCH  10  11
ENDBRANCH   9  10
ENDBRANCH   8   9
ENDBRANCH   3   4
BRANCH   3  18
ATOM     17  C   UNL     1      -2.100  -0.044  -2.824  0.00  0.00    +0.002 C 
ATOM     18  C   UNL     1      -2.910   1.230  -2.577  0.00  0.00    -0.011 C 
ENDBRANCH   3  18
ENDBRANCH   1   3
BRANCH   1  19
ATOM     19  C   UNL     1      -0.969   3.362  -1.516  0.00  0.00    -0.042 C 
BRANCH  19  20
ATOM     20  C   UNL     1      -0.992   3.275  -3.020  0.00  0.00    -0.064 A 
ATOM     21  C   UNL     1      -0.201   2.347  -3.670  0.00  0.00    +0.004 A 
ATOM     22  C   UNL     1      -0.225   2.264  -5.050  0.00  0.00    +0.038 A 
ATOM     23  C   UNL     1      -1.034   3.117  -5.780  0.00  0.00    +0.123 A 
ATOM     24  C   UNL     1      -1.822   4.050  -5.128  0.00  0.00    +0.038 A 
ATOM     25  C   UNL     1      -1.801   4.128  -3.748  0.00  0.00    +0.004 A 
ATOM     26  F   UNL     1      -1.054   3.039  -7.129  0.00  0.00    -0.205 F 
ENDBRANCH  19  20
ENDBRANCH   1  19
BRANCH   1  27
ATOM     27  C   UNL     1      -0.910   1.988   0.477  0.00  0.00    -0.036 C 
BRANCH  27  28
ATOM     28  C   UNL     1       0.591   1.945   0.609  0.00  0.00    +0.001 A 
ATOM     29  C   UNL     1       1.285   3.093   0.802  0.00  0.00    +0.017 A 
ATOM     30  C   UNL     1       2.743   3.017   0.919  0.00  0.00    -0.001 A 
ATOM     31  C   UNL     1       3.513   4.168   1.120  0.00  0.00    +0.010 A 
ATOM     32  C   UNL     1       4.871   4.063   1.226  0.00  0.00    +0.004 A 
ATOM     33  C   UNL     1       5.494   2.825   1.136  0.00  0.00    -0.046 A 
ATOM     34  C   UNL     1       4.755   1.679   0.939  0.00  0.00    -0.024 A 
ATOM     35  C   UNL     1       3.370   1.761   0.829  0.00  0.00    +0.052 A 
ATOM     36  N   UNL     1       2.606   0.630   0.632  0.00  0.00    -0.322 N 
ATOM     37  H   UNL     1       3.040  -0.235   0.569  0.00  0.00    +0.169 HD
ATOM     38  C   UNL     1       1.268   0.710   0.525  0.00  0.00    +0.251 A 
ATOM     39  O   UNL     1       0.625  -0.311   0.351  0.00  0.00    -0.268 OA
ATOM     40  C   UNL     1       5.443   0.342   0.845  0.00  0.00    +0.046 C 
ATOM     41  C   UNL     1       6.993   2.734   1.256  0.00  0.00    +0.044 C 
ENDBRANCH  27  28
ENDBRANCH   1  27
TORSDOF 10
