REMARK  Name = ZINC14663717
REMARK  10 active torsions:
REMARK  status: ('A' for Active; 'I' for Inactive)
REMARK    1  A    between atoms: C_1  and  C_2
REMARK    2  A    between atoms: C_2  and  C_3
REMARK    3  A    between atoms: C_7  and  C_26
REMARK    4  A    between atoms: C_8  and  N_9
REMARK    5  A    between atoms: C_10  and  C_12
REMARK    6  A    between atoms: C_12  and  S_13
REMARK    7  A    between atoms: S_13  and  C_14
REMARK    8  A    between atoms: C_17  and  C_23
REMARK    9  A    between atoms: C_19  and  N_20
REMARK   10  A    between atoms: C_26  and  C_27
REMARK                            x       y       z     vdW  Elec       q    Type
REMARK                         _______ _______ _______ _____ _____    ______ ____
ROOT
ATOM      1  C   UNL     1      -1.118  -4.993   1.916  0.00  0.00    +0.170 C 
ENDROOT
BRANCH   1   3
ATOM      2  N   UNL     1      -1.119  -2.542   1.583  0.00  0.00    -0.284 N 
ATOM      3  C   UNL     1      -1.691  -3.620   2.156  0.00  0.00    +0.227 C 
ATOM      4  O   UNL     1      -2.667  -3.485   2.864  0.00  0.00    -0.275 OA
ATOM      5  H   UNL     1      -0.313  -2.644   1.054  0.00  0.00    +0.155 HD
BRANCH   2  11
ATOM      6  C   UNL     1      -0.941  -0.245   2.307  0.00  0.00    -0.026 A 
ATOM      7  C   UNL     1      -1.507   1.004   2.478  0.00  0.00    +0.007 A 
ATOM      8  C   UNL     1      -2.814   1.231   2.089  0.00  0.00    +0.020 A 
ATOM      9  C   UNL     1      -3.562   0.206   1.536  0.00  0.00    +0.046 A 
ATOM     10  C   UNL     1      -3.003  -1.046   1.367  0.00  0.00    -0.008 A 
ATOM     11  C   UNL     1      -1.689  -1.275   1.753  0.00  0.00    +0.041 A 
ATOM     12 CL   UNL     1      -5.205   0.494   1.055  0.00  0.00    -0.083 Cl
BRANCH   6  14
ATOM     13  C   UNL     1       1.410  -0.315   1.520  0.00  0.00    +0.009 C 
ATOM     14  C   UNL     1       0.486  -0.490   2.727  0.00  0.00    +0.033 C 
ENDBRANCH   6  14
BRANCH  10  15
ATOM     15  C   UNL     1      -3.818  -2.162   0.766  0.00  0.00    +0.035 C 
ATOM     16  C   UNL     1      -4.717  -2.774   1.843  0.00  0.00    +0.009 C 
ENDBRANCH  10  15
ENDBRANCH   2  11
ENDBRANCH   1   3
BRANCH   1  17
ATOM     17  S   UNL     1      -2.101  -6.224   2.816  0.00  0.00    -0.114 S 
BRANCH  17  18
ATOM     18  C   UNL     1      -1.315  -7.755   2.439  0.00  0.00    +0.039 A 
ATOM     19  C   UNL     1      -0.196  -7.777   1.609  0.00  0.00    +0.018 A 
ATOM     20  C   UNL     1       0.417  -8.961   1.314  0.00  0.00    +0.014 A 
ATOM     21  C   UNL     1      -0.076 -10.157   1.844  0.00  0.00    +0.039 A 
ATOM     22  C   UNL     1      -1.199 -10.138   2.677  0.00  0.00    +0.047 A 
ATOM     23  C   UNL     1      -1.810  -8.941   2.976  0.00  0.00    +0.140 A 
BRANCH  21  24
ATOM     24  C   UNL     1       0.586 -11.435   1.525  0.00  0.00    +0.242 C 
ATOM     25  O   UNL     1       0.155 -12.475   1.987  0.00  0.00    -0.270 OA
ATOM     26  N   UNL     1       1.667 -11.452   0.721  0.00  0.00    -0.325 N 
ATOM     27  H   UNL     1       2.011 -10.623   0.353  0.00  0.00    +0.145 HD
ATOM     28  H   UNL     1       2.103 -12.293   0.511  0.00  0.00    +0.145 HD
ENDBRANCH  21  24
BRANCH  23  29
ATOM     29  N   UNL     1      -2.995  -8.915   3.862  0.00  0.00    +0.058 N 
ATOM     30  O   UNL     1      -3.428  -9.953   4.332  0.00  0.00    -0.126 OA
ATOM     31  O   UNL     1      -3.538  -7.857   4.122  0.00  0.00    -0.126 OA
ENDBRANCH  23  29
ENDBRANCH  17  18
ENDBRANCH   1  17
TORSDOF 8
