REMARK  Name = ZINC23557083
REMARK  7 active torsions:
REMARK  status: ('A' for Active; 'I' for Inactive)
REMARK    1  A    between atoms: C_1  and  C_2
REMARK    2  A    between atoms: C_7  and  C_9
REMARK    3  A    between atoms: C_7  and  C_10
REMARK    4  A    between atoms: N_13  and  C_17
REMARK    5  A    between atoms: C_17  and  C_18
REMARK    6  A    between atoms: N_20  and  N_21
REMARK    7  A    between atoms: C_27  and  C_30
REMARK                            x       y       z     vdW  Elec       q    Type
REMARK                         _______ _______ _______ _____ _____    ______ ____
ROOT
ATOM      1  C   UNL     1      -2.295  -3.328  -4.359  0.00  0.00    +0.248 C 
ATOM      2  O   UNL     1      -1.953  -2.188  -4.591  0.00  0.00    -0.273 OA
ATOM      3  N   UNL     1      -3.321  -3.876  -5.040  0.00  0.00    -0.222 N 
ATOM      4  H   UNL     1      -3.595  -4.788  -4.855  0.00  0.00    +0.174 HD
ENDROOT
BRANCH   3   5
ATOM      5  N   UNL     1      -3.993  -3.127  -6.015  0.00  0.00    -0.137 N 
ATOM      6  C   UNL     1      -5.216  -2.584  -5.845  0.00  0.00    +0.263 C 
ATOM      7  O   UNL     1      -5.916  -2.647  -4.857  0.00  0.00    -0.271 OA
ATOM      8  C   UNL     1      -5.529  -1.879  -7.145  0.00  0.00    +0.114 C 
ATOM      9  C   UNL     1      -5.716  -0.384  -6.906  0.00  0.00    +0.035 C 
ATOM     10  C   UNL     1      -6.931  -0.159  -6.003  0.00  0.00    +0.006 C 
ATOM     11  C   UNL     1      -8.177  -0.746  -6.670  0.00  0.00    -0.014 C 
ATOM     12  C   UNL     1      -7.983  -2.249  -6.884  0.00  0.00    +0.006 C 
ATOM     13  C   UNL     1      -6.772  -2.482  -7.790  0.00  0.00    +0.035 C 
ATOM     14  C   UNL     1      -9.394  -0.512  -5.773  0.00  0.00    +0.007 C 
ATOM     15  N   UNL     1      -4.345  -2.123  -7.978  0.00  0.00    -0.284 N 
ATOM     16  C   UNL     1      -3.499  -2.858  -7.230  0.00  0.00    +0.326 C 
ATOM     17  O   UNL     1      -2.410  -3.236  -7.616  0.00  0.00    -0.251 OA
ATOM     18  H   UNL     1      -4.199  -1.814  -8.885  0.00  0.00    +0.151 HD
ENDBRANCH   3   5
BRANCH   1  19
ATOM     19  C   UNL     1      -1.572  -4.133  -3.310  0.00  0.00    +0.215 C 
BRANCH  19  31
ATOM     20  C   UNL     1      -0.019   1.528   0.010  0.00  0.00    +0.007 C 
ATOM     21  C   UNL     1       0.002  -0.004   0.002  0.00  0.00    -0.011 C 
ATOM     22  C   UNL     1       0.727  -0.492  -1.254  0.00  0.00    +0.038 C 
ATOM     23  C   UNL     1       0.711  -2.014  -1.298  0.00  0.00    +0.113 C 
ATOM     24  C   UNL     1       1.263  -2.646  -0.036  0.00  0.00    +0.041 C 
ATOM     25  C   UNL     1       0.787  -2.030   1.268  0.00  0.00    -0.032 C 
ATOM     26  C   UNL     1       0.763  -0.507   1.227  0.00  0.00    +0.009 C 
ATOM     27  C   UNL     1       1.769  -2.455   2.382  0.00  0.00    +0.011 C 
ATOM     28  C   UNL     1      -0.596  -2.567   1.648  0.00  0.00    +0.011 C 
ATOM     29  C   UNL     1      -0.666  -2.529  -1.638  0.00  0.00    +0.247 C 
ATOM     30  O   UNL     1      -1.717  -2.280  -1.086  0.00  0.00    -0.273 OA
ATOM     31  N   UNL     1      -0.505  -3.321  -2.720  0.00  0.00    -0.215 N 
ATOM     32  C   UNL     1       0.748  -3.270  -3.183  0.00  0.00    +0.310 C 
ATOM     33  O   UNL     1       1.136  -3.886  -4.157  0.00  0.00    -0.252 OA
ATOM     34  N   UNL     1       1.531  -2.463  -2.446  0.00  0.00    -0.285 N 
ATOM     35  H   UNL     1       2.451  -2.215  -2.619  0.00  0.00    +0.151 HD
ENDBRANCH  19  31
ENDBRANCH   1  19
TORSDOF 3
