REMARK  Name = ZINC40399554
REMARK  5 active torsions:
REMARK  status: ('A' for Active; 'I' for Inactive)
REMARK    1  A    between atoms: C_1  and  C_2
REMARK    2  A    between atoms: C_5  and  N_34
REMARK    3  A    between atoms: C_7  and  N_8
REMARK    4  A    between atoms: C_9  and  C_11
REMARK    5  A    between atoms: N_25  and  C_26
REMARK                            x       y       z     vdW  Elec       q    Type
REMARK                         _______ _______ _______ _____ _____    ______ ____
ROOT
ATOM      1  C   UNL     1      -0.057   0.211   4.792  0.00  0.00    +0.122 C 
ATOM      2  C   UNL     1      -1.375   0.987   4.812  0.00  0.00    +0.114 C 
ATOM      3  C   UNL     1      -1.598   1.571   6.182  0.00  0.00    +0.219 C 
ATOM      4  O   UNL     1      -2.102   2.669   6.292  0.00  0.00    -0.275 OA
ATOM      5  N   UNL     1      -1.244   0.889   7.285  0.00  0.00    -0.270 N 
ATOM      6  C   UNL     1      -0.572  -0.317   7.190  0.00  0.00    +0.138 A 
ATOM      7  C   UNL     1       0.012  -0.694   5.993  0.00  0.00    +0.069 A 
ATOM      8  C   UNL     1       0.667  -1.927   5.914  0.00  0.00    +0.258 A 
ATOM      9  O   UNL     1       1.181  -2.293   4.870  0.00  0.00    -0.267 OA
ATOM     10  N   UNL     1       0.719  -2.704   7.018  0.00  0.00    -0.295 N 
ATOM     11  H   UNL     1       1.156  -3.569   6.981  0.00  0.00    +0.172 HD
ATOM     12  C   UNL     1       0.160  -2.273   8.181  0.00  0.00    +0.202 A 
ATOM     13  N   UNL     1      -0.461  -1.114   8.258  0.00  0.00    -0.200 NA
ATOM     14  N   UNL     1       0.244  -3.063   9.298  0.00  0.00    -0.284 N 
ATOM     15  H   UNL     1      -1.462   1.248   8.159  0.00  0.00    +0.156 HD
ATOM     16  H   UNL     1       0.620  -3.955   9.234  0.00  0.00    +0.155 HD
ENDROOT
BRANCH  14  17
ATOM     17  C   UNL     1      -0.212  -2.582  10.531  0.00  0.00    +0.052 A 
ATOM     18  C   UNL     1      -0.259  -1.215  10.771  0.00  0.00    +0.026 A 
ATOM     19  C   UNL     1      -0.710  -0.744  11.988  0.00  0.00    +0.022 A 
ATOM     20  C   UNL     1      -1.115  -1.632  12.969  0.00  0.00    +0.042 A 
ATOM     21  C   UNL     1      -1.069  -2.995  12.734  0.00  0.00    +0.041 A 
ATOM     22  C   UNL     1      -0.624  -3.472  11.516  0.00  0.00    +0.064 A 
ATOM     23 CL   UNL     1      -0.574  -5.182  11.218  0.00  0.00    -0.082 Cl
ATOM     24 CL   UNL     1      -1.681  -1.035  14.498  0.00  0.00    -0.083 Cl
ENDBRANCH  14  17
BRANCH   1  26
ATOM     25  N   UNL     1       1.075  -0.489   2.707  0.00  0.00    -0.285 N 
ATOM     26  C   UNL     1       0.019  -0.617   3.535  0.00  0.00    +0.225 C 
ATOM     27  O   UNL     1      -0.870  -1.399   3.269  0.00  0.00    -0.275 OA
ATOM     28  H   UNL     1       1.817   0.085   2.953  0.00  0.00    +0.155 HD
BRANCH  25  35
ATOM     29  C   UNL     1       2.290   0.770   0.463  0.00  0.00    +0.045 C 
ATOM     30  C   UNL     1       1.682  -0.606   0.372  0.00  0.00    -0.029 A 
ATOM     31  C   UNL     1       1.710  -1.297  -0.824  0.00  0.00    +0.007 A 
ATOM     32  C   UNL     1       1.153  -2.560  -0.907  0.00  0.00    +0.033 A 
ATOM     33  C   UNL     1       0.567  -3.135   0.205  0.00  0.00    +0.128 A 
ATOM     34  C   UNL     1       0.536  -2.450   1.404  0.00  0.00    +0.056 A 
ATOM     35  C   UNL     1       1.099  -1.184   1.492  0.00  0.00    +0.038 A 
BRANCH  33  36
ATOM     36  N   UNL     1      -0.029  -4.487   0.111  0.00  0.00    +0.056 N 
ATOM     37  O   UNL     1      -0.003  -5.087  -0.938  0.00  0.00    -0.126 OA
ATOM     38  O   UNL     1      -0.542  -4.991   1.083  0.00  0.00    -0.126 OA
ENDBRANCH  33  36
ENDBRANCH  25  35
ENDBRANCH   1  26
TORSDOF 4
