REMARK  Name = ZINC20803958
REMARK  6 active torsions:
REMARK  status: ('A' for Active; 'I' for Inactive)
REMARK    1  A    between atoms: C_1  and  C_2
REMARK    2  A    between atoms: C_5  and  N_9
REMARK    3  A    between atoms: C_6  and  C_8
REMARK    4  A    between atoms: C_10  and  C_12
REMARK    5  A    between atoms: C_14  and  C_31
REMARK    6  A    between atoms: C_22  and  C_24
REMARK                            x       y       z     vdW  Elec       q    Type
REMARK                         _______ _______ _______ _____ _____    ______ ____
ROOT
ATOM      1  C   UNL     1      -1.291  -1.747   1.163  0.00  0.00    +0.124 C 
ATOM      2  C   UNL     1      -2.471  -2.717   1.030  0.00  0.00    +0.084 C 
ATOM      3  N   UNL     1      -2.293  -3.510  -0.202  0.00  0.00    -0.310 N 
ATOM      4  C   UNL     1      -1.885  -2.809  -1.329  0.00  0.00    +0.214 A 
ATOM      5  N   UNL     1      -1.864  -3.182  -2.580  0.00  0.00    -0.202 NA
ATOM      6  C   UNL     1      -1.395  -2.183  -3.336  0.00  0.00    +0.247 A 
ATOM      7  N   UNL     1      -1.110  -1.161  -2.569  0.00  0.00    -0.156 NA
ATOM      8  N   UNL     1      -1.419  -1.537  -1.263  0.00  0.00    -0.225 N 
ATOM      9  C   UNL     1      -1.285  -0.774  -0.022  0.00  0.00    +0.154 C 
ATOM     10  C   UNL     1      -2.507  -3.651   2.242  0.00  0.00    +0.028 C 
ATOM     11  H   UNL     1      -2.483  -4.593  -0.191  0.00  0.00    +0.149 HD
ENDROOT
BRANCH   9  12
ATOM     12  C   UNL     1       0.011  -0.006  -0.038  0.00  0.00    -0.022 A 
ATOM     13  C   UNL     1       1.128  -0.549  -0.646  0.00  0.00    +0.008 A 
ATOM     14  C   UNL     1       2.318   0.154  -0.662  0.00  0.00    +0.038 A 
ATOM     15  C   UNL     1       2.390   1.404  -0.069  0.00  0.00    +0.123 A 
ATOM     16  C   UNL     1       1.271   1.947   0.539  0.00  0.00    +0.038 A 
ATOM     17  C   UNL     1       0.083   1.241   0.554  0.00  0.00    +0.008 A 
ATOM     18  F   UNL     1       3.553   2.092  -0.084  0.00  0.00    -0.205 F 
ENDBRANCH   9  12
BRANCH   1  20
ATOM     19  N   UNL     1       1.028  -2.110   1.942  0.00  0.00    -0.285 N 
ATOM     20  C   UNL     1      -0.002  -2.526   1.178  0.00  0.00    +0.224 C 
ATOM     21  O   UNL     1       0.110  -3.528   0.504  0.00  0.00    -0.275 OA
ATOM     22  H   UNL     1       0.898  -1.255   2.622  0.00  0.00    +0.155 HD
BRANCH  19  27
ATOM     23  C   UNL     1       6.034  -4.763   1.646  0.00  0.00    +0.044 C 
ATOM     24  C   UNL     1       4.704  -4.059   1.725  0.00  0.00    -0.050 A 
ATOM     25  C   UNL     1       3.836  -4.100   0.648  0.00  0.00    +0.005 A 
ATOM     26  C   UNL     1       2.615  -3.460   0.720  0.00  0.00    +0.024 A 
ATOM     27  C   UNL     1       2.263  -2.765   1.869  0.00  0.00    +0.036 A 
ATOM     28  C   UNL     1       3.136  -2.725   2.948  0.00  0.00    -0.029 A 
ATOM     29  C   UNL     1       4.354  -3.373   2.873  0.00  0.00    +0.008 A 
ATOM     30  C   UNL     1       2.755  -1.977   4.199  0.00  0.00    +0.045 C 
ENDBRANCH  19  27
ENDBRANCH   1  20
TORSDOF 3
