REMARK  Name = ZINC39249110
REMARK  1 active torsions:
REMARK  status: ('A' for Active; 'I' for Inactive)
REMARK    1  A    between atoms: C_9  and  C_13
REMARK                            x       y       z     vdW  Elec       q    Type
REMARK                         _______ _______ _______ _____ _____    ______ ____
ROOT
ATOM      1  C   UNK     1      -0.018   1.451   0.010  0.00  0.00    -0.000 C 
ATOM      2  C   UNK     1       1.395   2.066  -0.000  0.00  0.00    -0.000 C 
ATOM      3  C   UNK     1       1.937   2.037   1.404  0.00  0.00    -0.001 C 
ATOM      4  C   UNK     1       2.792   0.783   1.671  0.00  0.00    -0.002 C 
ATOM      5  C   UNK     1       2.180  -0.493   1.067  0.00  0.00    -0.019 C 
ATOM      6  C   UNK     1       0.693  -0.589   1.256  0.00  0.00    -0.002 C 
ATOM      7  C   UNK     1       0.002  -0.004   0.002  0.00  0.00    -0.001 C 
ATOM      8  N   UNK     1       2.554  -0.590  -0.363  0.00  0.00    +0.398 N 
ATOM      9  C   UNK     1       3.862  -1.248  -0.547  0.00  0.00    +0.055 C 
ATOM     10  C   UNK     1       3.887  -2.557   0.299  0.00  0.00    +0.063 C 
ATOM     11  S   UNK     1       3.014  -1.952   1.809  0.00  0.00    -0.174 S 
ATOM     12  H   UNK     1       1.848  -1.120  -0.851  0.00  0.00    -0.083 HD
ATOM     13  H   UNK     1       2.596   0.338  -0.755  0.00  0.00    -0.083 HD
ENDROOT
BRANCH   9  14
ATOM     14  C   UNK     1       4.059  -1.585  -2.003  0.00  0.00    +0.343 C 
ATOM     15  O   UNK     1       5.147  -1.968  -2.398  0.00  0.00    -0.248 OA
ATOM     16  O   UNK     1       3.130  -1.476  -2.785  0.00  0.00    -0.248 OA
ENDBRANCH   9  14
TORSDOF 1
