REMARK  Name = ZINC67252046
REMARK  6 active torsions:
REMARK  status: ('A' for Active; 'I' for Inactive)
REMARK    1  A    between atoms: C_1  and  C_2
REMARK    2  A    between atoms: C_6  and  C_25
REMARK    3  A    between atoms: C_7  and  N_8
REMARK    4  A    between atoms: C_15  and  C_18
REMARK    5  A    between atoms: C_25  and  C_26
REMARK    6  A    between atoms: C_25  and  C_27
REMARK                            x       y       z     vdW  Elec       q    Type
REMARK                         _______ _______ _______ _____ _____    ______ ____
ROOT
ATOM      1  N   UNL     1       0.208   0.081   2.353  0.00  0.00    -0.269 N 
ATOM      2  C   UNL     1      -0.217   1.359   2.386  0.00  0.00    +0.307 C 
ATOM      3  O   UNL     1      -0.763   1.843   1.413  0.00  0.00    -0.252 OA
ATOM      4  N   UNL     1      -0.037   2.101   3.497  0.00  0.00    -0.280 N 
ATOM      5  C   UNL     1       0.522   1.507   4.721  0.00  0.00    +0.137 C 
ATOM      6  C   UNL     1      -0.396   1.865   5.895  0.00  0.00    +0.179 C 
ATOM      7  O   UNL     1      -0.607   3.279   5.914  0.00  0.00    -0.369 OA
ATOM      8  C   UNL     1      -1.267   3.788   4.753  0.00  0.00    +0.168 C 
ATOM      9  C   UNL     1      -0.388   3.530   3.519  0.00  0.00    +0.145 C 
ATOM     10  H   UNL     1       0.594  -0.323   3.146  0.00  0.00    +0.156 HD
ENDROOT
BRANCH   1  17
ATOM     11  C   UNL     1      -2.401  -0.607   1.449  0.00  0.00    +0.045 C 
ATOM     12  C   UNL     1      -1.163  -1.022   0.698  0.00  0.00    -0.029 A 
ATOM     13  C   UNL     1      -1.274  -1.754  -0.469  0.00  0.00    +0.005 A 
ATOM     14  C   UNL     1      -0.138  -2.135  -1.159  0.00  0.00    +0.001 A 
ATOM     15  C   UNL     1       1.113  -1.786  -0.683  0.00  0.00    +0.006 A 
ATOM     16  C   UNL     1       1.231  -1.055   0.482  0.00  0.00    -0.023 A 
ATOM     17  C   UNL     1       0.091  -0.665   1.174  0.00  0.00    +0.041 A 
BRANCH  16  18
ATOM     18  C   UNL     1       2.595  -0.676   1.000  0.00  0.00    +0.015 C 
ATOM     19  C   UNL     1       3.406  -1.944   1.275  0.00  0.00    +0.012 C 
ATOM     20  C   UNL     1       3.318   0.176  -0.045  0.00  0.00    +0.012 C 
ENDBRANCH  16  18
ENDBRANCH   1  17
BRANCH   8  21
ATOM     21  C   UNL     1      -1.490   5.270   4.910  0.00  0.00    +0.018 A 
ATOM     22  C   UNL     1      -0.665   6.010   5.736  0.00  0.00    +0.009 A 
ATOM     23  C   UNL     1      -0.870   7.369   5.880  0.00  0.00    +0.001 A 
ATOM     24  C   UNL     1      -1.899   7.991   5.198  0.00  0.00    +0.003 A 
ATOM     25  C   UNL     1      -2.724   7.254   4.371  0.00  0.00    +0.039 A 
ATOM     26  C   UNL     1      -2.517   5.893   4.221  0.00  0.00    +0.129 A 
ATOM     27  F   UNL     1      -3.321   5.172   3.409  0.00  0.00    -0.205 F 
ENDBRANCH   8  21
TORSDOF 3
