REMARK  Name = ZINC01585087
REMARK  6 active torsions:
REMARK  status: ('A' for Active; 'I' for Inactive)
REMARK    1  A    between atoms: C_4  and  C_7
REMARK    2  A    between atoms: C_8  and  C_23
REMARK    3  A    between atoms: N_11  and  C_20
REMARK    4  A    between atoms: C_13  and  C_14
REMARK    5  A    between atoms: C_20  and  C_21
REMARK    6  A    between atoms: C_21  and  O_22
REMARK                            x       y       z     vdW  Elec       q    Type
REMARK                         _______ _______ _______ _____ _____    ______ ____
ROOT
ATOM      1  C   UNL     1       0.073   1.479  -0.043  0.00  0.00    +0.032 A 
ATOM      2  C   UNL     1       1.199   2.304  -0.198  0.00  0.00    +0.127 A 
ATOM      3  C   UNL     1       0.995   3.710  -0.122  0.00  0.00    +0.285 A 
ATOM      4  O   UNL     1       1.934   4.476  -0.249  0.00  0.00    -0.265 OA
ATOM      5  N   UNL     1      -0.246   4.186   0.091  0.00  0.00    -0.226 N 
ATOM      6  N   UNL     1      -1.262   3.417   0.230  0.00  0.00    -0.167 NA
ATOM      7  C   UNL     1      -1.183   2.110   0.171  0.00  0.00    +0.100 A 
ENDROOT
BRANCH   1  11
ATOM      8  C   UNL     1       0.406  -2.751  -0.229  0.00  0.00    +0.000 A 
ATOM      9  C   UNL     1       0.988  -2.060   0.819  0.00  0.00    +0.001 A 
ATOM     10  C   UNL     1       0.884  -0.686   0.885  0.00  0.00    +0.008 A 
ATOM     11  C   UNL     1       0.189   0.007  -0.108  0.00  0.00    -0.014 A 
ATOM     12  C   UNL     1      -0.401  -0.697  -1.159  0.00  0.00    +0.008 A 
ATOM     13  C   UNL     1      -0.284  -2.071  -1.217  0.00  0.00    +0.001 A 
ENDBRANCH   1  11
BRANCH   7  14
ATOM     14  C   UNL     1      -2.405   1.287   0.336  0.00  0.00    +0.003 A 
ATOM     15  C   UNL     1      -3.616   1.716  -0.206  0.00  0.00    +0.010 A 
ATOM     16  C   UNL     1      -4.749   0.943  -0.055  0.00  0.00    +0.001 A 
ATOM     17  C   UNL     1      -4.687  -0.251   0.642  0.00  0.00    +0.000 A 
ATOM     18  C   UNL     1      -3.490  -0.679   1.187  0.00  0.00    +0.001 A 
ATOM     19  C   UNL     1      -2.349   0.083   1.037  0.00  0.00    +0.010 A 
ENDBRANCH   7  14
BRANCH   2  20
ATOM     20  C   UNL     1       2.501   1.752  -0.423  0.00  0.00    +0.105 C 
ATOM     21  N   UNL     1       3.534   1.315  -0.602  0.00  0.00    -0.191 NA
ENDBRANCH   2  20
BRANCH   5  22
ATOM     22  C   UNL     1      -0.442   5.636   0.168  0.00  0.00    +0.175 C 
BRANCH  22  23
ATOM     23  C   UNL     1      -0.738   6.185  -1.230  0.00  0.00    +0.179 C 
BRANCH  23  24
ATOM     24  O   UNL     1      -1.982   5.659  -1.694  0.00  0.00    -0.393 OA
ATOM     25  H   UNL     1      -2.234   5.965  -2.576  0.00  0.00    +0.209 HD
ENDBRANCH  23  24
ENDBRANCH  22  23
ENDBRANCH   5  22
TORSDOF 6
