REMARK  Name = ZINC02782526
REMARK  7 active torsions:
REMARK  status: ('A' for Active; 'I' for Inactive)
REMARK    1  A    between atoms: C_1  and  C_2
REMARK    2  A    between atoms: C_3  and  N_24
REMARK    3  A    between atoms: C_4  and  C_8
REMARK    4  A    between atoms: N_5  and  C_7
REMARK    5  A    between atoms: N_10  and  C_11
REMARK    6  A    between atoms: C_12  and  C_22
REMARK    7  A    between atoms: C_17  and  C_21
REMARK                            x       y       z     vdW  Elec       q    Type
REMARK                         _______ _______ _______ _____ _____    ______ ____
ROOT
ATOM      1  C   UNL     1       2.798  -2.412  -0.039  0.00  0.00    +0.269 C 
ATOM      2  O   UNL     1       3.705  -1.607  -0.134  0.00  0.00    -0.268 OA
ATOM      3  N   UNL     1       1.519  -1.988  -0.026  0.00  0.00    -0.274 N 
ATOM      4  H   UNL     1       0.794  -2.632  -0.025  0.00  0.00    +0.156 HD
ENDROOT
BRANCH   3   5
ATOM      5  C   UNL     1       1.239  -0.630  -0.013  0.00  0.00    +0.090 A 
ATOM      6  C   UNL     1       0.000  -0.005   0.002  0.00  0.00    +0.084 A 
ATOM      7  C   UNL     1      -0.020   1.447   0.012  0.00  0.00    -0.018 A 
ATOM      8  C   UNL     1       1.195   2.039   0.007  0.00  0.00    -0.004 A 
ATOM      9  S   UNL     1       2.351   0.699  -0.012  0.00  0.00    -0.077 S 
ATOM     10  C   UNL     1       1.483   3.509   0.018  0.00  0.00    +0.046 C 
ATOM     11  C   UNL     1       0.198   4.251   0.411  0.00  0.00    -0.009 C 
ATOM     12  C   UNL     1      -0.964   3.701  -0.421  0.00  0.00    +0.008 C 
ATOM     13  C   UNL     1      -1.298   2.277   0.022  0.00  0.00    +0.037 C 
ATOM     14  C   UNL     1       0.365   5.747   0.139  0.00  0.00    +0.008 C 
BRANCH   6  15
ATOM     15  C   UNL     1      -1.214  -0.765   0.005  0.00  0.00    +0.102 C 
ATOM     16  N   UNL     1      -2.177  -1.367   0.009  0.00  0.00    -0.191 NA
ENDBRANCH   6  15
ENDBRANCH   3   5
BRANCH   1  20
ATOM     17  C   UNL     1       3.977  -7.230  -1.096  0.00  0.00    +0.070 C 
ATOM     18  C   UNL     1       3.611  -5.954  -0.383  0.00  0.00    +0.091 A 
ATOM     19  C   UNL     1       3.409  -4.707  -0.980  0.00  0.00    +0.179 A 
ATOM     20  C   UNL     1       3.098  -3.849   0.061  0.00  0.00    +0.154 A 
ATOM     21  N   UNL     1       3.120  -4.604   1.199  0.00  0.00    -0.260 N 
ATOM     22  N   UNL     1       3.420  -5.818   0.905  0.00  0.00    -0.174 NA
ATOM     23  C   UNL     1       2.843  -4.106   2.548  0.00  0.00    +0.173 C 
BRANCH  19  24
ATOM     24  N   UNL     1       3.509  -4.374  -2.418  0.00  0.00    +0.061 N 
ATOM     25  O   UNL     1       4.574  -4.015  -2.888  0.00  0.00    -0.126 OA
ATOM     26  O   UNL     1       2.526  -4.459  -3.133  0.00  0.00    -0.126 OA
ENDBRANCH  19  24
ENDBRANCH   1  20
TORSDOF 4
