REMARK  Name = ZINC41016816
REMARK  6 active torsions:
REMARK  status: ('A' for Active; 'I' for Inactive)
REMARK    1  A    between atoms: C_1  and  C_2
REMARK    2  A    between atoms: N_6  and  C_26
REMARK    3  A    between atoms: C_9  and  N_14
REMARK    4  A    between atoms: C_15  and  C_17
REMARK    5  A    between atoms: C_22  and  N_23
REMARK    6  A    between atoms: C_26  and  C_27
REMARK                            x       y       z     vdW  Elec       q    Type
REMARK                         _______ _______ _______ _____ _____    ______ ____
ROOT
ATOM      1  C   UNL     1       0.237   1.590   0.201  0.00  0.00    +0.062 C 
ATOM      2  C   UNL     1       0.224   0.060   0.162  0.00  0.00    +0.256 C 
ATOM      3  C   UNL     1      -1.202  -0.429   0.152  0.00  0.00    +0.261 C 
ATOM      4  O   UNL     1      -2.078   0.257  -0.330  0.00  0.00    -0.271 OA
ATOM      5  N   UNL     1      -1.499  -1.635   0.684  0.00  0.00    -0.261 N 
ATOM      6  C   UNL     1      -0.474  -2.393   1.267  0.00  0.00    +0.080 A 
ATOM      7  C   UNL     1      -0.654  -3.740   1.530  0.00  0.00    +0.050 A 
ATOM      8  C   UNL     1       0.374  -4.473   2.109  0.00  0.00    +0.036 A 
ATOM      9  C   UNL     1       1.578  -3.854   2.422  0.00  0.00    +0.027 A 
ATOM     10  C   UNL     1       1.757  -2.509   2.159  0.00  0.00    +0.049 A 
ATOM     11  C   UNL     1       0.736  -1.776   1.581  0.00  0.00    +0.143 A 
ATOM     12  O   UNL     1       0.900  -0.451   1.314  0.00  0.00    -0.478 OA
ENDROOT
BRANCH   8  13
ATOM     13  N   UNL     1       0.197  -5.836   2.377  0.00  0.00    -0.281 N 
ATOM     14  C   UNL     1       1.233  -6.688   2.248  0.00  0.00    +0.250 C 
ATOM     15  O   UNL     1       2.339  -6.264   1.974  0.00  0.00    -0.270 OA
ATOM     16  H   UNL     1      -0.671  -6.166   2.656  0.00  0.00    +0.155 HD
BRANCH  14  17
ATOM     17  C   UNL     1       1.025  -8.139   2.440  0.00  0.00    +0.067 A 
ATOM     18  C   UNL     1       0.459  -8.615   3.624  0.00  0.00    +0.015 A 
ATOM     19  C   UNL     1       0.267  -9.970   3.797  0.00  0.00    +0.001 A 
ATOM     20  C   UNL     1       0.634 -10.857   2.800  0.00  0.00    +0.002 A 
ATOM     21  C   UNL     1       1.196 -10.391   1.624  0.00  0.00    +0.033 A 
ATOM     22  C   UNL     1       1.388  -9.038   1.437  0.00  0.00    +0.138 A 
BRANCH  22  23
ATOM     23  N   UNL     1       1.983  -8.541   0.175  0.00  0.00    +0.057 N 
ATOM     24  O   UNL     1       2.405  -9.324  -0.643  0.00  0.00    -0.126 OA
ATOM     25  O   UNL     1       2.048  -7.352  -0.035  0.00  0.00    -0.126 OA
ENDBRANCH  22  23
ENDBRANCH  14  17
ENDBRANCH   8  13
BRANCH   5  26
ATOM     26  C   UNL     1      -2.873  -2.143   0.650  0.00  0.00    +0.140 C 
BRANCH  26  27
ATOM     27  C   UNL     1      -3.085  -2.934  -0.615  0.00  0.00    -0.015 C 
ATOM     28  C   UNL     1      -3.517  -4.169  -0.551  0.00  0.00    +0.005 C 
ENDBRANCH  26  27
ENDBRANCH   5  26
TORSDOF 5
