REMARK  Name = ZINC13985669
REMARK  8 active torsions:
REMARK  status: ('A' for Active; 'I' for Inactive)
REMARK    1  A    between atoms: C_1  and  C_2
REMARK    2  A    between atoms: C_3  and  C_23
REMARK    3  A    between atoms: C_4  and  C_22
REMARK    4  A    between atoms: C_5  and  S_10
REMARK    5  A    between atoms: C_6  and  C_9
REMARK    6  A    between atoms: C_7  and  C_8
REMARK    7  A    between atoms: S_10  and  N_13
REMARK    8  A    between atoms: C_17  and  C_19
REMARK                            x       y       z     vdW  Elec       q    Type
REMARK                         _______ _______ _______ _____ _____    ______ ____
ROOT
ATOM      1  S   UNL     1       1.710   1.861  -0.295  0.00  0.00    +0.062 S 
ATOM      2  O   UNL     1       2.723   2.830  -0.063  0.00  0.00    -0.153 OA
ATOM      3  O   UNL     1       1.365   0.874   0.668  0.00  0.00    -0.153 OA
ENDROOT
BRANCH   1   8
ATOM      4  C   UNL     1      -3.347   4.915  -1.520  0.00  0.00    +0.044 C 
ATOM      5  C   UNL     1      -2.084   4.152  -1.214  0.00  0.00    -0.044 A 
ATOM      6  C   UNL     1      -0.858   4.786  -1.290  0.00  0.00    -0.043 A 
ATOM      7  C   UNL     1       0.300   4.087  -1.010  0.00  0.00    -0.021 A 
ATOM      8  C   UNL     1       0.233   2.753  -0.652  0.00  0.00    +0.112 A 
ATOM      9  C   UNL     1      -0.993   2.118  -0.580  0.00  0.00    -0.021 A 
ATOM     10  C   UNL     1      -2.152   2.819  -0.856  0.00  0.00    -0.043 A 
ATOM     11  C   UNL     1      -3.488   2.128  -0.771  0.00  0.00    +0.044 C 
ATOM     12  C   UNL     1      -1.065   0.662  -0.197  0.00  0.00    +0.046 C 
ATOM     13  C   UNL     1       1.637   4.777  -1.094  0.00  0.00    +0.046 C 
ATOM     14  C   UNL     1      -0.785   6.240  -1.681  0.00  0.00    +0.044 C 
ENDBRANCH   1   8
BRANCH   1  15
ATOM     15  N   UNL     1       2.138   1.049  -1.673  0.00  0.00    -0.165 NA
ATOM     16  C   UNL     1       1.676  -0.298  -2.056  0.00  0.00    +0.110 C 
ATOM     17  C   UNL     1       1.815  -0.339  -3.600  0.00  0.00    +0.019 C 
ATOM     18  C   UNL     1       3.123   0.468  -3.813  0.00  0.00    +0.031 C 
ATOM     19  C   UNL     1       3.045   1.550  -2.716  0.00  0.00    +0.165 C 
BRANCH  19  20
ATOM     20  C   UNL     1       2.505   2.833  -3.293  0.00  0.00    +0.229 C 
ATOM     21  O   UNL     1       1.315   3.063  -3.250  0.00  0.00    -0.274 OA
ATOM     22  N   UNL     1       3.344   3.724  -3.858  0.00  0.00    -0.328 N 
ATOM     23  H   UNL     1       4.295   3.539  -3.892  0.00  0.00    +0.145 HD
ATOM     24  H   UNL     1       2.996   4.549  -4.229  0.00  0.00    +0.145 HD
ENDBRANCH  19  20
ENDBRANCH   1  15
TORSDOF 3
