REMARK  Name = ZINC38745156
REMARK  8 active torsions:
REMARK  status: ('A' for Active; 'I' for Inactive)
REMARK    1  A    between atoms: C_1  and  C_2
REMARK    2  A    between atoms: C_2  and  S_3
REMARK    3  A    between atoms: S_3  and  C_4
REMARK    4  A    between atoms: C_5  and  C_27
REMARK    5  A    between atoms: C_6  and  N_10
REMARK    6  A    between atoms: C_11  and  C_13
REMARK    7  A    between atoms: C_13  and  C_14
REMARK    8  A    between atoms: C_14  and  N_15
REMARK                            x       y       z     vdW  Elec       q    Type
REMARK                         _______ _______ _______ _____ _____    ______ ____
ROOT
ATOM      1  N   UNL     1       0.174  -5.374   2.518  0.00  0.00    -0.288 N 
ATOM      2  C   UNL     1       0.444  -6.674   2.752  0.00  0.00    +0.216 C 
ATOM      3  O   UNL     1       1.393  -7.203   2.212  0.00  0.00    -0.276 OA
ATOM      4  H   UNL     1      -0.584  -4.951   2.950  0.00  0.00    +0.151 HD
ENDROOT
BRANCH   1   7
ATOM      5  C   UNL     1       0.818  -2.359   1.317  0.00  0.00    +0.136 C 
ATOM      6  C   UNL     1       1.354  -3.244   2.211  0.00  0.00    +0.106 C 
ATOM      7  C   UNL     1       1.026  -4.601   1.612  0.00  0.00    +0.258 C 
ATOM      8  N   UNL     1       0.301  -4.257   0.378  0.00  0.00    -0.158 NA
ATOM      9  N   UNL     1       0.227  -3.030   0.297  0.00  0.00    -0.144 NA
BRANCH   6  10
ATOM     10  C   UNL     1       2.058  -2.960   3.425  0.00  0.00    +0.101 C 
ATOM     11  N   UNL     1       2.616  -2.734   4.389  0.00  0.00    -0.191 NA
ENDBRANCH   6  10
BRANCH   5  12
ATOM     12  S   UNL     1       0.879  -0.605   1.472  0.00  0.00    -0.103 S 
BRANCH  12  14
ATOM     13  C   UNL     1      -0.019   1.526   0.010  0.00  0.00    +0.015 C 
ATOM     14  C   UNL     1       0.002  -0.004   0.002  0.00  0.00    +0.072 C 
ENDBRANCH  12  14
ENDBRANCH   5  12
ENDBRANCH   1   7
BRANCH   2  15
ATOM     15  C   UNL     1      -0.432  -7.470   3.684  0.00  0.00    +0.115 C 
BRANCH  15  16
ATOM     16  C   UNL     1       0.089  -8.906   3.773  0.00  0.00    +0.126 C 
BRANCH  16  17
ATOM     17  N   UNL     1      -0.762  -9.679   4.680  0.00  0.00    -0.234 N 
ATOM     18  C   UNL     1      -0.561  -9.789   6.005  0.00  0.00    +0.254 C 
ATOM     19  O   UNL     1       0.341  -9.269   6.631  0.00  0.00    -0.270 OA
ATOM     20  C   UNL     1      -1.622 -10.646   6.574  0.00  0.00    +0.049 A 
ATOM     21  C   UNL     1      -1.921 -11.099   7.849  0.00  0.00    +0.015 A 
ATOM     22  C   UNL     1      -3.022 -11.916   8.048  0.00  0.00    +0.016 A 
ATOM     23  C   UNL     1      -3.826 -12.281   6.983  0.00  0.00    +0.019 A 
ATOM     24  C   UNL     1      -3.539 -11.835   5.701  0.00  0.00    +0.029 A 
ATOM     25  C   UNL     1      -2.441 -11.018   5.488  0.00  0.00    +0.050 A 
ATOM     26  C   UNL     1      -1.852 -10.369   4.297  0.00  0.00    +0.254 C 
ATOM     27  O   UNL     1      -2.279 -10.448   3.163  0.00  0.00    -0.270 OA
ATOM     28 BR   UNL     1      -5.324 -13.396   7.276  0.00  0.00    -0.050 Br
ENDBRANCH  16  17
ENDBRANCH  15  16
ENDBRANCH   2  15
TORSDOF 7
