REMARK  Name = ZINC66468099
REMARK  7 active torsions:
REMARK  status: ('A' for Active; 'I' for Inactive)
REMARK    1  A    between atoms: C_1  and  C_2
REMARK    2  A    between atoms: C_2  and  C_7
REMARK    3  A    between atoms: C_7  and  N_8
REMARK    4  A    between atoms: N_8  and  C_9
REMARK    5  A    between atoms: C_12  and  N_19
REMARK    6  A    between atoms: C_14  and  S_15
REMARK    7  A    between atoms: S_15  and  N_18
REMARK                            x       y       z     vdW  Elec       q    Type
REMARK                         _______ _______ _______ _____ _____    ______ ____
ROOT
ATOM      1  C   UNL     1      -3.444  -0.419  -1.458  0.00  0.00    +0.054 A 
ATOM      2  C   UNL     1      -4.113  -1.244  -0.563  0.00  0.00    +0.027 A 
ATOM      3  C   UNL     1      -5.425  -1.601  -0.804  0.00  0.00    +0.034 A 
ATOM      4  C   UNL     1      -6.072  -1.140  -1.935  0.00  0.00    +0.128 A 
ATOM      5  C   UNL     1      -5.409  -0.319  -2.829  0.00  0.00    +0.063 A 
ATOM      6  C   UNL     1      -4.099   0.048  -2.591  0.00  0.00    +0.128 A 
ENDROOT
BRANCH   6   7
ATOM      7  S   UNL     1      -3.257   1.099  -3.727  0.00  0.00    +0.058 S 
ATOM      8  O   UNL     1      -2.007   0.482  -4.002  0.00  0.00    -0.153 OA
ATOM      9  O   UNL     1      -4.189   1.421  -4.749  0.00  0.00    -0.153 OA
BRANCH   7  10
ATOM     10  N   UNL     1      -2.922   2.512  -2.929  0.00  0.00    -0.203 NA
ATOM     11  H   UNL     1      -2.138   3.030  -3.169  0.00  0.00    +0.144 HD
ATOM     12  H   UNL     1      -3.510   2.821  -2.223  0.00  0.00    +0.144 HD
ENDBRANCH   7  10
ENDBRANCH   6   7
BRANCH   4  13
ATOM     13  N   UNL     1      -7.479  -1.525  -2.191  0.00  0.00    +0.056 N 
ATOM     14  O   UNL     1      -8.060  -2.243  -1.411  0.00  0.00    -0.126 OA
ATOM     15  O   UNL     1      -8.046  -1.122  -3.179  0.00  0.00    -0.126 OA
ENDBRANCH   4  13
BRANCH   1  16
ATOM     16  N   UNL     1      -2.117  -0.054  -1.217  0.00  0.00    -0.342 N 
ATOM     17  H   UNL     1      -1.653   0.525  -1.841  0.00  0.00    +0.146 HD
BRANCH  16  18
ATOM     18  C   UNL     1      -1.428  -0.547  -0.022  0.00  0.00    +0.108 C 
BRANCH  18  20
ATOM     19  C   UNL     1      -0.019   1.526   0.010  0.00  0.00    +0.013 C 
ATOM     20  C   UNL     1       0.002  -0.004   0.002  0.00  0.00    -0.017 C 
ATOM     21  C   UNL     1       0.783  -0.515  -1.226  0.00  0.00    +0.008 C 
ATOM     22  C   UNL     1       2.213  -0.768  -0.688  0.00  0.00    +0.001 C 
ATOM     23  C   UNL     1       1.950  -1.339   0.728  0.00  0.00    +0.001 C 
ATOM     24  C   UNL     1       0.744  -0.528   1.244  0.00  0.00    +0.008 C 
ENDBRANCH  18  20
ENDBRANCH  16  18
ENDBRANCH   1  16
TORSDOF 6
