REMARK  Name = ZINC11312974
REMARK  9 active torsions:
REMARK  status: ('A' for Active; 'I' for Inactive)
REMARK    1  A    between atoms: C_1  and  C_2
REMARK    2  A    between atoms: C_7  and  N_8
REMARK    3  A    between atoms: C_9  and  C_34
REMARK    4  A    between atoms: C_11  and  C_14
REMARK    5  A    between atoms: C_12  and  C_13
REMARK    6  A    between atoms: C_14  and  O_16
REMARK    7  A    between atoms: O_16  and  C_17
REMARK    8  A    between atoms: C_17  and  C_18
REMARK    9  A    between atoms: C_22  and  C_31
REMARK                            x       y       z     vdW  Elec       q    Type
REMARK                         _______ _______ _______ _____ _____    ______ ____
ROOT
ATOM      1  C   UNL     1      -7.277  -1.829   1.988  0.00  0.00    +0.328 C 
ENDROOT
BRANCH   1   2
ATOM      2  C   UNL     1      -8.380  -2.497   1.208  0.00  0.00    +0.258 C 
ATOM      3  O   UNL     1      -8.405  -2.411  -0.002  0.00  0.00    -0.272 OA
ATOM      4  N   UNL     1      -9.339  -3.188   1.854  0.00  0.00    -0.261 N 
ATOM      5  C   UNL     1      -9.387  -3.233   3.325  0.00  0.00    +0.168 C 
ATOM      6  C   UNL     1      -9.717  -4.675   3.735  0.00  0.00    +0.276 C 
ATOM      7  O   UNL     1     -10.963  -5.049   3.143  0.00  0.00    -0.476 OA
ATOM      8  C   UNL     1     -11.126  -4.820   1.814  0.00  0.00    +0.143 A 
ATOM      9  C   UNL     1     -10.332  -3.888   1.147  0.00  0.00    +0.078 A 
ATOM     10  C   UNL     1     -10.509  -3.666  -0.208  0.00  0.00    +0.027 A 
ATOM     11  C   UNL     1     -11.482  -4.365  -0.900  0.00  0.00    +0.002 A 
ATOM     12  C   UNL     1     -12.273  -5.287  -0.241  0.00  0.00    +0.004 A 
ATOM     13  C   UNL     1     -12.098  -5.516   1.111  0.00  0.00    +0.047 A 
BRANCH   6  14
ATOM     14  C   UNL     1      -9.825  -4.761   5.236  0.00  0.00    +0.253 C 
ATOM     15  O   UNL     1     -10.888  -5.033   5.753  0.00  0.00    -0.272 OA
ATOM     16  N   UNL     1      -8.740  -4.537   6.004  0.00  0.00    -0.326 N 
ATOM     17  H   UNL     1      -7.890  -4.319   5.590  0.00  0.00    +0.145 HD
ATOM     18  H   UNL     1      -8.809  -4.592   6.970  0.00  0.00    +0.145 HD
ENDBRANCH   6  14
ENDBRANCH   1   2
BRANCH   1  19
ATOM     19  O   UNL     1      -6.313  -1.254   1.068  0.00  0.00    -0.452 OA
BRANCH  19  20
ATOM     20  C   UNL     1      -5.256  -0.615   1.609  0.00  0.00    +0.341 C 
ATOM     21  O   UNL     1      -5.144  -0.542   2.817  0.00  0.00    -0.245 OA
BRANCH  20  25
ATOM     22  N   UNL     1      -2.445   1.068   0.026  0.00  0.00    -0.317 N 
ATOM     23  C   UNL     1      -3.115   0.666  -1.096  0.00  0.00    +0.022 A 
ATOM     24  C   UNL     1      -4.221  -0.004  -0.731  0.00  0.00    +0.038 A 
ATOM     25  C   UNL     1      -4.239  -0.008   0.737  0.00  0.00    +0.080 A 
ATOM     26  C   UNL     1      -3.108   0.674   1.133  0.00  0.00    +0.035 A 
ATOM     27  C   UNL     1      -2.685   0.935   2.555  0.00  0.00    +0.065 C 
ATOM     28  C   UNL     1      -2.680   0.930  -2.515  0.00  0.00    +0.064 C 
BRANCH  22  35
ATOM     29  C   UNL     1      -2.586   3.911   0.029  0.00  0.00    +0.046 C 
ATOM     30  C   UNL     1      -1.269   3.179   0.027  0.00  0.00    -0.027 A 
ATOM     31  C   UNL     1      -0.084   3.889   0.020  0.00  0.00    +0.005 A 
ATOM     32  C   UNL     1       1.125   3.219   0.019  0.00  0.00    +0.000 A 
ATOM     33  C   UNL     1       1.153   1.836   0.025  0.00  0.00    +0.002 A 
ATOM     34  C   UNL     1      -0.029   1.121   0.031  0.00  0.00    +0.026 A 
ATOM     35  C   UNL     1      -1.245   1.791   0.026  0.00  0.00    +0.049 A 
ENDBRANCH  22  35
ENDBRANCH  20  25
ENDBRANCH  19  20
ENDBRANCH   1  19
TORSDOF 6
