REMARK  Name = ZINC49191640
REMARK  9 active torsions:
REMARK  status: ('A' for Active; 'I' for Inactive)
REMARK    1  A    between atoms: C_1  and  C_2
REMARK    2  A    between atoms: C_2  and  C_3
REMARK    3  A    between atoms: C_3  and  N_4
REMARK    4  A    between atoms: C_5  and  C_7
REMARK    5  A    between atoms: C_7  and  C_9
REMARK    6  A    between atoms: C_7  and  N_10
REMARK    7  A    between atoms: C_11  and  C_13
REMARK    8  A    between atoms: C_15  and  N_19
REMARK    9  A    between atoms: N_17  and  C_18
REMARK                            x       y       z     vdW  Elec       q    Type
REMARK                         _______ _______ _______ _____ _____    ______ ____
ROOT
ATOM      1  N   UNL     1       2.287  -4.737   3.254  0.00  0.00    -0.299 N 
ATOM      2  C   UNL     1       1.968  -5.936   3.780  0.00  0.00    +0.261 C 
ATOM      3  O   UNL     1       1.093  -6.612   3.271  0.00  0.00    -0.269 OA
ATOM      4  H   UNL     1       2.925  -4.164   3.705  0.00  0.00    +0.150 HD
ENDROOT
BRANCH   2   5
ATOM      5  C   UNL     1       2.676  -6.427   4.967  0.00  0.00    +0.106 A 
ATOM      6  C   UNL     1       3.619  -5.734   5.698  0.00  0.00    +0.055 A 
ATOM      7  C   UNL     1       4.032  -6.574   6.741  0.00  0.00    +0.043 A 
ATOM      8  C   UNL     1       3.346  -7.742   6.630  0.00  0.00    +0.108 A 
ATOM      9  N   UNL     1       2.515  -7.660   5.557  0.00  0.00    -0.344 N 
ATOM     10  C   UNL     1       1.601  -8.711   5.102  0.00  0.00    +0.149 C 
BRANCH   7  11
ATOM     11  N   UNL     1       4.986  -6.263   7.728  0.00  0.00    -0.357 N 
ATOM     12  H   UNL     1       5.424  -5.398   7.723  0.00  0.00    +0.142 HD
ATOM     13  H   UNL     1       5.206  -6.915   8.412  0.00  0.00    +0.142 HD
ENDBRANCH   7  11
ENDBRANCH   2   5
BRANCH   1  14
ATOM     14  C   UNL     1       1.668  -4.301   2.000  0.00  0.00    +0.156 C 
ATOM     15  C   UNL     1       2.458  -4.865   0.818  0.00  0.00    +0.038 C 
BRANCH  14  17
ATOM     16  N   UNL     1       1.152  -2.165   0.864  0.00  0.00    -0.314 N 
ATOM     17  C   UNL     1       1.674  -2.795   1.935  0.00  0.00    +0.233 C 
ATOM     18  O   UNL     1       2.148  -2.150   2.846  0.00  0.00    -0.274 OA
ATOM     19  H   UNL     1       0.773  -2.680   0.135  0.00  0.00    +0.149 HD
BRANCH  16  20
ATOM     20  C   UNL     1       1.158  -0.701   0.800  0.00  0.00    +0.104 C 
BRANCH  20  22
ATOM     21  C   UNL     1       0.518   1.284  -0.576  0.00  0.00    +0.005 C 
ATOM     22  C   UNL     1       0.512  -0.245  -0.510  0.00  0.00    +0.015 C 
ENDBRANCH  20  22
ENDBRANCH  16  20
ENDBRANCH  14  17
ENDBRANCH   1  14
TORSDOF 6
