REMARK  Name = ZINC63404329
REMARK  7 active torsions:
REMARK  status: ('A' for Active; 'I' for Inactive)
REMARK    1  A    between atoms: C_4  and  C_7
REMARK    2  A    between atoms: C_7  and  C_8
REMARK    3  A    between atoms: C_7  and  N_11
REMARK    4  A    between atoms: N_14  and  C_15
REMARK    5  A    between atoms: C_15  and  C_16
REMARK    6  A    between atoms: C_21  and  O_22
REMARK    7  A    between atoms: O_22  and  C_23
REMARK                            x       y       z     vdW  Elec       q    Type
REMARK                         _______ _______ _______ _____ _____    ______ ____
ROOT
ATOM      1  N   UNL     1       2.695  -2.770  -0.982  0.00  0.00    -0.284 N 
ATOM      2  C   UNL     1       3.953  -2.898  -1.449  0.00  0.00    +0.301 C 
ATOM      3  O   UNL     1       4.829  -2.156  -1.048  0.00  0.00    -0.253 OA
ATOM      4  N   UNL     1       4.240  -3.849  -2.360  0.00  0.00    -0.295 N 
ATOM      5  H   UNL     1       1.996  -3.362  -1.302  0.00  0.00    +0.151 HD
ATOM      6  H   UNL     1       3.542  -4.441  -2.679  0.00  0.00    +0.151 HD
ENDROOT
BRANCH   1   7
ATOM      7  C   UNL     1       2.383  -1.736   0.008  0.00  0.00    +0.190 C 
BRANCH   7  11
ATOM      8  C   UNL     1      -1.759  -0.723  -0.251  0.00  0.00    +0.000 A 
ATOM      9  C   UNL     1      -0.816   0.268  -0.048  0.00  0.00    +0.000 A 
ATOM     10  C   UNL     1       0.524  -0.060   0.036  0.00  0.00    +0.006 A 
ATOM     11  C   UNL     1       0.922  -1.379  -0.083  0.00  0.00    -0.018 A 
ATOM     12  C   UNL     1      -0.021  -2.370  -0.284  0.00  0.00    +0.006 A 
ATOM     13  C   UNL     1      -1.361  -2.041  -0.370  0.00  0.00    +0.000 A 
ENDBRANCH   7  11
BRANCH   7  14
ATOM     14  C   UNL     1       2.688  -2.255   1.389  0.00  0.00    +0.235 C 
ATOM     15  O   UNL     1       3.124  -3.378   1.533  0.00  0.00    -0.274 OA
ATOM     16  N   UNL     1       2.478  -1.472   2.466  0.00  0.00    -0.328 N 
ATOM     17  H   UNL     1       2.129  -0.574   2.351  0.00  0.00    +0.145 HD
ATOM     18  H   UNL     1       2.674  -1.806   3.355  0.00  0.00    +0.145 HD
ENDBRANCH   7  14
ENDBRANCH   1   7
BRANCH   4  19
ATOM     19  C   UNL     1       5.607  -3.989  -2.867  0.00  0.00    +0.144 C 
BRANCH  19  20
ATOM     20  C   UNL     1       5.660  -5.116  -3.866  0.00  0.00    +0.012 A 
ATOM     21  C   UNL     1       6.127  -6.358  -3.482  0.00  0.00    +0.009 A 
ATOM     22  C   UNL     1       6.176  -7.393  -4.398  0.00  0.00    +0.001 A 
ATOM     23  C   UNL     1       5.758  -7.187  -5.700  0.00  0.00    +0.004 A 
ATOM     24  C   UNL     1       5.290  -5.947  -6.089  0.00  0.00    +0.046 A 
ATOM     25  C   UNL     1       5.235  -4.909  -5.170  0.00  0.00    +0.133 A 
BRANCH  25  26
ATOM     26  O   UNL     1       4.769  -3.689  -5.548  0.00  0.00    -0.456 OA
BRANCH  26  27
ATOM     27  C   UNL     1       4.361  -3.533  -6.835  0.00  0.00    +0.128 A 
ATOM     28  C   UNL     1       3.040  -3.780  -7.179  0.00  0.00    +0.046 A 
ATOM     29  C   UNL     1       2.627  -3.621  -8.488  0.00  0.00    +0.004 A 
ATOM     30  C   UNL     1       3.530  -3.216  -9.454  0.00  0.00    +0.000 A 
ATOM     31  C   UNL     1       4.847  -2.970  -9.114  0.00  0.00    +0.004 A 
ATOM     32  C   UNL     1       5.263  -3.122  -7.806  0.00  0.00    +0.046 A 
ENDBRANCH  26  27
ENDBRANCH  25  26
ENDBRANCH  19  20
ENDBRANCH   4  19
TORSDOF 7
