REMARK  Name = ZINC39915891
REMARK  15 active torsions:
REMARK  status: ('A' for Active; 'I' for Inactive)
REMARK    1  A    between atoms: C_1  and  C_2
REMARK    2  A    between atoms: C_2  and  C_3
REMARK    3  A    between atoms: C_3  and  C_4
REMARK    4  A    between atoms: C_4  and  C_5
REMARK    5  A    between atoms: C_5  and  O_6
REMARK    6  A    between atoms: O_6  and  C_7
REMARK    7  A    between atoms: C_12  and  C_13
REMARK    8  A    between atoms: C_13  and  N_14
REMARK    9  A    between atoms: C_22  and  S_23
REMARK   10  A    between atoms: S_23  and  C_24
REMARK   11  A    between atoms: C_26  and  O_39
REMARK   12  A    between atoms: C_28  and  O_38
REMARK   13  A    between atoms: C_30  and  O_37
REMARK   14  A    between atoms: C_32  and  C_35
REMARK   15  A    between atoms: C_35  and  O_36
REMARK                            x       y       z     vdW  Elec       q    Type
REMARK                         _______ _______ _______ _____ _____    ______ ____
ROOT
ATOM      1  N   UNL     1      -0.138  -6.924  -2.577  0.00  0.00    -0.314 N 
ATOM      2  C   UNL     1      -1.209  -6.151  -2.157  0.00  0.00    +0.070 A 
ATOM      3  C   UNL     1      -1.324  -5.014  -1.372  0.00  0.00    +0.028 A 
ATOM      4  C   UNL     1      -2.568  -4.468  -1.132  0.00  0.00    +0.002 A 
ATOM      5  C   UNL     1      -3.706  -5.050  -1.670  0.00  0.00    +0.002 A 
ATOM      6  C   UNL     1      -3.611  -6.180  -2.452  0.00  0.00    +0.030 A 
ATOM      7  C   UNL     1      -2.358  -6.744  -2.705  0.00  0.00    +0.090 A 
ATOM      8  N   UNL     1      -1.949  -7.826  -3.418  0.00  0.00    -0.222 NA
ATOM      9  C   UNL     1      -0.644  -7.931  -3.350  0.00  0.00    +0.173 A 
ENDROOT
BRANCH   1  10
ATOM     10  C   UNL     1       1.274  -6.699  -2.258  0.00  0.00    +0.163 C 
BRANCH  10  16
ATOM     11  C   UNL     1       1.781  -4.426  -3.186  0.00  0.00    +0.125 A 
ATOM     12  C   UNL     1       2.353  -3.604  -4.146  0.00  0.00    +0.046 A 
ATOM     13  C   UNL     1       3.024  -4.160  -5.218  0.00  0.00    +0.004 A 
ATOM     14  C   UNL     1       3.125  -5.534  -5.335  0.00  0.00    +0.001 A 
ATOM     15  C   UNL     1       2.556  -6.355  -4.380  0.00  0.00    +0.009 A 
ATOM     16  C   UNL     1       1.889  -5.804  -3.302  0.00  0.00    +0.014 A 
BRANCH  11  17
ATOM     17  O   UNL     1       1.121  -3.881  -2.130  0.00  0.00    -0.492 OA
BRANCH  17  18
ATOM     18  C   UNL     1       1.050  -2.455  -2.074  0.00  0.00    +0.229 C 
BRANCH  18  19
ATOM     19  C   UNL     1       0.275  -2.031  -0.825  0.00  0.00    +0.041 C 
BRANCH  19  20
ATOM     20  C   UNL     1       0.199  -0.504  -0.766  0.00  0.00    +0.003 C 
BRANCH  20  22
ATOM     21  C   UNL     1      -0.652   1.446   0.543  0.00  0.00    +0.004 C 
ATOM     22  C   UNL     1      -0.576  -0.081   0.483  0.00  0.00    -0.003 C 
ENDBRANCH  20  22
ENDBRANCH  19  20
ENDBRANCH  18  19
ENDBRANCH  17  18
ENDBRANCH  11  17
ENDBRANCH  10  16
ENDBRANCH   1  10
BRANCH   9  23
ATOM     23  S   UNL     1       0.313  -9.186  -4.132  0.00  0.00    -0.054 S 
BRANCH  23  24
ATOM     24  C   UNL     1      -0.917 -10.203  -4.994  0.00  0.00    +0.214 C 
ATOM     25  C   UNL     1      -0.203 -11.272  -5.826  0.00  0.00    +0.185 C 
ATOM     26  C   UNL     1      -1.248 -12.164  -6.502  0.00  0.00    +0.177 C 
ATOM     27  C   UNL     1      -2.155 -12.773  -5.429  0.00  0.00    +0.176 C 
ATOM     28  C   UNL     1      -2.794 -11.646  -4.612  0.00  0.00    +0.176 C 
ATOM     29  O   UNL     1      -1.767 -10.836  -4.036  0.00  0.00    -0.355 OA
BRANCH  27  30
ATOM     30  O   UNL     1      -3.179 -13.551  -6.053  0.00  0.00    -0.386 OA
ATOM     31  H   UNL     1      -2.844 -14.281  -6.591  0.00  0.00    +0.210 HD
ENDBRANCH  27  30
BRANCH  26  32
ATOM     32  O   UNL     1      -2.032 -11.381  -7.405  0.00  0.00    -0.386 OA
ATOM     33  H   UNL     1      -1.519 -10.960  -8.109  0.00  0.00    +0.210 HD
ENDBRANCH  26  32
BRANCH  25  34
ATOM     34  O   UNL     1       0.625 -12.066  -4.974  0.00  0.00    -0.386 OA
ATOM     35  H   UNL     1       1.308 -11.563  -4.510  0.00  0.00    +0.210 HD
ENDBRANCH  25  34
BRANCH  28  36
ATOM     36  C   UNL     1      -3.669 -10.786  -5.526  0.00  0.00    +0.190 C 
BRANCH  36  37
ATOM     37  O   UNL     1      -4.384  -9.831  -4.740  0.00  0.00    -0.392 OA
ATOM     38  H   UNL     1      -4.960  -9.250  -5.255  0.00  0.00    +0.210 HD
ENDBRANCH  36  37
ENDBRANCH  28  36
ENDBRANCH  23  24
ENDBRANCH   9  23
TORSDOF 14
