REMARK  Name = ZINC65356892
REMARK  7 active torsions:
REMARK  status: ('A' for Active; 'I' for Inactive)
REMARK    1  A    between atoms: C_1  and  N_2
REMARK    2  A    between atoms: C_18  and  C_23
REMARK    3  A    between atoms: C_25  and  O_32
REMARK    4  A    between atoms: C_26  and  O_31
REMARK    5  A    between atoms: C_27  and  O_29
REMARK    6  A    between atoms: O_29  and  C_30
REMARK    7  A    between atoms: O_32  and  C_33
REMARK                            x       y       z     vdW  Elec       q    Type
REMARK                         _______ _______ _______ _____ _____    ______ ____
ROOT
ATOM      1  C   UNL     1      -0.131   1.336   1.108  0.00  0.00    +0.140 C 
ATOM      2  N   UNL     1      -0.080  -0.095   0.797  0.00  0.00    -0.255 N 
ATOM      3  C   UNL     1      -1.165  -0.894   0.723  0.00  0.00    +0.242 C 
ATOM      4  O   UNL     1      -2.319  -0.583   0.927  0.00  0.00    -0.273 OA
ATOM      5  C   UNL     1      -0.641  -2.258   0.332  0.00  0.00    +0.166 C 
ATOM      6  C   UNL     1      -1.025  -3.295   1.403  0.00  0.00    +0.065 C 
ATOM      7  C   UNL     1      -0.024  -4.420   1.284  0.00  0.00    -0.034 C 
ATOM      8  C   UNL     1      -0.205  -5.726   1.119  0.00  0.00    -0.001 A 
ATOM      9  C   UNL     1      -1.425  -6.549   1.092  0.00  0.00    +0.010 A 
ATOM     10  C   UNL     1      -1.246  -7.879   0.878  0.00  0.00    +0.001 A 
ATOM     11  C   UNL     1       0.009  -8.467   0.693  0.00  0.00    +0.002 A 
ATOM     12  C   UNL     1       1.184  -7.788   0.710  0.00  0.00    +0.026 A 
ATOM     13  C   UNL     1       1.125  -6.381   0.933  0.00  0.00    +0.043 A 
ATOM     14  N   UNL     1       2.080  -5.502   1.018  0.00  0.00    -0.375 N 
ATOM     15  C   UNL     1       1.483  -4.200   1.320  0.00  0.00    +0.131 C 
ATOM     16  C   UNL     1       1.810  -3.164   0.235  0.00  0.00    +0.133 C 
ATOM     17  N   UNL     1       0.824  -2.075   0.346  0.00  0.00    -0.291 N 
ATOM     18  C   UNL     1       1.050  -0.770   0.545  0.00  0.00    +0.143 C 
ATOM     19  S   UNL     1       2.602  -0.049   0.487  0.00  0.00    -0.018 S 
ATOM     20  H   UNL     1       3.026  -5.680   0.901  0.00  0.00    +0.160 HD
ENDROOT
BRANCH  16  21
ATOM     21  C   UNL     1       3.202  -2.624   0.440  0.00  0.00    -0.018 A 
ATOM     22  C   UNL     1       3.602  -2.211   1.696  0.00  0.00    +0.055 A 
ATOM     23  C   UNL     1       4.882  -1.714   1.889  0.00  0.00    +0.165 A 
ATOM     24  C   UNL     1       5.763  -1.631   0.817  0.00  0.00    +0.201 A 
ATOM     25  C   UNL     1       5.356  -2.048  -0.445  0.00  0.00    +0.165 A 
ATOM     26  C   UNL     1       4.076  -2.549  -0.628  0.00  0.00    +0.055 A 
BRANCH  25  27
ATOM     27  O   UNL     1       6.214  -1.970  -1.497  0.00  0.00    -0.491 OA
ATOM     28  C   UNL     1       5.728  -2.416  -2.765  0.00  0.00    +0.277 C 
ENDBRANCH  25  27
BRANCH  24  29
ATOM     29  O   UNL     1       7.019  -1.143   1.002  0.00  0.00    -0.501 OA
ATOM     30  H   UNL     1       7.673  -1.818   1.232  0.00  0.00    +0.292 HD
ENDBRANCH  24  29
BRANCH  23  31
ATOM     31  O   UNL     1       5.275  -1.307   3.126  0.00  0.00    -0.491 OA
ATOM     32  C   UNL     1       4.318  -1.420   4.181  0.00  0.00    +0.277 C 
ENDBRANCH  23  31
ENDBRANCH  16  21
TORSDOF 4
