REMARK  Name = ZINC02134201
REMARK  6 active torsions:
REMARK  status: ('A' for Active; 'I' for Inactive)
REMARK    1  A    between atoms: C_5  and  N_7
REMARK    2  A    between atoms: C_8  and  C_10
REMARK    3  A    between atoms: C_10  and  C_11
REMARK    4  A    between atoms: C_11  and  C_12
REMARK    5  A    between atoms: N_14  and  N_15
REMARK    6  A    between atoms: C_16  and  C_18
REMARK                            x       y       z     vdW  Elec       q    Type
REMARK                         _______ _______ _______ _____ _____    ______ ____
ROOT
ATOM      1  C   UNL     1      -1.311  -4.811   0.304  0.00  0.00    +0.106 C 
ENDROOT
BRANCH   1   2
ATOM      2  C   UNL     1      -1.278  -6.314   0.408  0.00  0.00    +0.230 C 
ATOM      3  O   UNL     1      -0.217  -6.900   0.394  0.00  0.00    -0.274 OA
ATOM      4  N   UNL     1      -2.429  -7.007   0.518  0.00  0.00    -0.234 N 
ATOM      5  H   UNL     1      -3.278  -6.538   0.529  0.00  0.00    +0.173 HD
BRANCH   4   6
ATOM      6  N   UNL     1      -2.399  -8.404   0.615  0.00  0.00    -0.228 N 
ATOM      7  C   UNL     1      -3.550  -9.097   0.724  0.00  0.00    +0.295 C 
ATOM      8  O   UNL     1      -4.615  -8.509   0.739  0.00  0.00    -0.265 OA
ATOM      9  H   UNL     1      -1.550  -8.873   0.603  0.00  0.00    +0.173 HD
BRANCH   7  10
ATOM     10  C   UNL     1      -3.518 -10.559   0.825  0.00  0.00    +0.190 A 
ATOM     11  C   UNL     1      -4.604 -11.380   0.935  0.00  0.00    +0.054 A 
ATOM     12  C   UNL     1      -4.113 -12.693   1.004  0.00  0.00    +0.042 A 
ATOM     13  C   UNL     1      -2.765 -12.617   0.934  0.00  0.00    +0.196 A 
ATOM     14  O   UNL     1      -2.411 -11.331   0.821  0.00  0.00    -0.458 OA
ENDBRANCH   7  10
ENDBRANCH   4   6
ENDBRANCH   1   2
BRANCH   1  15
ATOM     15  C   UNL     1       0.118  -4.276   0.191  0.00  0.00    +0.105 C 
BRANCH  15  17
ATOM     16  N   UNL     1       1.237  -2.080  -0.022  0.00  0.00    -0.284 N 
ATOM     17  C   UNL     1       0.086  -2.773   0.087  0.00  0.00    +0.218 C 
ATOM     18  O   UNL     1      -0.976  -2.187   0.102  0.00  0.00    -0.275 OA
ATOM     19  H   UNL     1       2.080  -2.551  -0.115  0.00  0.00    +0.155 HD
BRANCH  16  24
ATOM     20  C   UNL     1       0.153   1.372   0.637  0.00  0.00    +0.002 A 
ATOM     21  C   UNL     1       1.173   2.086   0.035  0.00  0.00    +0.002 A 
ATOM     22  C   UNL     1       2.214   1.422  -0.586  0.00  0.00    +0.022 A 
ATOM     23  C   UNL     1       2.239   0.040  -0.607  0.00  0.00    +0.062 A 
ATOM     24  C   UNL     1       1.216  -0.681  -0.003  0.00  0.00    +0.052 A 
ATOM     25  C   UNL     1       0.172  -0.009   0.620  0.00  0.00    +0.025 A 
ATOM     26 CL   UNL     1       3.546  -0.795  -1.388  0.00  0.00    -0.082 Cl
ENDBRANCH  16  24
ENDBRANCH  15  17
ENDBRANCH   1  15
TORSDOF 6
