REMARK  Name = ZINC63458852
REMARK  6 active torsions:
REMARK  status: ('A' for Active; 'I' for Inactive)
REMARK    1  A    between atoms: C_1  and  C_2
REMARK    2  A    between atoms: C_3  and  C_8
REMARK    3  A    between atoms: C_4  and  C_7
REMARK    4  A    between atoms: C_8  and  O_9
REMARK    5  A    between atoms: O_9  and  N_10
REMARK    6  A    between atoms: C_11  and  C_12
REMARK                            x       y       z     vdW  Elec       q    Type
REMARK                         _______ _______ _______ _____ _____    ______ ____
ROOT
ATOM      1  N   UNL     1       1.446   0.161  -4.400  0.00  0.00    -0.074 NA
ATOM      2  C   UNL     1       2.598   0.460  -4.902  0.00  0.00    +0.135 C 
ATOM      3  N   UNL     1       2.688   0.910  -6.200  0.00  0.00    -0.344 N 
ATOM      4  H   UNL     1       1.887   1.002  -6.738  0.00  0.00    +0.144 HD
ATOM      5  H   UNL     1       3.554   1.134  -6.576  0.00  0.00    +0.144 HD
ENDROOT
BRANCH   2   6
ATOM      6  C   UNL     1       3.844   0.317  -4.065  0.00  0.00    +0.055 C 
ATOM      7  C   UNL     1       4.193   1.667  -3.436  0.00  0.00    +0.011 C 
ATOM      8  C   UNL     1       5.458   1.522  -2.587  0.00  0.00    +0.001 C 
ATOM      9  C   UNL     1       6.616   1.056  -3.472  0.00  0.00    +0.000 C 
ATOM     10  C   UNL     1       6.266  -0.294  -4.101  0.00  0.00    +0.001 C 
ATOM     11  C   UNL     1       5.002  -0.148  -4.950  0.00  0.00    +0.011 C 
ENDBRANCH   2   6
BRANCH   1  12
ATOM     12  O   UNL     1       1.362  -0.404  -3.104  0.00  0.00    -0.388 OA
BRANCH  12  13
ATOM     13  C   UNL     1       0.027  -0.684  -2.678  0.00  0.00    +0.303 C 
BRANCH  13  16
ATOM     14  C   UNL     1      -0.104   0.936   0.051  0.00  0.00    +0.069 C 
ATOM     15  C   UNL     1      -0.001  -0.561  -0.085  0.00  0.00    +0.087 A 
ATOM     16  C   UNL     1       0.057  -1.279  -1.293  0.00  0.00    +0.057 A 
ATOM     17  C   UNL     1       0.144  -2.590  -0.998  0.00  0.00    +0.141 A 
ATOM     18  O   UNL     1       0.142  -2.715   0.338  0.00  0.00    -0.359 OA
ATOM     19  N   UNL     1       0.055  -1.417   0.896  0.00  0.00    -0.083 NA
ATOM     20  C   UNL     1       0.229  -3.718  -1.993  0.00  0.00    +0.089 C 
ENDBRANCH  13  16
ENDBRANCH  12  13
ENDBRANCH   1  12
TORSDOF 4
