REMARK  Name = ZINC02342471
REMARK  8 active torsions:
REMARK  status: ('A' for Active; 'I' for Inactive)
REMARK    1  A    between atoms: C_1  and  C_2
REMARK    2  A    between atoms: C_2  and  S_3
REMARK    3  A    between atoms: S_3  and  C_4
REMARK    4  A    between atoms: C_5  and  C_25
REMARK    5  A    between atoms: C_6  and  C_16
REMARK    6  A    between atoms: C_19  and  C_22
REMARK    7  A    between atoms: C_22  and  C_23
REMARK    8  A    between atoms: C_22  and  C_24
REMARK                            x       y       z     vdW  Elec       q    Type
REMARK                         _______ _______ _______ _____ _____    ______ ____
ROOT
ATOM      1  C   UNL     1      -1.508  -2.383   0.004  0.00  0.00    +0.080 C 
ATOM      2  C   UNL     1      -2.606  -3.187   0.004  0.00  0.00    +0.069 C 
ATOM      3  C   UNL     1      -2.471  -4.681  -0.014  0.00  0.00    +0.097 C 
ATOM      4  C   UNL     1      -1.085  -5.108   0.400  0.00  0.00    +0.024 C 
ATOM      5  C   UNL     1      -0.055  -4.235   0.380  0.00  0.00    +0.016 C 
ATOM      6  N   UNL     1      -0.248  -2.936  -0.011  0.00  0.00    -0.311 N 
ATOM      7  C   UNL     1       1.336  -4.666   0.775  0.00  0.00    +0.051 C 
ATOM      8  C   UNL     1       1.250  -5.771   1.831  0.00  0.00    +0.014 C 
ATOM      9  C   UNL     1       0.450  -6.940   1.247  0.00  0.00    +0.080 C 
ATOM     10  C   UNL     1      -0.899  -6.440   0.809  0.00  0.00    +0.162 C 
ATOM     11  O   UNL     1      -1.846  -7.201   0.809  0.00  0.00    -0.292 OA
ATOM     12  H   UNL     1       0.508  -2.401  -0.297  0.00  0.00    +0.152 HD
ENDROOT
BRANCH   3  13
ATOM     13  C   UNL     1      -2.746  -5.185  -1.407  0.00  0.00    -0.035 A 
ATOM     14  C   UNL     1      -1.958  -4.765  -2.462  0.00  0.00    +0.005 A 
ATOM     15  C   UNL     1      -2.210  -5.228  -3.740  0.00  0.00    +0.004 A 
ATOM     16  C   UNL     1      -3.251  -6.109  -3.964  0.00  0.00    -0.045 A 
ATOM     17  C   UNL     1      -4.039  -6.530  -2.908  0.00  0.00    +0.004 A 
ATOM     18  C   UNL     1      -3.784  -6.071  -1.630  0.00  0.00    +0.005 A 
BRANCH  16  19
ATOM     19  C   UNL     1      -3.527  -6.613  -5.357  0.00  0.00    +0.013 C 
ATOM     20  C   UNL     1      -3.398  -8.137  -5.384  0.00  0.00    +0.012 C 
ATOM     21  C   UNL     1      -4.944  -6.213  -5.772  0.00  0.00    +0.012 C 
ENDBRANCH  16  19
ENDBRANCH   3  13
BRANCH   2  22
ATOM     22  C   UNL     1      -3.910  -2.597   0.022  0.00  0.00    +0.098 C 
ATOM     23  N   UNL     1      -4.945  -2.129   0.036  0.00  0.00    -0.191 NA
ENDBRANCH   2  22
BRANCH   1  24
ATOM     24  S   UNL     1      -1.700  -0.632   0.015  0.00  0.00    -0.109 S 
BRANCH  24  26
ATOM     25  C   UNL     1      -0.019   1.526   0.010  0.00  0.00    +0.015 C 
ATOM     26  C   UNL     1       0.002  -0.004   0.002  0.00  0.00    +0.072 C 
ENDBRANCH  24  26
ENDBRANCH   1  24
TORSDOF 5
