REMARK  Name = ZINC21163828
REMARK  6 active torsions:
REMARK  status: ('A' for Active; 'I' for Inactive)
REMARK    1  A    between atoms: C_1  and  C_2
REMARK    2  A    between atoms: C_7  and  C_8
REMARK    3  A    between atoms: N_9  and  C_18
REMARK    4  A    between atoms: C_12  and  C_14
REMARK    5  A    between atoms: C_18  and  C_20
REMARK    6  A    between atoms: C_18  and  C_21
REMARK                            x       y       z     vdW  Elec       q    Type
REMARK                         _______ _______ _______ _____ _____    ______ ____
ROOT
ATOM      1  C   UNK A   0       1.159   3.557   0.688  0.00  0.00    +0.044 C 
ATOM      2  C   UNK A   0       1.193   2.063   0.499  0.00  0.00    -0.045 A 
ATOM      3  C   UNK A   0       2.390   1.432   0.320  0.00  0.00    +0.033 A 
ATOM      4  C   UNK A   0       2.429   0.041   0.143  0.00  0.00    +0.088 A 
ATOM      5  C   UNK A   0       1.226  -0.691   0.152  0.00  0.00    +0.071 A 
ATOM      6  C   UNK A   0       0.018  -0.026   0.337  0.00  0.00    +0.031 A 
ATOM      7  C   UNK A   0       0.007   1.341   0.508  0.00  0.00    -0.045 A 
ATOM      8  C   UNK A   0      -1.304   2.060   0.702  0.00  0.00    +0.044 C 
ATOM      9  N   UNK A   1       1.250  -2.060  -0.021  0.00  0.00    -0.291 N 
ATOM     10  C   UNK A   1       2.439  -2.676  -0.198  0.00  0.00    +0.283 A 
ATOM     11  O   UNK A   1       2.490  -3.883  -0.353  0.00  0.00    -0.265 OA
ATOM     12  C   UNK A   1       3.667  -1.875  -0.201  0.00  0.00    +0.209 A 
ATOM     13  N   UNK A   1       3.609  -0.585  -0.035  0.00  0.00    -0.236 NA
ENDROOT
BRANCH  12  14
ATOM     14  C   UNK A   1       5.002  -2.547  -0.398  0.00  0.00    +0.439 C 
ATOM     15  F   UNK A   1       6.018  -1.585  -0.364  0.00  0.00    -0.164 F 
ATOM     16  F   UNK A   1       5.209  -3.481   0.623  0.00  0.00    -0.164 F 
ATOM     17  F   UNK A   1       5.018  -3.198  -1.636  0.00  0.00    -0.164 F 
ENDBRANCH  12  14
BRANCH   9  18
ATOM     18  C   UNK A   1       0.005  -2.832  -0.013  0.00  0.00    +0.200 C 
ATOM     19  C   UNK A   1      -0.120  -3.612  -1.324  0.00  0.00    +0.043 C 
BRANCH  18  20
ATOM     20  C   UNK A   1       0.019  -3.796   1.145  0.00  0.00    +0.378 C 
ATOM     21  O   UNK A   1       0.972  -3.834   1.888  0.00  0.00    -0.244 OA
ATOM     22  O   UNK A   1      -1.026  -4.613   1.352  0.00  0.00    -0.244 OA
ENDBRANCH  18  20
ENDBRANCH   9  18
TORSDOF 3
