REMARK  Name = ZINC00103466
REMARK  4 active torsions:
REMARK  status: ('A' for Active; 'I' for Inactive)
REMARK    1  A    between atoms: C_1  and  C_2
REMARK    2  A    between atoms: C_2  and  O_4
REMARK    3  A    between atoms: O_4  and  C_5
REMARK    4  A    between atoms: C_10  and  C_11
REMARK                            x       y       z     vdW  Elec       q    Type
REMARK                         _______ _______ _______ _____ _____    ______ ____
ROOT
ATOM      1  C   UNL     1      -2.511   0.979   0.086  0.00  0.00    +0.194 C 
ATOM      2  N   UNL     1      -2.260  -0.358   0.655  0.00  0.00    -0.316 N 
ATOM      3  C   UNL     1      -2.235  -0.450   2.023  0.00  0.00    +0.080 A 
ATOM      4  C   UNL     1      -2.880   0.471   2.862  0.00  0.00    +0.068 A 
ATOM      5  C   UNL     1      -2.760   0.220   4.289  0.00  0.00    -0.023 A 
ATOM      6  C   UNL     1      -2.038  -0.870   4.633  0.00  0.00    -0.005 A 
ATOM      7  S   UNL     1      -1.513  -1.575   3.092  0.00  0.00    -0.078 S 
ATOM      8  C   UNL     1      -1.750  -1.365   6.016  0.00  0.00    +0.043 C 
ATOM      9  C   UNL     1      -2.082  -0.244   7.011  0.00  0.00    +0.005 C 
ATOM     10  C   UNL     1      -3.462   0.324   6.669  0.00  0.00    +0.005 C 
ATOM     11  C   UNL     1      -3.393   1.106   5.356  0.00  0.00    +0.037 C 
ATOM     12  C   UNL     1      -3.606   1.591   2.220  0.00  0.00    +0.248 C 
ATOM     13  O   UNL     1      -4.282   2.365   2.872  0.00  0.00    -0.270 OA
ATOM     14  N   UNL     1      -3.486   1.718   0.881  0.00  0.00    -0.289 N 
ATOM     15  H   UNL     1      -2.118  -1.134   0.090  0.00  0.00    +0.149 HD
ATOM     16  H   UNL     1      -4.080   2.333   0.424  0.00  0.00    +0.151 HD
ENDROOT
BRANCH   1  22
ATOM     17  C   UNL     1      -1.236   3.137   0.030  0.00  0.00    +0.138 A 
ATOM     18  C   UNL     1      -0.043   3.845  -0.010  0.00  0.00    +0.047 A 
ATOM     19  C   UNL     1       1.160   3.167  -0.025  0.00  0.00    +0.004 A 
ATOM     20  C   UNL     1       1.177   1.785   0.000  0.00  0.00    +0.001 A 
ATOM     21  C   UNL     1      -0.010   1.077   0.040  0.00  0.00    +0.011 A 
ATOM     22  C   UNL     1      -1.217   1.751   0.049  0.00  0.00    +0.033 A 
BRANCH  17  23
ATOM     23  O   UNL     1      -2.422   3.802   0.044  0.00  0.00    -0.426 OA
BRANCH  23  25
ATOM     24  C   UNL     1      -4.273   4.843  -1.216  0.00  0.00    +0.136 C 
ATOM     25  C   UNL     1      -3.016   4.015  -1.141  0.00  0.00    +0.309 C 
ATOM     26  O   UNL     1      -2.542   3.544  -2.147  0.00  0.00    -0.251 OA
ENDBRANCH  23  25
ENDBRANCH  17  23
ENDBRANCH   1  22
TORSDOF 3
