REMARK  Name = ZINC21093024
REMARK  8 active torsions:
REMARK  status: ('A' for Active; 'I' for Inactive)
REMARK    1  A    between atoms: C_1  and  C_2
REMARK    2  A    between atoms: C_4  and  N_9
REMARK    3  A    between atoms: C_10  and  C_12
REMARK    4  A    between atoms: C_12  and  S_13
REMARK    5  A    between atoms: S_13  and  C_14
REMARK    6  A    between atoms: C_17  and  C_20
REMARK    7  A    between atoms: N_18  and  N_19
REMARK    8  A    between atoms: C_24  and  C_25
REMARK                            x       y       z     vdW  Elec       q    Type
REMARK                         _______ _______ _______ _____ _____    ______ ____
ROOT
ATOM      1  S   UNL     1      -1.133   1.363  -1.433  0.00  0.00    -0.075 S 
ENDROOT
BRANCH   1   2
ATOM      2  C   UNL     1      -0.109   0.717  -2.714  0.00  0.00    +0.209 A 
ATOM      3  N   UNL     1       1.053   0.125  -2.559  0.00  0.00    -0.121 NA
ATOM      4  N   UNL     1       1.527  -0.223  -3.701  0.00  0.00    -0.127 NA
ATOM      5  C   UNL     1       0.697   0.124  -4.656  0.00  0.00    +0.185 A 
ATOM      6  N   UNL     1      -0.380   0.732  -4.054  0.00  0.00    -0.224 N 
BRANCH   5   7
ATOM      7  C   UNL     1       0.882  -0.100  -6.106  0.00  0.00    +0.061 A 
ATOM      8  C   UNL     1      -0.036   0.282  -7.187  0.00  0.00    +0.053 A 
ATOM      9  C   UNL     1       0.546  -0.121  -8.328  0.00  0.00    +0.196 A 
ATOM     10  O   UNL     1       1.719  -0.706  -8.039  0.00  0.00    -0.467 OA
ATOM     11  C   UNL     1       1.940  -0.699  -6.717  0.00  0.00    +0.112 A 
ATOM     12  C   UNL     1       3.154  -1.261  -6.024  0.00  0.00    +0.087 C 
ENDBRANCH   5   7
BRANCH   6  13
ATOM     13  N   UNL     1      -1.487   1.246  -4.667  0.00  0.00    -0.295 N 
ATOM     14  H   UNL     1      -1.584   1.195  -5.761  0.00  0.00    +0.163 HD
ATOM     15  H   UNL     1      -2.282   1.712  -4.066  0.00  0.00    +0.163 HD
ENDBRANCH   6  13
ENDBRANCH   1   2
BRANCH   1  16
ATOM     16  C   UNL     1      -0.118   0.963   0.011  0.00  0.00    +0.173 C 
BRANCH  16  18
ATOM     17  N   UNL     1      -0.242   1.246   2.466  0.00  0.00    -0.285 N 
ATOM     18  C   UNL     1      -0.815   1.437   1.261  0.00  0.00    +0.227 C 
ATOM     19  O   UNL     1      -1.891   1.990   1.182  0.00  0.00    -0.275 OA
ATOM     20  H   UNL     1       0.691   0.669   2.546  0.00  0.00    +0.155 HD
BRANCH  17  24
ATOM     21  C   UNL     1      -1.216   0.911   7.273  0.00  0.00    +0.045 C 
ATOM     22  C   UNL     1      -1.321   1.641   5.959  0.00  0.00    -0.035 A 
ATOM     23  C   UNL     1      -0.736   1.109   4.826  0.00  0.00    +0.027 A 
ATOM     24  C   UNL     1      -0.833   1.782   3.615  0.00  0.00    +0.034 A 
ATOM     25  C   UNL     1      -1.514   2.991   3.548  0.00  0.00    +0.024 A 
ATOM     26  C   UNL     1      -2.101   3.515   4.683  0.00  0.00    +0.017 A 
ATOM     27  C   UNL     1      -2.003   2.842   5.888  0.00  0.00    +0.021 A 
ATOM     28 BR   UNL     1      -2.803   3.566   7.441  0.00  0.00    -0.050 Br
ENDBRANCH  17  24
ENDBRANCH  16  18
ENDBRANCH   1  16
TORSDOF 6
