REMARK  Name = ZINC65945779
REMARK  7 active torsions:
REMARK  status: ('A' for Active; 'I' for Inactive)
REMARK    1  A    between atoms: C_1  and  C_2
REMARK    2  A    between atoms: C_2  and  C_3
REMARK    3  A    between atoms: C_2  and  N_12
REMARK    4  A    between atoms: N_5  and  C_6
REMARK    5  A    between atoms: C_6  and  C_7
REMARK    6  A    between atoms: N_12  and  C_13
REMARK    7  A    between atoms: C_16  and  N_20
REMARK                            x       y       z     vdW  Elec       q    Type
REMARK                         _______ _______ _______ _____ _____    ______ ____
ROOT
ATOM      1  C   UNL     1      -0.019   1.526   0.010  0.00  0.00    +0.038 C 
ATOM      2  C   UNL     1       0.002  -0.004   0.002  0.00  0.00    +0.154 C 
ENDROOT
BRANCH   2   3
ATOM      3  C   UNL     1      -1.412  -0.526   0.013  0.00  0.00    +0.233 C 
ATOM      4  O   UNL     1      -1.790  -1.233   0.922  0.00  0.00    -0.274 OA
ATOM      5  N   UNL     1      -2.256  -0.206  -0.988  0.00  0.00    -0.307 N 
ATOM      6  H   UNL     1      -1.953   0.360  -1.716  0.00  0.00    +0.149 HD
BRANCH   5   7
ATOM      7  C   UNL     1      -3.630  -0.713  -0.978  0.00  0.00    +0.178 C 
BRANCH   7   8
ATOM      8  C   UNL     1      -4.359  -0.214  -2.199  0.00  0.00    +0.122 A 
ATOM      9  C   UNL     1      -4.422  -0.840  -3.388  0.00  0.00    +0.046 A 
ATOM     10  C   UNL     1      -5.202  -0.024  -4.239  0.00  0.00    +0.041 A 
ATOM     11  C   UNL     1      -5.569   1.052  -3.519  0.00  0.00    +0.195 A 
ATOM     12  O   UNL     1      -5.060   0.928  -2.283  0.00  0.00    -0.466 OA
ENDBRANCH   7   8
ENDBRANCH   5   7
ENDBRANCH   2   3
BRANCH   2  13
ATOM     13  N   UNL     1       0.711  -0.489   1.189  0.00  0.00    -0.332 N 
ATOM     14  H   UNL     1       0.213  -0.731   1.986  0.00  0.00    +0.147 HD
BRANCH  13  15
ATOM     15  C   UNL     1       2.103  -0.604   1.173  0.00  0.00    +0.046 A 
ATOM     16  C   UNL     1       2.818  -0.253   0.035  0.00  0.00    +0.026 A 
ATOM     17  C   UNL     1       4.194  -0.366   0.023  0.00  0.00    +0.034 A 
ATOM     18  C   UNL     1       4.862  -0.830   1.142  0.00  0.00    +0.128 A 
ATOM     19  C   UNL     1       4.154  -1.181   2.277  0.00  0.00    +0.054 A 
ATOM     20  C   UNL     1       2.777  -1.064   2.298  0.00  0.00    +0.064 A 
ATOM     21 CL   UNL     1       1.890  -1.498   3.726  0.00  0.00    -0.082 Cl
BRANCH  18  22
ATOM     22  N   UNL     1       6.337  -0.952   1.124  0.00  0.00    +0.056 N 
ATOM     23  O   UNL     1       6.957  -0.645   0.132  0.00  0.00    -0.126 OA
ATOM     24  O   UNL     1       6.921  -1.357   2.102  0.00  0.00    -0.126 OA
ENDBRANCH  18  22
ENDBRANCH  13  15
ENDBRANCH   2  13
TORSDOF 6
