REMARK  Name = ZINC04784661
REMARK  2 active torsions:
REMARK  status: ('A' for Active; 'I' for Inactive)
REMARK    1  A    between atoms: C_6  and  C_7
REMARK    2  A    between atoms: N_9  and  C_10
REMARK                            x       y       z     vdW  Elec       q    Type
REMARK                         _______ _______ _______ _____ _____    ______ ____
ROOT
ATOM      1  C   UNL     1       0.520   5.796  -2.384  0.00  0.00    +0.244 C 
ATOM      2  O   UNL     1       0.427   5.192  -3.435  0.00  0.00    -0.270 OA
ATOM      3  N   UNL     1       0.642   5.117  -1.226  0.00  0.00    -0.308 N 
ATOM      4  H   UNL     1       0.717   5.598  -0.387  0.00  0.00    +0.149 HD
ENDROOT
BRANCH   1  10
ATOM      5  C   UNL     1       0.608   7.966  -1.169  0.00  0.00    +0.017 A 
ATOM      6  C   UNL     1       0.590   9.345  -1.160  0.00  0.00    +0.048 A 
ATOM      7  C   UNL     1       0.466  10.046  -2.350  0.00  0.00    +0.142 A 
ATOM      8  C   UNL     1       0.357   9.357  -3.560  0.00  0.00    +0.076 A 
ATOM      9  C   UNL     1       0.380   7.977  -3.577  0.00  0.00    +0.040 A 
ATOM     10  C   UNL     1       0.500   7.271  -2.376  0.00  0.00    +0.039 A 
ATOM     11  N   UNL     1       0.231  10.084  -4.753  0.00  0.00    -0.280 N 
ATOM     12  C   UNL     1       0.532  11.401  -4.752  0.00  0.00    +0.255 C 
ATOM     13  O   UNL     1       0.402  12.056  -5.764  0.00  0.00    -0.272 OA
ATOM     14  C   UNL     1       1.030  12.052  -3.487  0.00  0.00    +0.325 C 
ATOM     15  O   UNL     1       0.450  11.404  -2.352  0.00  0.00    -0.481 OA
ATOM     16  H   UNL     1      -0.068   9.648  -5.567  0.00  0.00    +0.155 HD
ENDBRANCH   1  10
BRANCH   3  17
ATOM     17  C   UNL     1       0.662   3.652  -1.234  0.00  0.00    +0.079 C 
ATOM     18  C   UNL     1       1.402   3.145   0.006  0.00  0.00    +0.010 C 
ATOM     19  C   UNL     1       1.423   1.615  -0.003  0.00  0.00    +0.009 C 
ATOM     20  C   UNL     1      -0.013   1.086   0.008  0.00  0.00    -0.010 C 
ATOM     21  C   UNL     1      -0.729   1.579   1.267  0.00  0.00    +0.007 C 
ATOM     22  C   UNL     1      -0.750   3.109   1.275  0.00  0.00    -0.010 C 
ATOM     23  C   UNL     1       0.686   3.639   1.264  0.00  0.00    +0.009 C 
ATOM     24  C   UNL     1      -1.490   3.616   0.036  0.00  0.00    +0.009 C 
ATOM     25  C   UNL     1      -0.773   3.123  -1.223  0.00  0.00    +0.010 C 
ATOM     26  C   UNL     1      -0.753   1.593  -1.232  0.00  0.00    +0.009 C 
ENDBRANCH   3  17
TORSDOF 2
