REMARK  Name = ZINC39696808
REMARK  7 active torsions:
REMARK  status: ('A' for Active; 'I' for Inactive)
REMARK    1  A    between atoms: C_1  and  N_2
REMARK    2  A    between atoms: C_6  and  C_9
REMARK    3  A    between atoms: C_9  and  N_10
REMARK    4  A    between atoms: C_11  and  C_13
REMARK    5  A    between atoms: C_24  and  C_26
REMARK    6  A    between atoms: C_31  and  O_32
REMARK    7  A    between atoms: O_32  and  C_33
REMARK                            x       y       z     vdW  Elec       q    Type
REMARK                         _______ _______ _______ _____ _____    ______ ____
ROOT
ATOM      1  C   UNL     1       2.629  -6.547   2.764  0.00  0.00    +0.100 C 
ATOM      2  C   UNL     1       1.178  -7.064   2.890  0.00  0.00    +0.121 C 
ATOM      3  N   UNL     1       1.281  -8.263   3.755  0.00  0.00    -0.296 N 
ATOM      4  C   UNL     1       2.284  -7.891   4.782  0.00  0.00    +0.115 C 
ATOM      5  C   UNL     1       3.351  -7.092   4.008  0.00  0.00    -0.004 C 
ATOM      6  C   UNL     1       3.871  -5.940   4.863  0.00  0.00    -0.010 C 
ATOM      7  C   UNL     1       4.636  -6.506   6.063  0.00  0.00    -0.082 C 
ATOM      8  N   UNL     1       5.752  -7.332   5.588  0.00  0.00    +0.379 N 
ATOM      9  C   UNL     1       5.239  -8.489   4.845  0.00  0.00    -0.082 C 
ATOM     10  C   UNL     1       4.500  -8.007   3.594  0.00  0.00    -0.010 C 
ATOM     11  C   UNL     1       0.614  -9.428   3.635  0.00  0.00    +0.252 C 
ATOM     12  O   UNL     1       0.739 -10.289   4.484  0.00  0.00    -0.270 OA
ATOM     13  H   UNL     1       6.343  -6.781   4.984  0.00  0.00    -0.086 HD
ATOM     14  H   UNL     1       6.291  -7.654   6.379  0.00  0.00    -0.086 HD
ENDROOT
BRANCH  11  15
ATOM     15  C   UNL     1      -0.267  -9.657   2.475  0.00  0.00    +0.099 A 
ATOM     16  C   UNL     1      -0.998  -8.602   1.915  0.00  0.00    +0.020 A 
ATOM     17  C   UNL     1      -1.809  -8.870   0.827  0.00  0.00    +0.021 A 
ATOM     18  C   UNL     1      -1.875 -10.159   0.328  0.00  0.00    +0.114 A 
ATOM     19  N   UNL     1      -1.179 -11.138   0.871  0.00  0.00    -0.220 NA
ATOM     20  C   UNL     1      -0.384 -10.935   1.908  0.00  0.00    +0.233 A 
BRANCH  20  21
ATOM     21  O   UNL     1       0.318 -11.969   2.430  0.00  0.00    -0.437 OA
BRANCH  21  22
ATOM     22  C   UNL     1       0.105 -13.209   1.916  0.00  0.00    +0.130 A 
ATOM     23  C   UNL     1       0.695 -13.574   0.714  0.00  0.00    +0.048 A 
ATOM     24  C   UNL     1       0.477 -14.835   0.194  0.00  0.00    +0.023 A 
ATOM     25  C   UNL     1      -0.329 -15.734   0.869  0.00  0.00    +0.041 A 
ATOM     26  C   UNL     1      -0.918 -15.372   2.068  0.00  0.00    +0.023 A 
ATOM     27  C   UNL     1      -0.698 -14.114   2.595  0.00  0.00    +0.048 A 
ATOM     28 CL   UNL     1      -0.601 -17.317   0.212  0.00  0.00    -0.084 Cl
ENDBRANCH  21  22
ENDBRANCH  20  21
ENDBRANCH  11  15
BRANCH   1  30
ATOM     29  N   UNL     1       3.656  -4.382   2.151  0.00  0.00    -0.313 N 
ATOM     30  C   UNL     1       2.651  -5.041   2.762  0.00  0.00    +0.218 C 
ATOM     31  O   UNL     1       1.764  -4.420   3.309  0.00  0.00    -0.275 OA
ATOM     32  H   UNL     1       4.366  -4.878   1.714  0.00  0.00    +0.149 HD
BRANCH  29  33
ATOM     33  C   UNL     1       3.678  -2.917   2.149  0.00  0.00    +0.137 C 
BRANCH  33  39
ATOM     34  C   UNL     1       6.306   1.026   0.819  0.00  0.00    +0.105 C 
ATOM     35  N   UNL     1       6.152  -0.430   0.705  0.00  0.00    -0.301 NA
ATOM     36  C   UNL     1       6.019  -0.837  -0.701  0.00  0.00    +0.112 C 
ATOM     37  C   UNL     1       5.920  -2.363  -0.778  0.00  0.00    +0.175 C 
ATOM     38  O   UNL     1       4.819  -2.805   0.020  0.00  0.00    -0.372 OA
ATOM     39  C   UNL     1       4.916  -2.427   1.395  0.00  0.00    +0.149 C 
ATOM     40  C   UNL     1       5.004  -0.902   1.494  0.00  0.00    +0.117 C 
ENDBRANCH  33  39
ENDBRANCH  29  33
ENDBRANCH   1  30
TORSDOF 6
