REMARK  Name = ZINC64895895
REMARK  14 active torsions:
REMARK  status: ('A' for Active; 'I' for Inactive)
REMARK    1  A    between atoms: C_1  and  C_2
REMARK    2  A    between atoms: C_2  and  N_3
REMARK    3  A    between atoms: C_4  and  C_35
REMARK    4  A    between atoms: C_5  and  C_9
REMARK    5  A    between atoms: C_6  and  C_8
REMARK    6  A    between atoms: C_9  and  C_10
REMARK    7  A    between atoms: C_10  and  N_11
REMARK    8  A    between atoms: C_12  and  C_14
REMARK    9  A    between atoms: C_21  and  C_23
REMARK   10  A    between atoms: C_25  and  C_34
REMARK   11  A    between atoms: C_26  and  C_30
REMARK   12  A    between atoms: C_27  and  C_29
REMARK   13  A    between atoms: C_30  and  O_32
REMARK   14  A    between atoms: O_32  and  C_33
REMARK                            x       y       z     vdW  Elec       q    Type
REMARK                         _______ _______ _______ _____ _____    ______ ____
ROOT
ATOM      1  C   UNL     1      -8.638  -0.733   3.779  0.00  0.00    +0.092 C 
ATOM      2  C   UNL     1      -9.715   0.352   3.849  0.00  0.00    +0.016 C 
ATOM      3  C   UNL     1     -10.872  -0.131   4.726  0.00  0.00    +0.020 C 
ATOM      4  C   UNL     1     -10.357  -0.393   6.144  0.00  0.00    +0.108 C 
ATOM      5  N   UNL     1      -9.225  -1.326   6.072  0.00  0.00    -0.296 N 
ATOM      6  C   UNL     1      -8.097  -1.002   5.187  0.00  0.00    +0.120 C 
ATOM      7  C   UNL     1      -9.219  -2.458   6.803  0.00  0.00    +0.261 C 
ATOM      8  O   UNL     1      -8.336  -3.279   6.647  0.00  0.00    -0.269 OA
ENDROOT
BRANCH   7   9
ATOM      9  C   UNL     1     -10.288  -2.702   7.796  0.00  0.00    +0.111 C 
ATOM     10  N   UNL     1     -11.217  -1.869   8.160  0.00  0.00    -0.250 NA
ATOM     11  C   UNL     1     -12.051  -2.362   9.079  0.00  0.00    +0.049 C 
ATOM     12  C   UNL     1     -11.736  -3.632   9.427  0.00  0.00    +0.066 C 
ATOM     13  C   UNL     1     -10.520  -3.976   8.585  0.00  0.00    +0.078 C 
ATOM     14  C   UNL     1     -10.820  -5.148   7.648  0.00  0.00    +0.019 C 
ATOM     15  C   UNL     1     -13.209  -1.593   9.662  0.00  0.00    +0.066 C 
BRANCH  12  16
ATOM     16  C   UNL     1     -12.421  -4.488  10.399  0.00  0.00    +0.337 C 
ATOM     17  O   UNL     1     -13.394  -4.071  10.997  0.00  0.00    -0.245 OA
BRANCH  16  18
ATOM     18  O   UNL     1     -11.973  -5.739  10.629  0.00  0.00    -0.465 OA
ATOM     19  C   UNL     1     -12.689  -6.519  11.589  0.00  0.00    +0.280 C 
ENDBRANCH  16  18
ENDBRANCH  12  16
ENDBRANCH   7   9
BRANCH   1  21
ATOM     20  N   UNL     1      -6.447  -1.065   2.680  0.00  0.00    -0.315 N 
ATOM     21  C   UNL     1      -7.513  -0.269   2.889  0.00  0.00    +0.218 C 
ATOM     22  O   UNL     1      -7.569   0.822   2.361  0.00  0.00    -0.275 OA
ATOM     23  H   UNL     1      -6.403  -1.938   3.102  0.00  0.00    +0.149 HD
BRANCH  20  24
ATOM     24  C   UNL     1      -5.354  -0.614   1.815  0.00  0.00    +0.109 C 
BRANCH  24  25
ATOM     25  C   UNL     1      -4.277  -1.699   1.746  0.00  0.00    +0.057 C 
BRANCH  25  28
ATOM     26  N   UNL     1      -1.295  -0.323   0.160  0.00  0.00    -0.268 N 
ATOM     27  C   UNL     1      -2.057  -0.545   1.252  0.00  0.00    +0.040 A 
ATOM     28  C   UNL     1      -3.152  -1.235   0.857  0.00  0.00    -0.003 A 
ATOM     29  C   UNL     1      -3.057  -1.441  -0.523  0.00  0.00    +0.063 A 
ATOM     30  N   UNL     1      -1.947  -0.890  -0.943  0.00  0.00    -0.176 NA
ATOM     31  C   UNL     1      -4.062  -2.166  -1.380  0.00  0.00    +0.068 C 
ATOM     32  C   UNL     1      -1.744  -0.105   2.658  0.00  0.00    +0.065 C 
BRANCH  26  34
ATOM     33  C   UNL     1      -0.267   1.880  -0.103  0.00  0.00    +0.029 C 
ATOM     34  C   UNL     1      -0.015   0.390   0.133  0.00  0.00    +0.140 C 
ENDBRANCH  26  34
ENDBRANCH  25  28
ENDBRANCH  24  25
ENDBRANCH  20  24
ENDBRANCH   1  21
TORSDOF 8
