REMARK  Name = ZINC04360796
REMARK  7 active torsions:
REMARK  status: ('A' for Active; 'I' for Inactive)
REMARK    1  A    between atoms: C_1  and  C_2
REMARK    2  A    between atoms: C_4  and  O_26
REMARK    3  A    between atoms: C_6  and  O_25
REMARK    4  A    between atoms: C_8  and  O_24
REMARK    5  A    between atoms: C_10  and  N_13
REMARK    6  A    between atoms: N_13  and  C_14
REMARK    7  A    between atoms: C_19  and  N_20
REMARK                            x       y       z     vdW  Elec       q    Type
REMARK                         _______ _______ _______ _____ _____    ______ ____
ROOT
ATOM      1  C   UNL     1       4.018   3.233   0.313  0.00  0.00    +0.041 C 
ATOM      2  C   UNL     1       2.610   2.710   0.607  0.00  0.00    +0.149 C 
ATOM      3  C   UNL     1       1.664   3.129  -0.521  0.00  0.00    +0.174 C 
ATOM      4  C   UNL     1       0.271   2.551  -0.252  0.00  0.00    +0.178 C 
ATOM      5  C   UNL     1       0.380   1.028  -0.118  0.00  0.00    +0.192 C 
ATOM      6  C   UNL     1       1.376   0.690   0.994  0.00  0.00    +0.235 C 
ATOM      7  O   UNL     1       2.641   1.284   0.696  0.00  0.00    -0.351 OA
ENDROOT
BRANCH   6   8
ATOM      8  N   UNL     1       0.879   1.213   2.269  0.00  0.00    -0.315 N 
ATOM      9  H   UNL     1       0.438   2.076   2.301  0.00  0.00    +0.149 HD
BRANCH   8  10
ATOM     10  C   UNL     1       1.043   0.468   3.441  0.00  0.00    +0.060 A 
ATOM     11  C   UNL     1       1.779  -0.710   3.420  0.00  0.00    +0.027 A 
ATOM     12  C   UNL     1       1.942  -1.441   4.579  0.00  0.00    +0.022 A 
ATOM     13  C   UNL     1       1.365  -1.007   5.760  0.00  0.00    +0.043 A 
ATOM     14  C   UNL     1       0.627   0.163   5.783  0.00  0.00    +0.054 A 
ATOM     15  C   UNL     1       0.464   0.902   4.627  0.00  0.00    +0.148 A 
ATOM     16 CL   UNL     1       1.568  -1.932   7.215  0.00  0.00    -0.083 Cl
BRANCH  15  17
ATOM     17  N   UNL     1      -0.325   2.153   4.652  0.00  0.00    +0.058 N 
ATOM     18  O   UNL     1       0.030   3.111   3.987  0.00  0.00    -0.126 OA
ATOM     19  O   UNL     1      -1.329   2.226   5.337  0.00  0.00    -0.126 OA
ENDBRANCH  15  17
ENDBRANCH   8  10
ENDBRANCH   6   8
BRANCH   5  20
ATOM     20  O   UNL     1      -0.901   0.485   0.206  0.00  0.00    -0.385 OA
ATOM     21  H   UNL     1      -0.906  -0.477   0.308  0.00  0.00    +0.210 HD
ENDBRANCH   5  20
BRANCH   4  22
ATOM     22  O   UNL     1      -0.248   3.101   0.960  0.00  0.00    -0.386 OA
ATOM     23  H   UNL     1      -1.126   2.773   1.197  0.00  0.00    +0.210 HD
ENDBRANCH   4  22
BRANCH   3  24
ATOM     24  O   UNL     1       1.588   4.555  -0.575  0.00  0.00    -0.387 OA
ATOM     25  H   UNL     1       2.437   4.988  -0.740  0.00  0.00    +0.210 HD
ENDBRANCH   3  24
TORSDOF 6
