REMARK  Name = ZINC36270570
REMARK  8 active torsions:
REMARK  status: ('A' for Active; 'I' for Inactive)
REMARK    1  A    between atoms: C_1  and  C_2
REMARK    2  A    between atoms: C_2  and  O_3
REMARK    3  A    between atoms: O_3  and  C_4
REMARK    4  A    between atoms: C_9  and  C_10
REMARK    5  A    between atoms: C_11  and  C_20
REMARK    6  A    between atoms: C_14  and  N_19
REMARK    7  A    between atoms: C_20  and  N_21
REMARK    8  A    between atoms: C_25  and  C_28
REMARK                            x       y       z     vdW  Elec       q    Type
REMARK                         _______ _______ _______ _____ _____    ______ ____
ROOT
ATOM      1  C   UNL     1       2.008  -1.418  -3.473  0.00  0.00    +0.095 A 
ATOM      2  C   UNL     1       2.711  -1.797  -4.577  0.00  0.00    +0.035 A 
ATOM      3  N   UNL     1       3.017  -0.658  -5.269  0.00  0.00    -0.303 N 
ATOM      4  C   UNL     1       3.700  -0.445  -6.434  0.00  0.00    +0.115 A 
ATOM      5  C   UNL     1       3.867   0.812  -6.914  0.00  0.00    +0.041 A 
ATOM      6  C   UNL     1       3.337   1.914  -6.213  0.00  0.00    +0.028 A 
ATOM      7  C   UNL     1       2.658   1.709  -5.053  0.00  0.00    +0.048 A 
ATOM      8  C   UNL     1       2.492   0.396  -4.568  0.00  0.00    +0.138 A 
ATOM      9  N   UNL     1       1.883  -0.082  -3.491  0.00  0.00    -0.227 NA
ENDROOT
BRANCH   1  15
ATOM     10  C   UNL     1       1.684  -2.053  -1.079  0.00  0.00    +0.130 A 
ATOM     11  C   UNL     1       1.171  -2.904  -0.114  0.00  0.00    +0.046 A 
ATOM     12  C   UNL     1       0.453  -4.023  -0.489  0.00  0.00    +0.004 A 
ATOM     13  C   UNL     1       0.241  -4.301  -1.828  0.00  0.00    +0.001 A 
ATOM     14  C   UNL     1       0.747  -3.461  -2.800  0.00  0.00    +0.014 A 
ATOM     15  C   UNL     1       1.468  -2.327  -2.433  0.00  0.00    +0.044 A 
BRANCH  10  16
ATOM     16  O   UNL     1       2.391  -0.952  -0.711  0.00  0.00    -0.492 OA
BRANCH  16  18
ATOM     17  C   UNL     1       3.386   0.541   0.907  0.00  0.00    +0.048 C 
ATOM     18  C   UNL     1       2.572  -0.736   0.690  0.00  0.00    +0.226 C 
ENDBRANCH  16  18
ENDBRANCH  10  16
ENDBRANCH   1  15
BRANCH   5  19
ATOM     19  N   UNL     1       4.569   1.016  -8.110  0.00  0.00    -0.357 N 
ATOM     20  H   UNL     1       4.934   0.259  -8.593  0.00  0.00    +0.142 HD
ATOM     21  H   UNL     1       4.689   1.915  -8.454  0.00  0.00    +0.142 HD
ENDBRANCH   5  19
BRANCH   2  22
ATOM     22  C   UNL     1       3.081  -3.205  -4.964  0.00  0.00    -0.022 C 
BRANCH  22  23
ATOM     23  N   UNL     1       4.306  -3.602  -4.255  0.00  0.00    +0.384 N 
ATOM     24  C   UNL     1       5.422  -2.761  -4.704  0.00  0.00    -0.078 C 
ATOM     25  C   UNL     1       6.683  -3.114  -3.911  0.00  0.00    -0.018 C 
ATOM     26  C   UNL     1       7.027  -4.589  -4.142  0.00  0.00    +0.011 C 
ATOM     27  C   UNL     1       5.828  -5.452  -3.740  0.00  0.00    +0.086 C 
ATOM     28  C   UNL     1       4.599  -5.012  -4.539  0.00  0.00    -0.064 C 
ATOM     29  H   UNL     1       4.173  -3.480  -3.263  0.00  0.00    -0.081 HD
BRANCH  27  30
ATOM     30  C   UNL     1       6.128  -6.899  -4.034  0.00  0.00    +0.357 C 
ATOM     31  O   UNL     1       7.077  -7.446  -3.497  0.00  0.00    -0.246 OA
ATOM     32  O   UNL     1       5.423  -7.523  -4.808  0.00  0.00    -0.246 OA
ENDBRANCH  27  30
ENDBRANCH  22  23
ENDBRANCH   2  22
TORSDOF 7
