REMARK  Name = ZINC16901634
REMARK  6 active torsions:
REMARK  status: ('A' for Active; 'I' for Inactive)
REMARK    1  A    between atoms: C_1  and  C_2
REMARK    2  A    between atoms: C_5  and  N_9
REMARK    3  A    between atoms: C_6  and  C_8
REMARK    4  A    between atoms: N_9  and  C_10
REMARK    5  A    between atoms: N_15  and  C_18
REMARK    6  A    between atoms: C_21  and  O_24
REMARK                            x       y       z     vdW  Elec       q    Type
REMARK                         _______ _______ _______ _____ _____    ______ ____
ROOT
ATOM      1  C   UNL     1       0.017  -4.910  -1.136  0.00  0.00    +0.166 C 
ATOM      2  C   UNL     1       0.687  -6.293  -1.267  0.00  0.00    +0.128 C 
ATOM      3  C   UNL     1      -0.441  -7.192  -1.726  0.00  0.00    +0.228 C 
ATOM      4  O   UNL     1      -0.344  -8.379  -1.952  0.00  0.00    -0.275 OA
ATOM      5  N   UNL     1      -1.561  -6.468  -1.842  0.00  0.00    -0.209 N 
ATOM      6  C   UNL     1      -1.420  -5.169  -1.536  0.00  0.00    +0.247 C 
ATOM      7  O   UNL     1      -2.299  -4.336  -1.573  0.00  0.00    -0.273 OA
ENDROOT
BRANCH   5   8
ATOM      8  C   UNL     1      -2.784  -7.022  -2.251  0.00  0.00    +0.044 A 
ATOM      9  C   UNL     1      -3.335  -6.662  -3.473  0.00  0.00    +0.027 A 
ATOM     10  C   UNL     1      -4.538  -7.208  -3.875  0.00  0.00    +0.047 A 
ATOM     11  C   UNL     1      -5.195  -8.116  -3.059  0.00  0.00    +0.117 A 
ATOM     12  C   UNL     1      -4.645  -8.476  -1.837  0.00  0.00    +0.047 A 
ATOM     13  C   UNL     1      -3.440  -7.935  -1.437  0.00  0.00    +0.027 A 
BRANCH  11  14
ATOM     14  O   UNL     1      -6.380  -8.653  -3.455  0.00  0.00    -0.507 OA
ATOM     15  H   UNL     1      -6.290  -9.473  -3.961  0.00  0.00    +0.292 HD
ENDBRANCH  11  14
ENDBRANCH   5   8
BRANCH   1  16
ATOM     16  N   UNL     1       0.088  -4.431   0.246  0.00  0.00    -0.332 N 
ATOM     17  H   UNL     1       0.200  -5.063   0.974  0.00  0.00    +0.147 HD
BRANCH  16  22
ATOM     18  C   UNL     1      -0.292   1.119   1.347  0.00  0.00    +0.044 C 
ATOM     19  C   UNL     1      -0.191  -0.356   1.054  0.00  0.00    -0.050 A 
ATOM     20  C   UNL     1      -0.258  -0.806  -0.252  0.00  0.00    +0.005 A 
ATOM     21  C   UNL     1      -0.166  -2.157  -0.523  0.00  0.00    +0.023 A 
ATOM     22  C   UNL     1      -0.005  -3.064   0.517  0.00  0.00    +0.031 A 
ATOM     23  C   UNL     1       0.062  -2.608   1.828  0.00  0.00    -0.029 A 
ATOM     24  C   UNL     1      -0.025  -1.255   2.092  0.00  0.00    +0.008 A 
ATOM     25  C   UNL     1       0.235  -3.587   2.959  0.00  0.00    +0.045 C 
ENDBRANCH  16  22
ENDBRANCH   1  16
TORSDOF 4
