REMARK  Name = ZINC39073594
REMARK  2 active torsions:
REMARK  status: ('A' for Active; 'I' for Inactive)
REMARK    1  A    between atoms: C_2  and  C_3
REMARK    2  A    between atoms: C_7  and  C_9
REMARK                            x       y       z     vdW  Elec       q    Type
REMARK                         _______ _______ _______ _____ _____    ______ ____
ROOT
ATOM      1  C   UNL     1      -1.262  -0.757   0.010  0.00  0.00    +0.240 C 
ATOM      2  O   UNL     1      -2.323  -0.163   0.023  0.00  0.00    -0.271 OA
ATOM      3  N   UNL     1      -1.243  -2.104   0.003  0.00  0.00    -0.278 N 
ATOM      4  C   UNL     1      -0.462  -3.343  -0.005  0.00  0.00    +0.147 C 
ATOM      5  C   UNL     1      -1.991  -3.364   0.003  0.00  0.00    +0.196 C 
ENDROOT
BRANCH   1   7
ATOM      6  C   UNL     1      -0.016   1.326   0.009  0.00  0.00    +0.013 C 
ATOM      7  C   UNL     1       0.002  -0.004   0.002  0.00  0.00    +0.060 C 
ENDBRANCH   1   7
BRANCH   5   8
ATOM      8  C   UNL     1      -2.680  -3.750  -1.239  0.00  0.00    +0.087 C 
ATOM      9  N   UNL     1      -3.212  -4.047  -2.198  0.00  0.00    -0.195 NA
ENDBRANCH   5   8
TORSDOF 2
