REMARK  Name = ZINC65189453
REMARK  7 active torsions:
REMARK  status: ('A' for Active; 'I' for Inactive)
REMARK    1  A    between atoms: C_1  and  C_2
REMARK    2  A    between atoms: C_2  and  N_3
REMARK    3  A    between atoms: N_6  and  N_7
REMARK    4  A    between atoms: C_8  and  C_10
REMARK    5  A    between atoms: C_12  and  C_23
REMARK    6  A    between atoms: N_13  and  C_16
REMARK    7  A    between atoms: C_14  and  C_15
REMARK                            x       y       z     vdW  Elec       q    Type
REMARK                         _______ _______ _______ _____ _____    ______ ____
ROOT
ATOM      1  C   UNL     1       3.137  -0.776  -5.534  0.00  0.00    +0.059 A 
ATOM      2  C   UNL     1       3.077   0.687  -5.442  0.00  0.00    +0.036 A 
ATOM      3  C   UNL     1       3.691   1.161  -6.541  0.00  0.00    +0.022 A 
ATOM      4  N   UNL     1       4.121   0.107  -7.297  0.00  0.00    -0.316 N 
ATOM      5  C   UNL     1       3.797  -1.058  -6.698  0.00  0.00    +0.033 A 
ATOM      6  C   UNL     1       4.108  -2.435  -7.224  0.00  0.00    +0.064 C 
ATOM      7  C   UNL     1       3.874   2.618  -6.883  0.00  0.00    +0.064 C 
ENDROOT
BRANCH   4   8
ATOM      8  C   UNL     1       4.804   0.220  -8.516  0.00  0.00    +0.060 A 
ATOM      9  C   UNL     1       6.191   0.275  -8.533  0.00  0.00    +0.027 A 
ATOM     10  C   UNL     1       6.861   0.386  -9.736  0.00  0.00    +0.002 A 
ATOM     11  C   UNL     1       6.152   0.441 -10.922  0.00  0.00    +0.001 A 
ATOM     12  C   UNL     1       4.771   0.386 -10.909  0.00  0.00    +0.017 A 
ATOM     13  C   UNL     1       4.094   0.270  -9.709  0.00  0.00    +0.042 A 
ATOM     14 BR   UNL     1       2.205   0.188  -9.691  0.00  0.00    -0.048 Br
ENDBRANCH   4   8
BRANCH   1  16
ATOM     15  N   UNL     1       1.969  -1.311  -3.456  0.00  0.00    -0.229 N 
ATOM     16  C   UNL     1       2.600  -1.745  -4.565  0.00  0.00    +0.262 C 
ATOM     17  O   UNL     1       2.725  -2.939  -4.765  0.00  0.00    -0.269 OA
ATOM     18  H   UNL     1       1.869  -0.359  -3.296  0.00  0.00    +0.173 HD
BRANCH  15  22
ATOM     19  N   UNL     1       0.688  -0.476  -1.203  0.00  0.00    -0.298 N 
ATOM     20  C   UNL     1       0.827  -1.799  -1.425  0.00  0.00    +0.316 C 
ATOM     21  O   UNL     1       0.383  -2.599  -0.625  0.00  0.00    -0.251 OA
ATOM     22  N   UNL     1       1.458  -2.233  -2.534  0.00  0.00    -0.218 N 
ATOM     23  H   UNL     1       1.042   0.162  -1.842  0.00  0.00    +0.150 HD
ATOM     24  H   UNL     1       1.558  -3.185  -2.693  0.00  0.00    +0.174 HD
BRANCH  19  26
ATOM     25  C   UNL     1      -0.019   1.526   0.010  0.00  0.00    +0.024 C 
ATOM     26  C   UNL     1       0.002  -0.004   0.002  0.00  0.00    +0.102 C 
ENDBRANCH  19  26
ENDBRANCH  15  22
ENDBRANCH   1  16
TORSDOF 4
