REMARK  Name = ZINC20862141
REMARK  13 active torsions:
REMARK  status: ('A' for Active; 'I' for Inactive)
REMARK    1  A    between atoms: C_1  and  C_2
REMARK    2  A    between atoms: C_10  and  C_33
REMARK    3  A    between atoms: N_12  and  C_15
REMARK    4  A    between atoms: C_15  and  C_16
REMARK    5  A    between atoms: C_16  and  C_17
REMARK    6  A    between atoms: C_17  and  C_18
REMARK    7  A    between atoms: N_20  and  C_21
REMARK    8  A    between atoms: C_21  and  C_22
REMARK    9  A    between atoms: C_22  and  C_23
REMARK   10  A    between atoms: C_26  and  O_31
REMARK   11  A    between atoms: C_27  and  O_29
REMARK   12  A    between atoms: O_29  and  C_30
REMARK   13  A    between atoms: O_31  and  C_32
REMARK                            x       y       z     vdW  Elec       q    Type
REMARK                         _______ _______ _______ _____ _____    ______ ____
ROOT
ATOM      1  C   UNL     1       0.507   7.814   1.480  0.00  0.00    +0.033 C 
ENDROOT
BRANCH   1   2
ATOM      2  C   UNL     1       0.569   7.317   0.034  0.00  0.00    +0.148 C 
BRANCH   2  14
ATOM      3  C   UNL     1       1.700  -1.884  -0.025  0.00  0.00    +0.086 C 
ATOM      4  C   UNL     1       1.275  -0.439  -0.013  0.00  0.00    +0.105 A 
ATOM      5  C   UNL     1       2.108   0.616  -0.015  0.00  0.00    +0.071 A 
ATOM      6  C   UNL     1       1.306   1.782  -0.001  0.00  0.00    +0.094 A 
ATOM      7  C   UNL     1      -0.016   1.347   0.009  0.00  0.00    +0.154 A 
ATOM      8  O   UNL     1       0.002  -0.004   0.002  0.00  0.00    -0.458 OA
ATOM      9  C   UNL     1      -0.834   2.483   0.019  0.00  0.00    +0.080 A 
ATOM     10  C   UNL     1      -0.012   3.586   0.021  0.00  0.00    +0.118 A 
ATOM     11  N   UNL     1       1.306   3.153   0.006  0.00  0.00    -0.288 N 
ATOM     12  C   UNL     1       2.324   4.087   0.001  0.00  0.00    +0.132 A 
ATOM     13  N   UNL     1       2.083   5.353   0.010  0.00  0.00    -0.155 NA
ATOM     14  N   UNL     1       0.783   5.867   0.025  0.00  0.00    -0.226 N 
ATOM     15  C   UNL     1      -0.276   5.027   0.031  0.00  0.00    +0.291 A 
ATOM     16  O   UNL     1      -1.416   5.456   0.044  0.00  0.00    -0.264 OA
ATOM     17  C   UNL     1       3.754   3.613  -0.015  0.00  0.00    +0.088 C 
ENDBRANCH   2  14
ENDBRANCH   1   2
BRANCH   1  18
ATOM     18  C   UNL     1       0.283   9.328   1.489  0.00  0.00    +0.097 C 
BRANCH  18  19
ATOM     19  C   UNL     1       0.223   9.818   2.913  0.00  0.00    +0.213 C 
ATOM     20  O   UNL     1       0.347   9.034   3.830  0.00  0.00    -0.276 OA
ATOM     21  N   UNL     1       0.031  11.127   3.167  0.00  0.00    -0.315 N 
ATOM     22  H   UNL     1      -0.081  11.838   2.335  0.00  0.00    +0.149 HD
BRANCH  21  23
ATOM     23  C   UNL     1      -0.028  11.604   4.551  0.00  0.00    +0.109 C 
BRANCH  23  24
ATOM     24  C   UNL     1      -0.252  13.117   4.560  0.00  0.00    +0.054 C 
BRANCH  24  25
ATOM     25  C   UNL     1      -0.312  13.607   5.984  0.00  0.00    -0.042 A 
ATOM     26  C   UNL     1      -1.526  13.662   6.644  0.00  0.00    +0.007 A 
ATOM     27  C   UNL     1      -1.586  14.105   7.952  0.00  0.00    +0.049 A 
ATOM     28  C   UNL     1      -0.429  14.507   8.601  0.00  0.00    +0.161 A 
ATOM     29  C   UNL     1       0.792  14.458   7.935  0.00  0.00    +0.162 A 
ATOM     30  C   UNL     1       0.846  14.007   6.626  0.00  0.00    +0.053 A 
BRANCH  29  31
ATOM     31  O   UNL     1       1.929  14.851   8.568  0.00  0.00    -0.491 OA
ATOM     32  C   UNL     1       3.146  14.773   7.822  0.00  0.00    +0.277 C 
ENDBRANCH  29  31
BRANCH  28  33
ATOM     33  O   UNL     1      -0.487  14.948   9.886  0.00  0.00    -0.491 OA
ATOM     34  C   UNL     1      -1.774  14.972  10.507  0.00  0.00    +0.277 C 
ENDBRANCH  28  33
ENDBRANCH  24  25
ENDBRANCH  23  24
ENDBRANCH  21  23
ENDBRANCH  18  19
ENDBRANCH   1  18
TORSDOF 9
