REMARK  Name = ZINC37558028
REMARK  5 active torsions:
REMARK  status: ('A' for Active; 'I' for Inactive)
REMARK    1  A    between atoms: C_1  and  C_2
REMARK    2  A    between atoms: C_5  and  N_9
REMARK    3  A    between atoms: N_9  and  S_10
REMARK    4  A    between atoms: S_10  and  C_13
REMARK    5  A    between atoms: N_15  and  C_19
REMARK                            x       y       z     vdW  Elec       q    Type
REMARK                         _______ _______ _______ _____ _____    ______ ____
ROOT
ATOM      1  S   UNL     1       0.980  -4.891  -1.219  0.00  0.00    +0.077 S 
ATOM      2  O   UNL     1       0.872  -6.305  -1.130  0.00  0.00    -0.150 OA
ATOM      3  O   UNL     1       0.626  -4.173  -2.393  0.00  0.00    -0.150 OA
ENDROOT
BRANCH   1   4
ATOM      4  C   UNL     1       2.661  -4.492  -0.873  0.00  0.00    +0.167 A 
ATOM      5  C   UNL     1       3.655  -5.376  -0.626  0.00  0.00    +0.138 A 
ATOM      6  N   UNL     1       4.788  -4.675  -0.409  0.00  0.00    -0.271 N 
ATOM      7  N   UNL     1       4.484  -3.313  -0.525  0.00  0.00    -0.155 NA
ATOM      8  C   UNL     1       3.208  -3.200  -0.810  0.00  0.00    +0.165 A 
ATOM      9  N   UNL     1       2.513  -2.002  -1.013  0.00  0.00    -0.340 N 
ATOM     10  C   UNL     1       6.104  -5.241  -0.104  0.00  0.00    +0.172 C 
ATOM     11  H   UNL     1       1.582  -2.022  -1.282  0.00  0.00    +0.144 HD
ATOM     12  H   UNL     1       2.963  -1.153  -0.883  0.00  0.00    +0.144 HD
ENDBRANCH   1   4
BRANCH   1  13
ATOM     13  N   UNL     1       0.065  -4.267   0.012  0.00  0.00    -0.215 N 
ATOM     14  H   UNL     1      -0.542  -3.531  -0.160  0.00  0.00    +0.174 HD
BRANCH  13  19
ATOM     15  C   UNL     1       0.482  -6.437   5.236  0.00  0.00    +0.044 C 
ATOM     16  C   UNL     1       0.371  -5.861   3.848  0.00  0.00    -0.049 A 
ATOM     17  C   UNL     1       1.490  -5.789   3.039  0.00  0.00    +0.005 A 
ATOM     18  C   UNL     1       1.392  -5.261   1.766  0.00  0.00    +0.026 A 
ATOM     19  C   UNL     1       0.168  -4.802   1.299  0.00  0.00    +0.062 A 
ATOM     20  C   UNL     1      -0.956  -4.875   2.114  0.00  0.00    +0.040 A 
ATOM     21  C   UNL     1      -0.851  -5.409   3.384  0.00  0.00    +0.020 A 
ATOM     22 BR   UNL     1      -2.625  -4.251   1.483  0.00  0.00    -0.048 Br
ENDBRANCH  13  19
ENDBRANCH   1  13
TORSDOF 3
