REMARK  Name = ZINC36609497
REMARK  11 active torsions:
REMARK  status: ('A' for Active; 'I' for Inactive)
REMARK    1  A    between atoms: C_1  and  O_2
REMARK    2  A    between atoms: O_2  and  C_3
REMARK    3  A    between atoms: C_5  and  C_10
REMARK    4  A    between atoms: C_8  and  O_9
REMARK    5  A    between atoms: C_10  and  C_12
REMARK    6  A    between atoms: C_10  and  N_21
REMARK    7  A    between atoms: N_14  and  C_15
REMARK    8  A    between atoms: N_21  and  C_22
REMARK    9  A    between atoms: C_28  and  C_30
REMARK   10  A    between atoms: C_32  and  N_37
REMARK   11  A    between atoms: C_35  and  O_36
REMARK                            x       y       z     vdW  Elec       q    Type
REMARK                         _______ _______ _______ _____ _____    ______ ____
ROOT
ATOM      1  C   UNL     1       1.555  -0.187  -4.817  0.00  0.00    +0.198 C 
ENDROOT
BRANCH   1   4
ATOM      2  C   UNL     1      -0.856  -2.642  -3.258  0.00  0.00    +0.162 A 
ATOM      3  C   UNL     1      -0.120  -1.492  -3.494  0.00  0.00    +0.055 A 
ATOM      4  C   UNL     1       0.756  -1.439  -4.562  0.00  0.00    -0.014 A 
ATOM      5  C   UNL     1       0.901  -2.532  -5.396  0.00  0.00    +0.010 A 
ATOM      6  C   UNL     1       0.170  -3.683  -5.166  0.00  0.00    +0.049 A 
ATOM      7  C   UNL     1      -0.706  -3.744  -4.094  0.00  0.00    +0.158 A 
BRANCH   2   9
ATOM      8  C   UNL     1      -1.821  -1.527  -1.392  0.00  0.00    +0.277 C 
ATOM      9  O   UNL     1      -1.718  -2.696  -2.208  0.00  0.00    -0.491 OA
ENDBRANCH   2   9
BRANCH   7  10
ATOM     10  O   UNL     1      -1.421  -4.878  -3.863  0.00  0.00    -0.503 OA
ATOM     11  H   UNL     1      -2.277  -4.901  -4.314  0.00  0.00    +0.292 HD
ENDBRANCH   7  10
ENDBRANCH   1   4
BRANCH   1  12
ATOM     12  C   UNL     1       1.427   0.204  -6.267  0.00  0.00    +0.239 C 
ATOM     13  O   UNL     1       2.415   0.270  -6.967  0.00  0.00    -0.273 OA
ATOM     14  N   UNL     1       0.214   0.480  -6.786  0.00  0.00    -0.311 N 
ATOM     15  H   UNL     1      -0.576   0.427  -6.226  0.00  0.00    +0.149 HD
BRANCH  14  16
ATOM     16  C   UNL     1       0.089   0.860  -8.195  0.00  0.00    +0.073 C 
ATOM     17  C   UNL     1       0.332   2.364  -8.341  0.00  0.00    +0.022 C 
ATOM     18  C   UNL     1       0.202   2.760  -9.813  0.00  0.00    +0.002 C 
ATOM     19  C   UNL     1      -1.204   2.420 -10.311  0.00  0.00    +0.000 C 
ATOM     20  C   UNL     1      -1.447   0.916 -10.164  0.00  0.00    +0.002 C 
ATOM     21  C   UNL     1      -1.317   0.520  -8.693  0.00  0.00    +0.022 C 
ENDBRANCH  14  16
ENDBRANCH   1  12
BRANCH   1  22
ATOM     22  N   UNL     1       2.964  -0.434  -4.501  0.00  0.00    -0.251 N 
ATOM     23  C   UNL     1       3.879   0.537  -4.696  0.00  0.00    +0.255 C 
ATOM     24  O   UNL     1       5.015   0.392  -4.287  0.00  0.00    -0.269 OA
BRANCH  22  25
ATOM     25  C   UNL     1       3.360  -1.677  -3.997  0.00  0.00    +0.038 A 
ATOM     26  C   UNL     1       4.019  -2.583  -4.818  0.00  0.00    +0.023 A 
ATOM     27  C   UNL     1       4.410  -3.809  -4.317  0.00  0.00    +0.002 A 
ATOM     28  C   UNL     1       4.145  -4.136  -2.999  0.00  0.00    +0.000 A 
ATOM     29  C   UNL     1       3.488  -3.236  -2.179  0.00  0.00    +0.002 A 
ATOM     30  C   UNL     1       3.100  -2.006  -2.673  0.00  0.00    +0.023 A 
ENDBRANCH  22  25
BRANCH  23  31
ATOM     31  C   UNL     1       3.501   1.774  -5.404  0.00  0.00    +0.081 A 
ATOM     32  C   UNL     1       2.160   2.156  -5.486  0.00  0.00    +0.049 A 
ATOM     33  C   UNL     1       1.814   3.313  -6.149  0.00  0.00    +0.127 A 
ATOM     34  C   UNL     1       2.791   4.101  -6.736  0.00  0.00    +0.036 A 
ATOM     35  C   UNL     1       4.120   3.736  -6.663  0.00  0.00    +0.048 A 
ATOM     36  C   UNL     1       4.487   2.577  -5.994  0.00  0.00    +0.129 A 
BRANCH  33  37
ATOM     37  N   UNL     1       0.392   3.716  -6.235  0.00  0.00    +0.056 N 
ATOM     38  O   UNL     1      -0.457   3.058  -5.680  0.00  0.00    -0.126 OA
ATOM     39  O   UNL     1       0.080   4.702  -6.860  0.00  0.00    -0.126 OA
ENDBRANCH  33  37
BRANCH  36  40
ATOM     40  O   UNL     1       5.793   2.220  -5.916  0.00  0.00    -0.506 OA
ATOM     41  H   UNL     1       6.092   1.661  -6.647  0.00  0.00    +0.292 HD
ENDBRANCH  36  40
ENDBRANCH  23  31
ENDBRANCH   1  22
TORSDOF 10
