REMARK  Name = ZINC04126880
REMARK  9 active torsions:
REMARK  status: ('A' for Active; 'I' for Inactive)
REMARK    1  A    between atoms: C_10  and  O_11
REMARK    2  A    between atoms: O_11  and  C_12
REMARK    3  A    between atoms: C_12  and  C_13
REMARK    4  A    between atoms: N_15  and  N_16
REMARK    5  A    between atoms: C_17  and  C_19
REMARK    6  A    between atoms: C_19  and  S_20
REMARK    7  A    between atoms: S_20  and  C_21
REMARK    8  A    between atoms: C_24  and  C_28
REMARK    9  A    between atoms: C_25  and  N_27
REMARK                            x       y       z     vdW  Elec       q    Type
REMARK                         _______ _______ _______ _____ _____    ______ ____
ROOT
ATOM      1  N   UNL     1       9.579   0.631  -0.086  0.00  0.00    -0.234 N 
ATOM      2  C   UNL     1      10.832   0.135  -0.100  0.00  0.00    +0.239 C 
ATOM      3  O   UNL     1      11.009  -1.065  -0.107  0.00  0.00    -0.273 OA
ATOM      4  H   UNL     1       9.437   1.590  -0.080  0.00  0.00    +0.173 HD
ENDROOT
BRANCH   1   7
ATOM      5  C   UNL     1       7.228   0.256  -0.065  0.00  0.00    +0.267 C 
ATOM      6  O   UNL     1       7.051   1.456  -0.058  0.00  0.00    -0.271 OA
ATOM      7  N   UNL     1       8.481  -0.240  -0.080  0.00  0.00    -0.232 N 
ATOM      8  H   UNL     1       8.623  -1.199  -0.085  0.00  0.00    +0.173 HD
BRANCH   5   9
ATOM      9  C   UNL     1       6.047  -0.680  -0.059  0.00  0.00    +0.326 C 
BRANCH   9  10
ATOM     10  O   UNL     1       4.837   0.080  -0.043  0.00  0.00    -0.482 OA
BRANCH  10  20
ATOM     11  C   UNL     1      -0.016   1.357   0.009  0.00  0.00    +0.001 A 
ATOM     12  C   UNL     1       1.169   2.090   0.002  0.00  0.00    +0.001 A 
ATOM     13  C   UNL     1       2.379   1.467  -0.013  0.00  0.00    +0.012 A 
ATOM     14  C   UNL     1       2.437   0.064  -0.021  0.00  0.00    +0.024 A 
ATOM     15  C   UNL     1       1.233  -0.683  -0.013  0.00  0.00    -0.014 A 
ATOM     16  C   UNL     1       0.002  -0.004   0.002  0.00  0.00    +0.008 A 
ATOM     17  C   UNL     1       1.292  -2.087  -0.021  0.00  0.00    +0.009 A 
ATOM     18  C   UNL     1       2.501  -2.713  -0.035  0.00  0.00    +0.004 A 
ATOM     19  C   UNL     1       3.687  -1.984  -0.043  0.00  0.00    +0.046 A 
ATOM     20  C   UNL     1       3.671  -0.617  -0.036  0.00  0.00    +0.129 A 
ENDBRANCH  10  20
ENDBRANCH   9  10
ENDBRANCH   5   9
ENDBRANCH   1   7
BRANCH   2  21
ATOM     21  C   UNL     1      12.013   1.071  -0.107  0.00  0.00    +0.174 C 
BRANCH  21  22
ATOM     22  S   UNL     1      13.549   0.106  -0.126  0.00  0.00    -0.077 S 
BRANCH  22  23
ATOM     23  C   UNL     1      14.819   1.328  -0.133  0.00  0.00    +0.190 A 
ATOM     24  N   UNL     1      14.478   2.611  -0.118  0.00  0.00    -0.229 NA
ATOM     25  C   UNL     1      15.395   3.561  -0.122  0.00  0.00    +0.136 A 
ATOM     26  C   UNL     1      16.747   3.201  -0.142  0.00  0.00    +0.109 A 
ATOM     27  C   UNL     1      17.071   1.827  -0.157  0.00  0.00    +0.138 A 
ATOM     28  N   UNL     1      16.086   0.937  -0.146  0.00  0.00    -0.206 NA
BRANCH  27  29
ATOM     29  N   UNL     1      18.388   1.416  -0.178  0.00  0.00    -0.342 N 
ATOM     30  H   UNL     1      19.101   2.074  -0.182  0.00  0.00    +0.144 HD
ATOM     31  H   UNL     1      18.601   0.470  -0.188  0.00  0.00    +0.144 HD
ENDBRANCH  27  29
BRANCH  26  32
ATOM     32  C   UNL     1      17.774   4.199  -0.147  0.00  0.00    +0.104 C 
ATOM     33  N   UNL     1      18.588   4.991  -0.152  0.00  0.00    -0.191 NA
ENDBRANCH  26  32
ENDBRANCH  22  23
ENDBRANCH  21  22
ENDBRANCH   2  21
TORSDOF 9
