REMARK  Name = ZINC20500905
REMARK  7 active torsions:
REMARK  status: ('A' for Active; 'I' for Inactive)
REMARK    1  A    between atoms: C_1  and  C_2
REMARK    2  A    between atoms: C_2  and  O_3
REMARK    3  A    between atoms: O_3  and  C_4
REMARK    4  A    between atoms: C_4  and  C_6
REMARK    5  A    between atoms: C_7  and  C_23
REMARK    6  A    between atoms: C_12  and  C_14
REMARK    7  A    between atoms: C_23  and  N_24
REMARK                            x       y       z     vdW  Elec       q    Type
REMARK                         _______ _______ _______ _____ _____    ______ ____
ROOT
ATOM      1  C   UNL     1       1.546  -2.360   2.384  0.00  0.00    +0.079 C 
ATOM      2  C   UNL     1       1.513  -3.685   2.645  0.00  0.00    +0.038 C 
ATOM      3  N   UNL     1       2.089  -4.195   3.773  0.00  0.00    -0.271 N 
ATOM      4  C   UNL     1       2.716  -3.447   4.690  0.00  0.00    +0.304 C 
ATOM      5  O   UNL     1       3.198  -3.992   5.664  0.00  0.00    -0.252 OA
ATOM      6  N   UNL     1       2.830  -2.110   4.569  0.00  0.00    -0.288 N 
ATOM      7  C   UNL     1       2.247  -1.461   3.382  0.00  0.00    +0.144 C 
ATOM      8  H   UNL     1       2.041  -5.153   3.919  0.00  0.00    +0.156 HD
ATOM      9  H   UNL     1       3.288  -1.587   5.245  0.00  0.00    +0.151 HD
ENDROOT
BRANCH   7  10
ATOM     10  C   UNL     1       3.349  -0.732   2.657  0.00  0.00    -0.019 A 
ATOM     11  C   UNL     1       4.548  -1.371   2.403  0.00  0.00    +0.009 A 
ATOM     12  C   UNL     1       5.561  -0.707   1.738  0.00  0.00    +0.050 A 
ATOM     13  C   UNL     1       5.377   0.602   1.323  0.00  0.00    +0.166 A 
ATOM     14  C   UNL     1       4.169   1.246   1.579  0.00  0.00    +0.167 A 
ATOM     15  C   UNL     1       3.155   0.572   2.241  0.00  0.00    +0.055 A 
ATOM     16  O   UNL     1       4.235   2.514   1.077  0.00  0.00    -0.453 OA
ATOM     17  C   UNL     1       5.637   2.774   0.875  0.00  0.00    +0.466 C 
ATOM     18  O   UNL     1       6.200   1.466   0.662  0.00  0.00    -0.453 OA
ENDBRANCH   7  10
BRANCH   1  19
ATOM     19  C   UNL     1       0.950  -1.831   1.215  0.00  0.00    +0.339 C 
ATOM     20  O   UNL     1       1.640  -1.559   0.250  0.00  0.00    -0.245 OA
BRANCH  19  21
ATOM     21  O   UNL     1      -0.383  -1.626   1.170  0.00  0.00    -0.462 OA
BRANCH  21  23
ATOM     22  C   UNL     1      -2.432  -0.927   0.096  0.00  0.00    +0.048 C 
ATOM     23  C   UNL     1      -0.917  -1.088  -0.042  0.00  0.00    +0.229 C 
ENDBRANCH  21  23
ENDBRANCH  19  21
ENDBRANCH   1  19
BRANCH   2  24
ATOM     24  C   UNL     1       0.830  -4.615   1.676  0.00  0.00    +0.136 C 
BRANCH  24  25
ATOM     25  N   UNL     1       1.820  -5.534   1.099  0.00  0.00    -0.295 NA
ATOM     26  C   UNL     1       2.815  -4.806   0.309  0.00  0.00    +0.095 C 
ATOM     27  C   UNL     1       4.060  -5.678   0.109  0.00  0.00    +0.084 C 
ATOM     28  S   UNL     1       3.570  -7.174  -0.805  0.00  0.00    -0.158 S 
ATOM     29  C   UNL     1       2.136  -7.771   0.142  0.00  0.00    +0.084 C 
ATOM     30  C   UNL     1       1.166  -6.601   0.338  0.00  0.00    +0.095 C 
ENDBRANCH  24  25
ENDBRANCH   2  24
TORSDOF 6
