REMARK  Name = ZINC01291490
REMARK  5 active torsions:
REMARK  status: ('A' for Active; 'I' for Inactive)
REMARK    1  A    between atoms: C_11  and  C_13
REMARK    2  A    between atoms: C_13  and  S_14
REMARK    3  A    between atoms: S_14  and  C_15
REMARK    4  A    between atoms: C_18  and  C_21
REMARK    5  A    between atoms: N_19  and  N_20
REMARK                            x       y       z     vdW  Elec       q    Type
REMARK                         _______ _______ _______ _____ _____    ______ ____
ROOT
ATOM      1  S   UNL     1      -2.903   4.223   0.272  0.00  0.00    -0.075 S 
ENDROOT
BRANCH   1   2
ATOM      2  C   UNL     1      -2.622   5.957   0.399  0.00  0.00    +0.209 A 
ATOM      3  N   UNL     1      -1.454   6.561   0.390  0.00  0.00    -0.121 NA
ATOM      4  N   UNL     1      -1.613   7.831   0.501  0.00  0.00    -0.127 NA
ATOM      5  C   UNL     1      -2.892   8.117   0.587  0.00  0.00    +0.183 A 
ATOM      6  N   UNL     1      -3.577   6.926   0.518  0.00  0.00    -0.224 N 
BRANCH   5   7
ATOM      7  C   UNL     1      -3.484   9.465   0.725  0.00  0.00    +0.039 A 
ATOM      8  C   UNL     1      -2.718  10.608   0.466  0.00  0.00    +0.014 A 
ATOM      9  C   UNL     1      -3.320  11.846   0.609  0.00  0.00    +0.020 A 
ATOM     10  C   UNL     1      -4.645  11.914   1.000  0.00  0.00    +0.111 A 
ATOM     11  N   UNL     1      -5.342  10.819   1.236  0.00  0.00    -0.263 NA
ATOM     12  C   UNL     1      -4.816   9.619   1.109  0.00  0.00    +0.122 A 
ENDBRANCH   5   7
BRANCH   6  13
ATOM     13  N   UNL     1      -4.931   6.749   0.563  0.00  0.00    -0.295 N 
ATOM     14  H   UNL     1      -5.248   6.627   1.513  0.00  0.00    +0.163 HD
ATOM     15  H   UNL     1      -5.411   7.516   0.117  0.00  0.00    +0.163 HD
ENDBRANCH   6  13
ENDBRANCH   1   2
BRANCH   1  16
ATOM     16  C   UNL     1      -1.195   3.637   0.141  0.00  0.00    +0.173 C 
BRANCH  16  27
ATOM     17  C   UNL     1      -0.013  -2.703   0.090  0.00  0.00    +0.000 A 
ATOM     18  C   UNL     1      -1.176  -2.005   0.360  0.00  0.00    +0.002 A 
ATOM     19  C   UNL     1      -1.172  -0.625   0.337  0.00  0.00    +0.024 A 
ATOM     20  C   UNL     1      -0.000   0.063   0.043  0.00  0.00    +0.039 A 
ATOM     21  C   UNL     1       1.166  -0.637  -0.225  0.00  0.00    -0.026 A 
ATOM     22  C   UNL     1       1.153  -2.021  -0.201  0.00  0.00    +0.005 A 
ATOM     23  C   UNL     1       2.455   0.074  -0.542  0.00  0.00    +0.038 C 
ATOM     24  C   UNL     1       2.177   1.502  -1.012  0.00  0.00    +0.024 C 
ATOM     25  C   UNL     1       1.259   2.190   0.006  0.00  0.00    +0.114 C 
ATOM     26  N   UNL     1      -0.018   1.464   0.021  0.00  0.00    -0.270 N 
ATOM     27  C   UNL     1      -1.188   2.135   0.019  0.00  0.00    +0.230 C 
ATOM     28  O   UNL     1      -2.234   1.529  -0.081  0.00  0.00    -0.274 OA
ENDBRANCH  16  27
ENDBRANCH   1  16
TORSDOF 5
