REMARK  Name = ZINC38671057
REMARK  8 active torsions:
REMARK  status: ('A' for Active; 'I' for Inactive)
REMARK    1  A    between atoms: C_1  and  C_2
REMARK    2  A    between atoms: C_3  and  C_14
REMARK    3  A    between atoms: C_4  and  C_7
REMARK    4  A    between atoms: N_16  and  C_17
REMARK    5  A    between atoms: C_17  and  C_18
REMARK    6  A    between atoms: C_18  and  C_20
REMARK    7  A    between atoms: C_18  and  N_31
REMARK    8  A    between atoms: N_29  and  C_30
REMARK                            x       y       z     vdW  Elec       q    Type
REMARK                         _______ _______ _______ _____ _____    ______ ____
ROOT
ATOM      1  C   UNL     1      -4.770   0.452   2.603  0.00  0.00    -0.020 C 
ENDROOT
BRANCH   1   2
ATOM      2  C   UNL     1      -6.266   0.607   2.701  0.00  0.00    -0.059 A 
ATOM      3  C   UNL     1      -7.081  -0.507   2.624  0.00  0.00    +0.004 A 
ATOM      4  C   UNL     1      -8.451  -0.365   2.712  0.00  0.00    +0.023 A 
ATOM      5  C   UNL     1      -9.010   0.897   2.879  0.00  0.00    +0.033 A 
ATOM      6  C   UNL     1      -8.192   2.013   2.960  0.00  0.00    -0.026 A 
ATOM      7  C   UNL     1      -6.818   1.861   2.873  0.00  0.00    +0.007 A 
ATOM      8  C   UNL     1      -8.762   3.394   3.151  0.00  0.00    +0.038 C 
ATOM      9  C   UNL     1     -10.231   3.430   2.731  0.00  0.00    +0.024 C 
ATOM     10  C   UNL     1     -10.976   2.288   3.433  0.00  0.00    +0.105 C 
ATOM     11  N   UNL     1     -10.402   1.020   2.962  0.00  0.00    -0.333 N 
ATOM     12  C   UNL     1     -11.272  -0.096   2.584  0.00  0.00    +0.129 C 
ENDBRANCH   1   2
BRANCH   1  13
ATOM     13  N   UNL     1      -4.352  -0.747   3.341  0.00  0.00    +0.385 N 
ATOM     14  C   UNL     1      -4.785  -0.635   4.739  0.00  0.00    -0.078 C 
ATOM     15  C   UNL     1      -4.425  -1.916   5.494  0.00  0.00    -0.019 C 
ATOM     16  C   UNL     1      -2.908  -2.122   5.442  0.00  0.00    -0.004 C 
ATOM     17  C   UNL     1      -2.458  -2.164   3.979  0.00  0.00    -0.019 C 
ATOM     18  C   UNL     1      -2.891  -0.873   3.281  0.00  0.00    -0.078 C 
ATOM     19  H   UNL     1      -4.777  -1.562   2.925  0.00  0.00    -0.081 HD
ENDBRANCH   1  13
BRANCH   1  20
ATOM     20  C   UNL     1      -4.367   0.312   1.133  0.00  0.00    +0.094 C 
BRANCH  20  23
ATOM     21  C   UNL     1      -4.348   1.688  -0.877  0.00  0.00    +0.250 C 
ATOM     22  O   UNL     1      -3.757   0.792  -1.450  0.00  0.00    -0.270 OA
ATOM     23  N   UNL     1      -4.698   1.546   0.416  0.00  0.00    -0.312 N 
ATOM     24  H   UNL     1      -5.169   2.261   0.873  0.00  0.00    +0.149 HD
BRANCH  21  27
ATOM     25  C   UNL     1      -6.974   2.227  -2.483  0.00  0.00    +0.090 C 
ATOM     26  C   UNL     1      -5.821   3.180  -2.302  0.00  0.00    +0.147 A 
ATOM     27  C   UNL     1      -4.680   2.929  -1.598  0.00  0.00    +0.106 A 
ATOM     28  C   UNL     1      -3.847   4.137  -1.696  0.00  0.00    +0.127 A 
ATOM     29  N   UNL     1      -4.512   5.000  -2.422  0.00  0.00    -0.077 NA
ATOM     30  O   UNL     1      -5.738   4.413  -2.809  0.00  0.00    -0.359 OA
BRANCH  28  31
ATOM     31  C   UNL     1      -2.509   4.339  -1.088  0.00  0.00    +0.023 A 
ATOM     32  C   UNL     1      -1.920   3.321  -0.340  0.00  0.00    +0.011 A 
ATOM     33  C   UNL     1      -0.675   3.515   0.223  0.00  0.00    +0.001 A 
ATOM     34  C   UNL     1      -0.011   4.716   0.046  0.00  0.00    +0.001 A 
ATOM     35  C   UNL     1      -0.590   5.730  -0.694  0.00  0.00    +0.020 A 
ATOM     36  C   UNL     1      -1.834   5.546  -1.268  0.00  0.00    +0.050 A 
ATOM     37 CL   UNL     1      -2.557   6.816  -2.204  0.00  0.00    -0.083 Cl
ENDBRANCH  28  31
ENDBRANCH  21  27
ENDBRANCH  20  23
ENDBRANCH   1  20
TORSDOF 6
