REMARK  Name = ZINC19810121
REMARK  5 active torsions:
REMARK  status: ('A' for Active; 'I' for Inactive)
REMARK    1  A    between atoms: C_1  and  C_2
REMARK    2  A    between atoms: C_2  and  C_3
REMARK    3  A    between atoms: C_9  and  C_11
REMARK    4  A    between atoms: C_14  and  C_17
REMARK    5  A    between atoms: C_17  and  N_18
REMARK                            x       y       z     vdW  Elec       q    Type
REMARK                         _______ _______ _______ _____ _____    ______ ____
ROOT
ATOM      1  C   UNL     1      -3.942  -1.487   0.732  0.00  0.00    +0.017 A 
ATOM      2  C   UNL     1      -3.516  -1.240  -0.575  0.00  0.00    +0.012 A 
ATOM      3  C   UNL     1      -2.243  -0.762  -0.803  0.00  0.00    +0.002 A 
ATOM      4  C   UNL     1      -1.388  -0.527   0.259  0.00  0.00    -0.064 A 
ATOM      5  C   UNL     1      -1.801  -0.774   1.556  0.00  0.00    +0.002 A 
ATOM      6  C   UNL     1      -3.074  -1.248   1.799  0.00  0.00    +0.012 A 
ENDROOT
BRANCH   1  13
ATOM      7  C   UNL     1      -7.346  -2.683   0.148  0.00  0.00    +0.048 A 
ATOM      8  C   UNL     1      -7.803  -2.938   1.408  0.00  0.00    +0.093 A 
ATOM      9  C   UNL     1      -6.948  -2.705   2.503  0.00  0.00    +0.252 A 
ATOM     10  O   UNL     1      -7.324  -2.922   3.643  0.00  0.00    -0.268 OA
ATOM     11  N   UNL     1      -5.703  -2.241   2.265  0.00  0.00    -0.307 N 
ATOM     12  H   UNL     1      -5.014  -2.059   3.103  0.00  0.00    +0.170 HD
ATOM     13  C   UNL     1      -5.304  -2.000   0.984  0.00  0.00    +0.141 A 
ATOM     14  N   UNL     1      -6.111  -2.221  -0.033  0.00  0.00    -0.234 NA
BRANCH   7  16
ATOM     15  C   UNL     1      -8.942  -1.620  -1.424  0.00  0.00    +0.010 C 
ATOM     16  C   UNL     1      -8.241  -2.925  -1.040  0.00  0.00    +0.052 C 
ENDBRANCH   7  16
ENDBRANCH   1  13
BRANCH   4  17
ATOM     17  C   UNL     1       0.002  -0.004   0.002  0.00  0.00    -0.043 C 
BRANCH  17  18
ATOM     18  N   UNL     1      -0.018   1.465   0.010  0.00  0.00    +0.385 N 
ATOM     19  C   UNL     1      -0.809   1.987  -1.113  0.00  0.00    -0.072 C 
ATOM     20  C   UNL     1      -1.135   3.466  -0.868  0.00  0.00    +0.035 C 
ATOM     21  C   UNL     1       0.148   4.173  -0.498  0.00  0.00    +0.017 A 
ATOM     22  C   UNL     1       1.263   3.512  -0.110  0.00  0.00    -0.036 A 
ATOM     23  C   UNL     1       2.278   4.508   0.154  0.00  0.00    +0.001 A 
ATOM     24  C   UNL     1       3.608   4.421   0.575  0.00  0.00    +0.010 A 
ATOM     25  C   UNL     1       4.291   5.603   0.724  0.00  0.00    +0.001 A 
ATOM     26  C   UNL     1       3.701   6.831   0.472  0.00  0.00    +0.002 A 
ATOM     27  C   UNL     1       2.387   6.947   0.053  0.00  0.00    +0.026 A 
ATOM     28  C   UNL     1       1.669   5.764  -0.106  0.00  0.00    +0.047 A 
ATOM     29  N   UNL     1       0.383   5.520  -0.496  0.00  0.00    -0.358 N 
ATOM     30  H   UNL     1      -0.417   6.218  -0.784  0.00  0.00    +0.166 HD
ATOM     31  C   UNL     1       1.349   2.011   0.000  0.00  0.00    -0.040 C 
ATOM     32  H   UNL     1      -0.504   1.792   0.941  0.00  0.00    -0.081 HD
ENDBRANCH  17  18
ENDBRANCH   4  17
TORSDOF 4
