REMARK  Name = ZINC08914870
REMARK  5 active torsions:
REMARK  status: ('A' for Active; 'I' for Inactive)
REMARK    1  A    between atoms: C_4  and  C_7
REMARK    2  A    between atoms: N_8  and  N_9
REMARK    3  A    between atoms: C_14  and  C_17
REMARK    4  A    between atoms: C_17  and  C_18
REMARK    5  A    between atoms: N_20  and  C_21
REMARK                            x       y       z     vdW  Elec       q    Type
REMARK                         _______ _______ _______ _____ _____    ______ ____
ROOT
ATOM      1  N   UNL     1       2.249   1.098  -0.026  0.00  0.00    -0.127 NA
ATOM      2  C   UNL     1       3.378   1.778  -0.028  0.00  0.00    +0.183 C 
ATOM      3  N   UNL     1       4.666   1.289  -0.029  0.00  0.00    -0.263 N 
ATOM      4  C   UNL     1       5.724   2.081  -0.036  0.00  0.00    +0.233 C 
ATOM      5  O   UNL     1       6.856   1.645  -0.042  0.00  0.00    -0.274 OA
ATOM      6  C   UNL     1       5.434   3.573  -0.029  0.00  0.00    +0.149 C 
ATOM      7  S   UNL     1       3.598   3.551  -0.022  0.00  0.00    -0.075 S 
ATOM      8  H   UNL     1       4.801   0.328  -0.029  0.00  0.00    +0.157 HD
ENDROOT
BRANCH   1  10
ATOM      9  C   UNL     1       0.002   1.049  -0.017  0.00  0.00    +0.143 C 
ATOM     10  N   UNL     1       1.121   1.722  -0.019  0.00  0.00    -0.155 NA
BRANCH   9  14
ATOM     11  C   UNL     1      -3.710   3.101  -0.011  0.00  0.00    +0.000 A 
ATOM     12  C   UNL     1      -3.688   1.717  -0.017  0.00  0.00    +0.001 A 
ATOM     13  C   UNL     1      -2.486   1.043  -0.019  0.00  0.00    +0.009 A 
ATOM     14  C   UNL     1      -1.286   1.761  -0.015  0.00  0.00    -0.005 A 
ATOM     15  C   UNL     1      -1.316   3.159  -0.004  0.00  0.00    +0.009 A 
ATOM     16  C   UNL     1      -2.526   3.819  -0.008  0.00  0.00    +0.001 A 
ENDBRANCH   9  14
ENDBRANCH   1  10
BRANCH   6  17
ATOM     17  C   UNL     1       5.975   4.250  -1.290  0.00  0.00    +0.120 C 
BRANCH  17  18
ATOM     18  C   UNL     1       5.611   5.712  -1.271  0.00  0.00    +0.219 C 
ATOM     19  O   UNL     1       4.980   6.168  -0.340  0.00  0.00    -0.275 OA
ATOM     20  N   UNL     1       5.986   6.514  -2.287  0.00  0.00    -0.285 N 
ATOM     21  H   UNL     1       6.547   6.165  -2.998  0.00  0.00    +0.155 HD
BRANCH  20  22
ATOM     22  C   UNL     1       5.565   7.848  -2.318  0.00  0.00    +0.036 A 
ATOM     23  C   UNL     1       5.285   8.461  -3.532  0.00  0.00    +0.043 A 
ATOM     24  C   UNL     1       4.863   9.777  -3.559  0.00  0.00    +0.044 A 
ATOM     25  C   UNL     1       4.733  10.488  -2.379  0.00  0.00    +0.040 A 
ATOM     26  C   UNL     1       5.018   9.881  -1.169  0.00  0.00    +0.044 A 
ATOM     27  C   UNL     1       5.434   8.563  -1.135  0.00  0.00    +0.043 A 
ATOM     28 CL   UNL     1       4.853  10.776   0.310  0.00  0.00    -0.083 Cl
ATOM     29 CL   UNL     1       4.505  10.542  -5.076  0.00  0.00    -0.083 Cl
ENDBRANCH  20  22
ENDBRANCH  17  18
ENDBRANCH   6  17
TORSDOF 5
