REMARK  Name = ZINC00085965
REMARK  5 active torsions:
REMARK  status: ('A' for Active; 'I' for Inactive)
REMARK    1  A    between atoms: C_1  and  O_2
REMARK    2  A    between atoms: O_2  and  C_3
REMARK    3  A    between atoms: C_5  and  C_11
REMARK    4  A    between atoms: C_8  and  O_9
REMARK    5  A    between atoms: C_13  and  N_20
REMARK                            x       y       z     vdW  Elec       q    Type
REMARK                         _______ _______ _______ _____ _____    ______ ____
ROOT
ATOM      1  C   UNL     1      -1.222   1.752   0.017  0.00  0.00    +0.163 A 
ATOM      2  C   UNL     1      -0.013   1.076   0.008  0.00  0.00    +0.055 A 
ATOM      3  C   UNL     1       1.175   1.783   0.000  0.00  0.00    -0.020 A 
ATOM      4  C   UNL     1       1.160   3.165   0.008  0.00  0.00    +0.029 A 
ATOM      5  C   UNL     1      -0.043   3.847   0.024  0.00  0.00    +0.086 A 
ATOM      6  C   UNL     1      -1.238   3.143   0.031  0.00  0.00    +0.177 A 
ATOM      7 CL   UNL     1      -0.058   5.583   0.034  0.00  0.00    -0.080 Cl
ENDROOT
BRANCH   3   8
ATOM      8  C   UNL     1       2.489   1.045  -0.016  0.00  0.00    +0.133 C 
ATOM      9  C   UNL     1       3.034   1.015  -1.444  0.00  0.00    +0.195 C 
ATOM     10  C   UNL     1       4.463   0.460  -1.413  0.00  0.00    +0.043 C 
ATOM     11  C   UNL     1       5.357   1.479  -0.702  0.00  0.00    +0.098 C 
ATOM     12  C   UNL     1       4.721   1.902   0.591  0.00  0.00    +0.214 C 
ATOM     13  O   UNL     1       5.418   2.441   1.424  0.00  0.00    -0.276 OA
ATOM     14  N   UNL     1       3.430   1.718   0.871  0.00  0.00    -0.306 N 
ATOM     15  H   UNL     1       3.097   2.054   1.718  0.00  0.00    +0.149 HD
BRANCH   9  16
ATOM     16  N   UNL     1       3.042   2.371  -1.997  0.00  0.00    +0.028 N 
ATOM     17  O   UNL     1       3.692   3.246  -1.454  0.00  0.00    -0.131 OA
ATOM     18  O   UNL     1       2.397   2.624  -2.999  0.00  0.00    -0.131 OA
ENDBRANCH   9  16
ENDBRANCH   3   8
BRANCH   1  20
ATOM     19  C   UNL     1      -2.299  -0.368   0.011  0.00  0.00    +0.277 C 
ATOM     20  O   UNL     1      -2.391   1.057   0.019  0.00  0.00    -0.491 OA
ENDBRANCH   1  20
BRANCH   6  21
ATOM     21  O   UNL     1      -2.423   3.811   0.046  0.00  0.00    -0.502 OA
ATOM     22  H   UNL     1      -2.774   4.009  -0.832  0.00  0.00    +0.292 HD
ENDBRANCH   6  21
TORSDOF 4
