REMARK  Name = ZINC33029044
REMARK  6 active torsions:
REMARK  status: ('A' for Active; 'I' for Inactive)
REMARK    1  A    between atoms: C_3  and  S_8
REMARK    2  A    between atoms: S_8  and  N_11
REMARK    3  A    between atoms: C_17  and  C_19
REMARK    4  A    between atoms: C_19  and  C_20
REMARK    5  A    between atoms: C_20  and  C_21
REMARK    6  A    between atoms: C_21  and  N_22
REMARK                            x       y       z     vdW  Elec       q    Type
REMARK                         _______ _______ _______ _____ _____    ______ ____
ROOT
ATOM      1  N   UNL     1      -0.730   1.576  -1.177  0.00  0.00    -0.174 NA
ATOM      2  C   UNL     1      -0.013   1.086   0.008  0.00  0.00    +0.128 C 
ATOM      3  C   UNL     1      -0.738   1.584   1.265  0.00  0.00    +0.125 C 
ATOM      4  N   UNL     1      -0.979   3.028   1.125  0.00  0.00    -0.299 N 
ATOM      5  C   UNL     1      -1.697   3.518  -0.060  0.00  0.00    +0.125 C 
ATOM      6  C   UNL     1      -0.968   3.020  -1.315  0.00  0.00    +0.128 C 
ATOM      7  C   UNL     1      -0.547   3.887   2.070  0.00  0.00    +0.216 C 
ATOM      8  O   UNL     1      -0.750   5.076   1.945  0.00  0.00    -0.276 OA
ENDROOT
BRANCH   1   9
ATOM      9  S   UNL     1      -1.261   0.520  -2.337  0.00  0.00    +0.061 S 
ATOM     10  O   UNL     1      -1.383   1.266  -3.541  0.00  0.00    -0.153 OA
ATOM     11  O   UNL     1      -0.443  -0.637  -2.238  0.00  0.00    -0.153 OA
BRANCH   9  14
ATOM     12  C   UNL     1      -4.356  -1.473  -0.727  0.00  0.00    +0.003 A 
ATOM     13  C   UNL     1      -3.078  -1.087  -1.086  0.00  0.00    +0.028 A 
ATOM     14  C   UNL     1      -2.890   0.025  -1.885  0.00  0.00    +0.107 A 
ATOM     15  C   UNL     1      -3.981   0.746  -2.333  0.00  0.00    +0.048 A 
ATOM     16  C   UNL     1      -5.261   0.357  -1.978  0.00  0.00    +0.043 A 
ATOM     17  C   UNL     1      -5.447  -0.753  -1.174  0.00  0.00    +0.020 A 
ATOM     18 CL   UNL     1      -6.631   1.262  -2.541  0.00  0.00    -0.083 Cl
ENDBRANCH   9  14
ENDBRANCH   1   9
BRANCH   7  19
ATOM     19  C   UNL     1       0.187   3.370   3.280  0.00  0.00    +0.097 C 
BRANCH  19  20
ATOM     20  C   UNL     1       0.563   4.542   4.188  0.00  0.00    +0.028 C 
BRANCH  20  21
ATOM     21  C   UNL     1       1.309   4.017   5.416  0.00  0.00    +0.106 C 
BRANCH  21  22
ATOM     22  N   UNL     1       1.669   5.140   6.285  0.00  0.00    -0.300 N 
ATOM     23  C   UNL     1       2.336   4.915   7.435  0.00  0.00    +0.297 C 
ATOM     24  O   UNL     1       2.639   3.781   7.750  0.00  0.00    -0.253 OA
ATOM     25  N   UNL     1       2.668   5.948   8.234  0.00  0.00    -0.313 N 
ATOM     26  H   UNL     1       1.395   6.166   6.000  0.00  0.00    +0.150 HD
ATOM     27  H   UNL     1       3.213   5.765   9.172  0.00  0.00    +0.146 HD
ATOM     28  H   UNL     1       2.394   6.975   7.949  0.00  0.00    +0.146 HD
ENDBRANCH  21  22
ENDBRANCH  20  21
ENDBRANCH  19  20
ENDBRANCH   7  19
TORSDOF 6
