REMARK  Name = ZINC12748554
REMARK  6 active torsions:
REMARK  status: ('A' for Active; 'I' for Inactive)
REMARK    1  A    between atoms: C_6  and  N_7
REMARK    2  A    between atoms: C_8  and  C_10
REMARK    3  A    between atoms: C_10  and  C_11
REMARK    4  A    between atoms: C_11  and  C_12
REMARK    5  A    between atoms: C_12  and  C_13
REMARK    6  A    between atoms: C_13  and  C_14
REMARK                            x       y       z     vdW  Elec       q    Type
REMARK                         _______ _______ _______ _____ _____    ______ ____
ROOT
ATOM      1  C   UNL     1      -2.261   3.787   7.964  0.00  0.00    +0.009 C 
ENDROOT
BRANCH   1   2
ATOM      2  C   UNL     1      -1.156   3.116   7.147  0.00  0.00    +0.096 C 
BRANCH   2   4
ATOM      3  N   UNL     1      -0.827   2.315   4.830  0.00  0.00    -0.285 N 
ATOM      4  C   UNL     1      -1.638   2.896   5.736  0.00  0.00    +0.217 C 
ATOM      5  O   UNL     1      -2.755   3.243   5.416  0.00  0.00    -0.275 OA
ATOM      6  H   UNL     1       0.036   1.968   5.104  0.00  0.00    +0.155 HD
BRANCH   3  12
ATOM      7  C   UNL     1      -0.844   1.117   2.732  0.00  0.00    +0.023 A 
ATOM      8  C   UNL     1      -1.246   1.017   1.410  0.00  0.00    +0.006 A 
ATOM      9  C   UNL     1      -2.035   2.007   0.847  0.00  0.00    -0.044 A 
ATOM     10  C   UNL     1      -2.422   3.099   1.607  0.00  0.00    -0.042 A 
ATOM     11  C   UNL     1      -2.021   3.201   2.927  0.00  0.00    +0.027 A 
ATOM     12  C   UNL     1      -1.231   2.211   3.494  0.00  0.00    +0.034 A 
ATOM     13  C   UNL     1      -3.271   4.028   0.766  0.00  0.00    +0.036 C 
ATOM     14  C   UNL     1      -3.725   3.182  -0.442  0.00  0.00    +0.009 C 
ATOM     15  C   UNL     1      -2.600   2.131  -0.553  0.00  0.00    +0.036 C 
ENDBRANCH   3  12
ENDBRANCH   2   4
ENDBRANCH   1   2
BRANCH   1  16
ATOM     16  C   UNL     1      -1.772   4.010   9.397  0.00  0.00    +0.002 C 
BRANCH  16  17
ATOM     17  C   UNL     1      -2.877   4.682  10.214  0.00  0.00    +0.028 C 
BRANCH  17  18
ATOM     18  C   UNL     1      -2.389   4.904  11.647  0.00  0.00    +0.152 C 
ATOM     19  C   UNL     1      -3.518   5.467  12.537  0.00  0.00    +0.120 C 
ATOM     20  C   UNL     1      -3.047   6.541  13.522  0.00  0.00    +0.117 C 
ATOM     21  C   UNL     1      -1.537   6.849  13.430  0.00  0.00    +0.190 C 
ATOM     22  S   UNL     1      -1.151   6.272  11.720  0.00  0.00    -0.025 S 
ATOM     23  O   UNL     1       0.159   5.723  11.693  0.00  0.00    -0.174 OA
ATOM     24  O   UNL     1      -1.513   7.283  10.790  0.00  0.00    -0.174 OA
ATOM     25  N   UNL     1      -3.807   7.740  13.133  0.00  0.00    -0.293 N 
ATOM     26  C   UNL     1      -4.597   7.438  12.094  0.00  0.00    +0.300 C 
ATOM     27  O   UNL     1      -5.338   8.245  11.566  0.00  0.00    -0.253 OA
ATOM     28  N   UNL     1      -4.497   6.164  11.688  0.00  0.00    -0.293 N 
ATOM     29  H   UNL     1      -3.745   8.609  13.559  0.00  0.00    +0.151 HD
ATOM     30  H   UNL     1      -4.990   5.766  10.954  0.00  0.00    +0.151 HD
ENDBRANCH  17  18
ENDBRANCH  16  17
ENDBRANCH   1  16
TORSDOF 6
