REMARK  Name = ZINC35834549
REMARK  8 active torsions:
REMARK  status: ('A' for Active; 'I' for Inactive)
REMARK    1  A    between atoms: C_1  and  C_2
REMARK    2  A    between atoms: C_2  and  O_3
REMARK    3  A    between atoms: O_3  and  C_4
REMARK    4  A    between atoms: C_7  and  C_10
REMARK    5  A    between atoms: N_15  and  C_18
REMARK    6  A    between atoms: N_21  and  C_24
REMARK    7  A    between atoms: C_24  and  C_25
REMARK    8  A    between atoms: N_31  and  C_35
REMARK                            x       y       z     vdW  Elec       q    Type
REMARK                         _______ _______ _______ _____ _____    ______ ____
ROOT
ATOM      1  C   UNL     1       1.144  -6.059   1.764  0.00  0.00    +0.142 C 
ATOM      2  C   UNL     1       2.499  -6.479   1.230  0.00  0.00    +0.058 C 
ATOM      3  C   UNL     1       3.334  -7.121   2.072  0.00  0.00    +0.042 C 
ATOM      4  C   UNL     1       4.590  -7.415   1.284  0.00  0.00    +0.159 C 
ATOM      5  N   UNL     1       4.333  -6.866  -0.056  0.00  0.00    -0.289 N 
ATOM      6  C   UNL     1       3.100  -6.330  -0.037  0.00  0.00    +0.247 C 
ATOM      7  O   UNL     1       2.571  -5.787  -0.990  0.00  0.00    -0.270 OA
ATOM      8  N   UNL     1       2.973  -7.383   3.363  0.00  0.00    -0.260 N 
ATOM      9  C   UNL     1       1.790  -7.035   3.887  0.00  0.00    +0.307 C 
ATOM     10  O   UNL     1       1.557  -7.312   5.048  0.00  0.00    -0.252 OA
ATOM     11  N   UNL     1       0.851  -6.389   3.169  0.00  0.00    -0.288 N 
ATOM     12  C   UNL     1       3.931  -8.084   4.221  0.00  0.00    +0.139 C 
ATOM     13  H   UNL     1       0.002  -6.146   3.569  0.00  0.00    +0.151 HD
ENDROOT
BRANCH   5  14
ATOM     14  C   UNL     1       5.251  -6.896  -1.198  0.00  0.00    +0.073 C 
ATOM     15  C   UNL     1       4.596  -7.648  -2.360  0.00  0.00    +0.004 C 
ATOM     16  C   UNL     1       5.526  -7.607  -3.575  0.00  0.00    -0.077 C 
ATOM     17  N   UNL     1       5.766  -6.213  -3.965  0.00  0.00    +0.382 N 
ATOM     18  C   UNL     1       6.457  -5.504  -2.882  0.00  0.00    -0.077 C 
ATOM     19  C   UNL     1       5.564  -5.464  -1.641  0.00  0.00    +0.004 C 
ATOM     20  H   UNL     1       4.883  -5.761  -4.152  0.00  0.00    -0.081 HD
BRANCH  17  21
ATOM     21  C   UNL     1       6.595  -6.181  -5.178  0.00  0.00    -0.043 C 
BRANCH  21  22
ATOM     22  C   UNL     1       6.739  -4.758  -5.650  0.00  0.00    -0.064 A 
ATOM     23  C   UNL     1       5.821  -4.227  -6.537  0.00  0.00    +0.002 A 
ATOM     24  C   UNL     1       5.954  -2.921  -6.970  0.00  0.00    +0.000 A 
ATOM     25  C   UNL     1       7.005  -2.146  -6.517  0.00  0.00    +0.000 A 
ATOM     26  C   UNL     1       7.922  -2.676  -5.629  0.00  0.00    +0.000 A 
ATOM     27  C   UNL     1       7.787  -3.981  -5.192  0.00  0.00    +0.002 A 
ENDBRANCH  21  22
ENDBRANCH  17  21
ENDBRANCH   5  14
BRANCH   1  31
ATOM     28  C   UNL     1       0.802  -1.824   1.306  0.00  0.00    +0.121 A 
ATOM     29  C   UNL     1       0.260  -2.673   0.351  0.00  0.00    +0.046 A 
ATOM     30  C   UNL     1       0.372  -4.041   0.502  0.00  0.00    +0.009 A 
ATOM     31  C   UNL     1       1.024  -4.566   1.603  0.00  0.00    -0.022 A 
ATOM     32  C   UNL     1       1.565  -3.722   2.555  0.00  0.00    +0.009 A 
ATOM     33  C   UNL     1       1.460  -2.353   2.406  0.00  0.00    +0.046 A 
BRANCH  28  34
ATOM     34  O   UNL     1       0.693  -0.477   1.160  0.00  0.00    -0.492 OA
BRANCH  34  36
ATOM     35  C   UNL     1      -0.019   1.526   0.010  0.00  0.00    +0.048 C 
ATOM     36  C   UNL     1       0.002  -0.004   0.002  0.00  0.00    +0.225 C 
ENDBRANCH  34  36
ENDBRANCH  28  34
ENDBRANCH   1  31
TORSDOF 6
