REMARK  Name = ZINC49048244
REMARK  7 active torsions:
REMARK  status: ('A' for Active; 'I' for Inactive)
REMARK    1  A    between atoms: C_1  and  C_2
REMARK    2  A    between atoms: C_2  and  C_4
REMARK    3  A    between atoms: C_2  and  S_7
REMARK    4  A    between atoms: S_7  and  N_10
REMARK    5  A    between atoms: N_10  and  C_11
REMARK    6  A    between atoms: C_16  and  O_17
REMARK    7  A    between atoms: O_17  and  C_18
REMARK                            x       y       z     vdW  Elec       q    Type
REMARK                         _______ _______ _______ _____ _____    ______ ____
ROOT
ATOM      1  N   UNL     1      -2.404   0.075   1.337  0.00  0.00    -0.216 N 
ATOM      2  H   UNL     1      -2.701  -0.475   2.078  0.00  0.00    +0.173 HD
ENDROOT
BRANCH   1   3
ATOM      3  C   UNL     1      -2.485   1.469   1.424  0.00  0.00    +0.092 A 
ATOM      4  C   UNL     1      -2.795   2.220   0.298  0.00  0.00    +0.048 A 
ATOM      5  C   UNL     1      -2.875   3.598   0.387  0.00  0.00    +0.044 A 
ATOM      6  C   UNL     1      -2.647   4.231   1.596  0.00  0.00    +0.039 A 
ATOM      7  C   UNL     1      -2.337   3.488   2.722  0.00  0.00    +0.063 A 
ATOM      8  C   UNL     1      -2.261   2.107   2.642  0.00  0.00    +0.156 A 
ATOM      9 BR   UNL     1      -2.026   4.358   4.372  0.00  0.00    -0.046 Br
ATOM     10 CL   UNL     1      -3.262   4.535  -1.022  0.00  0.00    -0.083 Cl
BRANCH   8  11
ATOM     11  O   UNL     1      -1.962   1.375   3.749  0.00  0.00    -0.492 OA
ATOM     12  C   UNL     1      -0.580   1.116   4.002  0.00  0.00    +0.277 C 
ENDBRANCH   8  11
ENDBRANCH   1   3
BRANCH   1  13
ATOM     13  S   UNL     1      -1.802  -0.635  -0.033  0.00  0.00    +0.056 S 
ATOM     14  O   UNL     1      -2.518  -0.029  -1.101  0.00  0.00    -0.154 OA
ATOM     15  O   UNL     1      -1.906  -2.032   0.207  0.00  0.00    -0.154 OA
BRANCH  13  17
ATOM     16  C   UNL     1       0.040   1.387  -0.028  0.00  0.00    +0.046 C 
ATOM     17  C   UNL     1      -0.058  -0.139  -0.088  0.00  0.00    +0.260 C 
BRANCH  17  18
ATOM     18  C   UNL     1       0.564  -0.632  -1.368  0.00  0.00    +0.381 C 
ATOM     19  O   UNL     1       1.317  -1.591  -1.350  0.00  0.00    -0.244 OA
ATOM     20  O   UNL     1       0.315  -0.072  -2.422  0.00  0.00    -0.244 OA
ENDBRANCH  17  18
ENDBRANCH  13  17
ENDBRANCH   1  13
TORSDOF 5
