REMARK  Name = ZINC21424417
REMARK  6 active torsions:
REMARK  status: ('A' for Active; 'I' for Inactive)
REMARK    1  A    between atoms: C_10  and  C_12
REMARK    2  A    between atoms: C_12  and  S_13
REMARK    3  A    between atoms: S_13  and  C_14
REMARK    4  A    between atoms: C_15  and  C_23
REMARK    5  A    between atoms: C_17  and  C_21
REMARK    6  A    between atoms: C_18  and  N_20
REMARK                            x       y       z     vdW  Elec       q    Type
REMARK                         _______ _______ _______ _____ _____    ______ ____
ROOT
ATOM      1  S   UNL     1       6.940   1.204  -0.062  0.00  0.00    -0.095 S 
ENDROOT
BRANCH   1   2
ATOM      2  C   UNL     1       7.177   2.950  -0.056  0.00  0.00    +0.117 A 
ATOM      3  C   UNL     1       8.485   3.475  -0.072  0.00  0.00    +0.085 A 
ATOM      4  C   UNL     1       8.661   4.861  -0.067  0.00  0.00    +0.043 A 
ATOM      5  C   UNL     1       7.524   5.673  -0.045  0.00  0.00    +0.092 A 
ATOM      6  C   UNL     1       6.251   5.071  -0.029  0.00  0.00    +0.135 A 
ATOM      7  N   UNL     1       6.124   3.753  -0.040  0.00  0.00    -0.224 NA
BRANCH   6   8
ATOM      8  N   UNL     1       5.122   5.864  -0.007  0.00  0.00    -0.342 N 
ATOM      9  H   UNL     1       5.208   6.830  -0.002  0.00  0.00    +0.144 HD
ATOM     10  H   UNL     1       4.242   5.455   0.004  0.00  0.00    +0.144 HD
ENDBRANCH   6   8
BRANCH   5  11
ATOM     11  C   UNL     1       7.652   7.099  -0.038  0.00  0.00    +0.103 C 
ATOM     12  N   UNL     1       7.753   8.231  -0.032  0.00  0.00    -0.191 NA
ENDBRANCH   5  11
BRANCH   3  13
ATOM     13  C   UNL     1       9.618   2.600  -0.094  0.00  0.00    +0.102 C 
ATOM     14  N   UNL     1      10.517   1.906  -0.112  0.00  0.00    -0.191 NA
ENDBRANCH   3  13
ENDBRANCH   1   2
BRANCH   1  15
ATOM     15  C   UNL     1       5.137   1.006  -0.045  0.00  0.00    +0.172 C 
BRANCH  15  25
ATOM     16  C   UNL     1      -0.017   1.378   0.010  0.00  0.00    +0.000 A 
ATOM     17  C   UNL     1       1.174   2.082   0.002  0.00  0.00    +0.002 A 
ATOM     18  C   UNL     1       2.377   1.410  -0.013  0.00  0.00    +0.024 A 
ATOM     19  C   UNL     1       2.404   0.014  -0.022  0.00  0.00    +0.040 A 
ATOM     20  C   UNL     1       1.206  -0.682  -0.014  0.00  0.00    -0.024 A 
ATOM     21  C   UNL     1       0.002  -0.004   0.002  0.00  0.00    +0.005 A 
ATOM     22  C   UNL     1       1.510  -2.163  -0.025  0.00  0.00    +0.056 C 
ATOM     23  C   UNL     1       3.046  -2.243  -0.040  0.00  0.00    +0.118 C 
ATOM     24  N   UNL     1       3.503  -0.851  -0.037  0.00  0.00    -0.270 N 
ATOM     25  C   UNL     1       4.793  -0.461  -0.049  0.00  0.00    +0.230 C 
ATOM     26  O   UNL     1       5.677  -1.291  -0.062  0.00  0.00    -0.274 OA
ENDBRANCH  15  25
ENDBRANCH   1  15
TORSDOF 6
