REMARK  Name = ZINC43609156
REMARK  7 active torsions:
REMARK  status: ('A' for Active; 'I' for Inactive)
REMARK    1  A    between atoms: C_1  and  C_2
REMARK    2  A    between atoms: C_2  and  C_33
REMARK    3  A    between atoms: C_7  and  C_11
REMARK    4  A    between atoms: C_11  and  N_12
REMARK    5  A    between atoms: C_15  and  C_18
REMARK    6  A    between atoms: C_18  and  C_25
REMARK    7  A    between atoms: C_25  and  C_26
REMARK                            x       y       z     vdW  Elec       q    Type
REMARK                         _______ _______ _______ _____ _____    ______ ____
ROOT
ATOM      1  N   UNL     1       1.353  -3.159   3.285  0.00  0.00    +0.382 N 
ATOM      2  C   UNL     1       2.052  -1.924   3.659  0.00  0.00    -0.078 C 
ATOM      3  C   UNL     1       3.381  -2.269   4.333  0.00  0.00    -0.013 C 
ATOM      4  C   UNL     1       3.108  -3.103   5.589  0.00  0.00    +0.018 C 
ATOM      5  C   UNL     1       2.314  -4.352   5.198  0.00  0.00    -0.013 C 
ATOM      6  C   UNL     1       1.025  -3.929   4.491  0.00  0.00    -0.078 C 
ATOM      7  H   UNL     1       1.948  -3.712   2.686  0.00  0.00    -0.081 HD
ENDROOT
BRANCH   4   8
ATOM      8  C   UNL     1       4.436  -3.519   6.225  0.00  0.00    +0.119 C 
ATOM      9  C   UNL     1       5.357  -4.128   5.187  0.00  0.00    +0.245 C 
ATOM     10  O   UNL     1       5.159  -5.126   4.528  0.00  0.00    -0.273 OA
ATOM     11  N   UNL     1       6.442  -3.329   5.149  0.00  0.00    -0.238 N 
ATOM     12  C   UNL     1       6.336  -2.311   6.009  0.00  0.00    +0.307 C 
ATOM     13  O   UNL     1       7.189  -1.458   6.155  0.00  0.00    -0.252 OA
ATOM     14  N   UNL     1       5.179  -2.336   6.695  0.00  0.00    -0.284 N 
ATOM     15  H   UNL     1       7.206  -3.475   4.569  0.00  0.00    +0.159 HD
ATOM     16  H   UNL     1       4.890  -1.700   7.368  0.00  0.00    +0.151 HD
BRANCH   8  17
ATOM     17  C   UNL     1       4.196  -4.497   7.377  0.00  0.00    +0.073 C 
BRANCH  17  18
ATOM     18  C   UNL     1       5.504  -4.795   8.064  0.00  0.00    -0.010 A 
ATOM     19  C   UNL     1       6.237  -5.909   7.700  0.00  0.00    +0.006 A 
ATOM     20  C   UNL     1       7.437  -6.183   8.330  0.00  0.00    +0.000 A 
ATOM     21  C   UNL     1       7.905  -5.343   9.323  0.00  0.00    +0.003 A 
ATOM     22  C   UNL     1       7.174  -4.228   9.688  0.00  0.00    +0.038 A 
ATOM     23  C   UNL     1       5.974  -3.950   9.055  0.00  0.00    +0.127 A 
ATOM     24  F   UNL     1       5.261  -2.858   9.407  0.00  0.00    -0.205 F 
ENDBRANCH  17  18
ENDBRANCH   8  17
ENDBRANCH   4   8
BRANCH   1  25
ATOM     25  C   UNL     1       0.116  -2.822   2.569  0.00  0.00    -0.047 C 
BRANCH  25  31
ATOM     26  C   UNL     1      -0.019   1.526   0.010  0.00  0.00    +0.012 C 
ATOM     27  C   UNL     1       0.002  -0.004   0.002  0.00  0.00    -0.025 C 
ATOM     28  C   UNL     1       1.147  -0.608  -0.837  0.00  0.00    -0.000 C 
ATOM     29  C   UNL     1       0.881  -2.091  -1.135  0.00  0.00    +0.031 C 
ATOM     30  C   UNL     1       0.545  -2.814   0.146  0.00  0.00    -0.029 C 
ATOM     31  C   UNL     1       0.457  -2.139   1.270  0.00  0.00    -0.086 C 
ATOM     32  C   UNL     1       0.726  -0.624   1.211  0.00  0.00    +0.019 C 
ATOM     33  C   UNL     1       2.024  -0.376   0.405  0.00  0.00    +0.012 C 
ATOM     34  C   UNL     1      -1.369  -0.620  -0.281  0.00  0.00    +0.012 C 
ENDBRANCH  25  31
ENDBRANCH   1  25
TORSDOF 5
