REMARK  Name = ZINC37059039
REMARK  6 active torsions:
REMARK  status: ('A' for Active; 'I' for Inactive)
REMARK    1  A    between atoms: C_1  and  C_2
REMARK    2  A    between atoms: C_2  and  C_3
REMARK    3  A    between atoms: C_3  and  C_5
REMARK    4  A    between atoms: C_3  and  N_13
REMARK    5  A    between atoms: N_13  and  C_14
REMARK    6  A    between atoms: C_19  and  N_20
REMARK                            x       y       z     vdW  Elec       q    Type
REMARK                         _______ _______ _______ _____ _____    ______ ____
ROOT
ATOM      1  C   UNL     1      -1.529  -0.596   0.345  0.00  0.00    +0.102 C 
ENDROOT
BRANCH   1   2
ATOM      2  C   UNL     1      -1.907  -2.027   0.067  0.00  0.00    -0.009 A 
ATOM      3  C   UNL     1      -2.166  -2.890   1.115  0.00  0.00    +0.008 A 
ATOM      4  C   UNL     1      -2.514  -4.203   0.861  0.00  0.00    +0.020 A 
ATOM      5  C   UNL     1      -2.603  -4.655  -0.444  0.00  0.00    +0.042 A 
ATOM      6  C   UNL     1      -2.344  -3.793  -1.494  0.00  0.00    +0.040 A 
ATOM      7  C   UNL     1      -2.001  -2.477  -1.238  0.00  0.00    +0.047 A 
ATOM      8 CL   UNL     1      -1.682  -1.392  -2.555  0.00  0.00    -0.083 Cl
ATOM      9 CL   UNL     1      -3.038  -6.305  -0.763  0.00  0.00    -0.083 Cl
ENDBRANCH   1   2
BRANCH   1  11
ATOM     10  C   UNL     1       0.381   1.005   0.531  0.00  0.00    +0.006 C 
ATOM     11  C   UNL     1      -0.004  -0.467   0.373  0.00  0.00    +0.024 C 
ENDBRANCH   1  11
BRANCH   1  12
ATOM     12  N   UNL     1      -2.077  -0.188   1.641  0.00  0.00    -0.335 N 
ATOM     13  H   UNL     1      -1.871  -0.702   2.438  0.00  0.00    +0.147 HD
BRANCH  12  14
ATOM     14  C   UNL     1      -2.898   0.939   1.729  0.00  0.00    +0.058 A 
ATOM     15  C   UNL     1      -3.103   1.739   0.613  0.00  0.00    +0.025 A 
ATOM     16  C   UNL     1      -3.915   2.852   0.703  0.00  0.00    +0.002 A 
ATOM     17  C   UNL     1      -4.524   3.171   1.904  0.00  0.00    +0.002 A 
ATOM     18  C   UNL     1      -4.321   2.376   3.017  0.00  0.00    +0.034 A 
ATOM     19  C   UNL     1      -3.514   1.258   2.932  0.00  0.00    +0.147 A 
BRANCH  19  20
ATOM     20  N   UNL     1      -3.303   0.405   4.123  0.00  0.00    +0.058 N 
ATOM     21  O   UNL     1      -3.235  -0.796   4.001  0.00  0.00    -0.126 OA
ATOM     22  O   UNL     1      -3.198   0.909   5.217  0.00  0.00    -0.126 OA
ENDBRANCH  19  20
ENDBRANCH  12  14
ENDBRANCH   1  12
TORSDOF 5
