REMARK  Name = ZINC33552753
REMARK  14 active torsions:
REMARK  status: ('A' for Active; 'I' for Inactive)
REMARK    1  A    between atoms: C_1  and  C_2
REMARK    2  A    between atoms: C_5  and  C_7
REMARK    3  A    between atoms: C_7  and  C_9
REMARK    4  A    between atoms: C_14  and  C_16
REMARK    5  A    between atoms: C_20  and  O_22
REMARK    6  A    between atoms: O_22  and  C_23
REMARK    7  A    between atoms: C_23  and  C_24
REMARK    8  A    between atoms: C_24  and  C_25
REMARK    9  A    between atoms: C_25  and  C_26
REMARK   10  A    between atoms: C_25  and  C_27
REMARK   11  A    between atoms: C_30  and  C_37
REMARK   12  A    between atoms: C_31  and  C_33
REMARK   13  A    between atoms: C_33  and  O_35
REMARK   14  A    between atoms: O_35  and  C_36
REMARK                            x       y       z     vdW  Elec       q    Type
REMARK                         _______ _______ _______ _____ _____    ______ ____
ROOT
ATOM      1  C   UNL     1       1.577   2.555   0.050  0.00  0.00    +0.080 C 
ATOM      2  C   UNL     1       1.572   1.202   0.042  0.00  0.00    +0.250 C 
ATOM      3  C   UNL     1       2.955   0.710   0.188  0.00  0.00    +0.293 C 
ATOM      4  O   UNL     1       3.279  -0.461   0.221  0.00  0.00    -0.266 OA
ATOM      5  N   UNL     1       3.806   1.749   0.274  0.00  0.00    -0.232 N 
ATOM      6  C   UNL     1       3.018   2.985   0.200  0.00  0.00    +0.152 C 
ATOM      7  C   UNL     1       5.178   1.667   0.415  0.00  0.00    +0.169 A 
ATOM      8  N   UNL     1       5.941   0.586   0.487  0.00  0.00    -0.229 NA
ATOM      9  C   UNL     1       7.238   0.671   0.621  0.00  0.00    +0.062 A 
ATOM     10  C   UNL     1       7.800   1.940   0.685  0.00  0.00    +0.120 A 
ATOM     11  S   UNL     1       6.337   2.955   0.534  0.00  0.00    -0.045 S 
ATOM     12  C   UNL     1       8.095  -0.566   0.703  0.00  0.00    +0.067 C 
ATOM     13  O   UNL     1       0.471   0.422  -0.076  0.00  0.00    -0.282 OA
ENDROOT
BRANCH   6  14
ATOM     14  C   UNL     1       3.190   3.788   1.463  0.00  0.00    -0.019 A 
ATOM     15  C   UNL     1       3.183   3.153   2.692  0.00  0.00    +0.006 A 
ATOM     16  C   UNL     1       3.341   3.887   3.853  0.00  0.00    +0.004 A 
ATOM     17  C   UNL     1       3.506   5.257   3.788  0.00  0.00    +0.045 A 
ATOM     18  C   UNL     1       3.514   5.896   2.557  0.00  0.00    +0.121 A 
ATOM     19  C   UNL     1       3.360   5.157   1.393  0.00  0.00    +0.051 A 
BRANCH  18  20
ATOM     20  O   UNL     1       3.675   7.244   2.490  0.00  0.00    -0.492 OA
BRANCH  20  21
ATOM     21  C   UNL     1       3.832   7.940   3.728  0.00  0.00    +0.229 C 
BRANCH  21  22
ATOM     22  C   UNL     1       4.000   9.436   3.455  0.00  0.00    +0.044 C 
BRANCH  22  23
ATOM     23  C   UNL     1       4.168  10.182   4.780  0.00  0.00    -0.014 C 
ATOM     24  C   UNL     1       4.459  11.658   4.502  0.00  0.00    +0.007 C 
ATOM     25  C   UNL     1       2.881  10.062   5.599  0.00  0.00    +0.007 C 
ENDBRANCH  22  23
ENDBRANCH  21  22
ENDBRANCH  20  21
ENDBRANCH  18  20
ENDBRANCH   6  14
BRANCH   1  26
ATOM     26  C   UNL     1       0.408   3.435  -0.066  0.00  0.00    +0.230 C 
ATOM     27  O   UNL     1      -0.432   3.452   0.816  0.00  0.00    -0.283 OA
BRANCH  26  32
ATOM     28  C   UNL     1       1.238   5.547  -4.529  0.00  0.00    +0.086 C 
ATOM     29  C   UNL     1       0.609   5.226  -3.198  0.00  0.00    +0.103 A 
ATOM     30  C   UNL     1      -0.503   5.809  -2.694  0.00  0.00    +0.045 A 
ATOM     31  C   UNL     1      -0.746   5.225  -1.443  0.00  0.00    +0.053 A 
ATOM     32  C   UNL     1       0.252   4.295  -1.243  0.00  0.00    +0.175 A 
ATOM     33  O   UNL     1       1.062   4.321  -2.322  0.00  0.00    -0.457 OA
ENDBRANCH  26  32
ENDBRANCH   1  26
BRANCH  10  34
ATOM     34  C   UNL     1       9.200   2.334   0.830  0.00  0.00    +0.347 C 
ATOM     35  O   UNL     1      10.066   1.484   0.914  0.00  0.00    -0.244 OA
BRANCH  34  36
ATOM     36  O   UNL     1       9.531   3.642   0.871  0.00  0.00    -0.464 OA
ATOM     37  C   UNL     1      10.918   3.955   1.015  0.00  0.00    +0.280 C 
ENDBRANCH  34  36
ENDBRANCH  10  34
TORSDOF 9
