REMARK  Name = ZINC25529682
REMARK  14 active torsions:
REMARK  status: ('A' for Active; 'I' for Inactive)
REMARK    1  A    between atoms: C_1  and  C_2
REMARK    2  A    between atoms: C_2  and  C_3
REMARK    3  A    between atoms: C_3  and  C_4
REMARK    4  A    between atoms: C_4  and  C_6
REMARK    5  A    between atoms: C_4  and  N_23
REMARK    6  A    between atoms: N_8  and  N_9
REMARK    7  A    between atoms: C_10  and  C_12
REMARK    8  A    between atoms: C_15  and  N_18
REMARK    9  A    between atoms: N_18  and  C_19
REMARK   10  A    between atoms: N_18  and  C_21
REMARK   11  A    between atoms: C_19  and  C_20
REMARK   12  A    between atoms: C_21  and  C_22
REMARK   13  A    between atoms: N_26  and  C_27
REMARK   14  A    between atoms: C_27  and  C_28
REMARK                            x       y       z     vdW  Elec       q    Type
REMARK                         _______ _______ _______ _____ _____    ______ ____
ROOT
ATOM      1  C   UNL     1      -0.074   0.981   2.485  0.00  0.00    +0.249 C 
ATOM      2  O   UNL     1       0.415   1.703   3.327  0.00  0.00    -0.272 OA
ATOM      3  N   UNL     1      -0.031  -0.358   2.638  0.00  0.00    -0.233 N 
ATOM      4  H   UNL     1      -0.475  -1.013   1.874  0.00  0.00    +0.173 HD
ENDROOT
BRANCH   3   5
ATOM      5  N   UNL     1       0.578  -0.915   3.770  0.00  0.00    -0.230 N 
ATOM      6  C   UNL     1       0.620  -2.253   3.923  0.00  0.00    +0.260 C 
ATOM      7  O   UNL     1       0.130  -2.977   3.078  0.00  0.00    -0.269 OA
ATOM      8  H   UNL     1       1.021  -0.259   4.534  0.00  0.00    +0.173 HD
BRANCH   6   9
ATOM      9  C   UNL     1       1.261  -2.839   5.115  0.00  0.00    +0.038 A 
ATOM     10  C   UNL     1       1.831  -2.008   6.085  0.00  0.00    +0.015 A 
ATOM     11  C   UNL     1       2.424  -2.558   7.198  0.00  0.00    +0.024 A 
ATOM     12  C   UNL     1       2.467  -3.940   7.354  0.00  0.00    +0.030 A 
ATOM     13  C   UNL     1       1.905  -4.771   6.388  0.00  0.00    +0.024 A 
ATOM     14  C   UNL     1       1.306  -4.227   5.276  0.00  0.00    +0.015 A 
BRANCH  12  15
ATOM     15  N   UNL     1       3.071  -4.493   8.478  0.00  0.00    -0.330 N 
BRANCH  15  16
ATOM     16  C   UNL     1       3.662  -3.620   9.496  0.00  0.00    +0.102 C 
ATOM     17  C   UNL     1       2.607  -3.276  10.548  0.00  0.00    +0.024 C 
ENDBRANCH  15  16
BRANCH  15  18
ATOM     18  C   UNL     1       3.117  -5.947   8.645  0.00  0.00    +0.102 C 
ATOM     19  C   UNL     1       4.394  -6.494   8.004  0.00  0.00    +0.024 C 
ENDBRANCH  15  18
ENDBRANCH  12  15
ENDBRANCH   6   9
ENDBRANCH   3   5
BRANCH   1  20
ATOM     20  C   UNL     1      -0.729   1.579   1.267  0.00  0.00    +0.162 C 
BRANCH  20  21
ATOM     21  N   UNL     1      -0.645   3.040   1.336  0.00  0.00    -0.288 N 
ATOM     22  C   UNL     1      -1.547   3.799   0.682  0.00  0.00    +0.300 C 
ATOM     23  O   UNL     1      -2.430   3.270   0.035  0.00  0.00    -0.253 OA
ATOM     24  N   UNL     1      -1.469   5.143   0.745  0.00  0.00    -0.295 N 
ATOM     25  H   UNL     1       0.155   3.518   1.921  0.00  0.00    +0.151 HD
ATOM     26  H   UNL     1      -0.670   5.621   1.330  0.00  0.00    +0.151 HD
BRANCH  24  27
ATOM     27  C   UNL     1      -2.450   5.967   0.034  0.00  0.00    +0.141 C 
BRANCH  27  28
ATOM     28  C   UNL     1      -2.143   7.424   0.265  0.00  0.00    -0.030 A 
ATOM     29  C   UNL     1      -2.712   8.089   1.335  0.00  0.00    +0.008 A 
ATOM     30  C   UNL     1      -2.427   9.424   1.551  0.00  0.00    +0.038 A 
ATOM     31  C   UNL     1      -1.580  10.099   0.689  0.00  0.00    +0.123 A 
ATOM     32  C   UNL     1      -1.014   9.433  -0.385  0.00  0.00    +0.038 A 
ATOM     33  C   UNL     1      -1.296   8.097  -0.596  0.00  0.00    +0.008 A 
ATOM     34  F   UNL     1      -1.305  11.405   0.896  0.00  0.00    -0.205 F 
ENDBRANCH  27  28
ENDBRANCH  24  27
ENDBRANCH  20  21
BRANCH  20  35
ATOM     35  C   UNL     1      -0.013   1.086   0.008  0.00  0.00    +0.031 C 
BRANCH  35  37
ATOM     36  C   UNL     1      -0.037   1.099  -2.490  0.00  0.00    +0.004 C 
ATOM     37  C   UNL     1      -0.753   1.593  -1.232  0.00  0.00    -0.001 C 
ENDBRANCH  35  37
ENDBRANCH  20  35
ENDBRANCH   1  20
TORSDOF 11
