REMARK  Name = ZINC21809558
REMARK  3 active torsions:
REMARK  status: ('A' for Active; 'I' for Inactive)
REMARK    1  A    between atoms: C_5  and  N_7
REMARK    2  A    between atoms: N_7  and  S_8
REMARK    3  A    between atoms: S_8  and  N_11
REMARK                            x       y       z     vdW  Elec       q    Type
REMARK                         _______ _______ _______ _____ _____    ______ ____
ROOT
ATOM      1  N   UNL     1      -1.848  -1.925  -1.323  0.00  0.00    -0.205 N 
ATOM      2  H   UNL     1      -1.389  -2.123  -2.303  0.00  0.00    +0.175 HD
ENDROOT
BRANCH   1   7
ATOM      3  C   UNL     1      -1.410  -3.298   2.056  0.00  0.00    +0.002 A 
ATOM      4  C   UNL     1      -0.033  -3.327   2.149  0.00  0.00    +0.005 A 
ATOM      5  C   UNL     1       0.756  -2.894   1.093  0.00  0.00    -0.025 A 
ATOM      6  C   UNL     1       0.163  -2.424  -0.063  0.00  0.00    +0.053 A 
ATOM      7  C   UNL     1      -1.236  -2.397  -0.155  0.00  0.00    +0.070 A 
ATOM      8  C   UNL     1      -2.014  -2.829   0.905  0.00  0.00    +0.026 A 
ATOM      9  N   UNL     1       0.894  -1.962  -1.160  0.00  0.00    -0.342 N 
ATOM     10  C   UNL     1       2.278  -2.441  -1.171  0.00  0.00    +0.102 C 
ATOM     11  C   UNL     1       2.925  -2.100   0.178  0.00  0.00    +0.023 C 
ATOM     12  C   UNL     1       2.254  -2.959   1.252  0.00  0.00    +0.038 C 
ATOM     13  H   UNL     1       0.533  -1.308  -1.967  0.00  0.00    +0.146 HD
ENDBRANCH   1   7
BRANCH   1  14
ATOM     14  S   UNL     1      -3.263  -1.070  -1.228  0.00  0.00    +0.112 S 
ATOM     15  O   UNL     1      -4.163  -1.857  -0.460  0.00  0.00    -0.138 OA
ATOM     16  O   UNL     1      -3.564  -0.636  -2.547  0.00  0.00    -0.138 OA
BRANCH  14  17
ATOM     17  N   UNL     1      -2.952   0.294  -0.341  0.00  0.00    -0.164 NA
ATOM     18  C   UNL     1      -2.518   1.500  -0.986  0.00  0.00    +0.111 C 
ATOM     19  C   UNL     1      -0.990   1.657  -1.179  0.00  0.00    +0.017 C 
ATOM     20  C   UNL     1      -0.240   1.178   0.088  0.00  0.00    +0.001 C 
ATOM     21  C   UNL     1      -0.979   1.586   1.330  0.00  0.00    +0.001 C 
ATOM     22  C   UNL     1      -1.784   0.359   1.744  0.00  0.00    +0.017 C 
ATOM     23  C   UNL     1      -3.119   0.288   1.151  0.00  0.00    +0.111 C 
ENDBRANCH  14  17
ENDBRANCH   1  14
TORSDOF 3
