REMARK  Name = ZINC20477905
REMARK  6 active torsions:
REMARK  status: ('A' for Active; 'I' for Inactive)
REMARK    1  A    between atoms: C_1  and  C_2
REMARK    2  A    between atoms: C_5  and  N_9
REMARK    3  A    between atoms: C_6  and  C_8
REMARK    4  A    between atoms: C_18  and  C_20
REMARK    5  A    between atoms: C_20  and  S_21
REMARK    6  A    between atoms: S_21  and  C_22
REMARK                            x       y       z     vdW  Elec       q    Type
REMARK                         _______ _______ _______ _____ _____    ______ ____
ROOT
ATOM      1  N   UNL     1      -3.566  -0.698  -0.080  0.00  0.00    -0.327 N 
ATOM      2  C   UNL     1      -2.532  -0.012   0.516  0.00  0.00    +0.180 C 
ATOM      3  N   UNL     1      -2.467   1.285   0.415  0.00  0.00    -0.371 N 
ATOM      4  N   UNL     1      -1.564  -0.698   1.221  0.00  0.00    -0.298 N 
ATOM      5  C   UNL     1      -0.472  -0.030   1.718  0.00  0.00    +0.212 A 
ATOM      6  N   UNL     1       0.475  -0.718   2.410  0.00  0.00    -0.175 NA
ATOM      7  C   UNL     1       1.552  -0.068   2.901  0.00  0.00    +0.275 A 
ATOM      8  O   UNL     1       2.411  -0.670   3.524  0.00  0.00    -0.266 OA
ATOM      9  C   UNL     1       1.664   1.317   2.680  0.00  0.00    +0.094 A 
ATOM     10  C   UNL     1       0.683   1.953   1.977  0.00  0.00    +0.034 A 
ATOM     11  N   UNL     1      -0.359   1.267   1.514  0.00  0.00    -0.328 N 
ATOM     12  H   UNL     1      -4.393  -0.146  -0.550  0.00  0.00    +0.169 HD
ATOM     13  H   UNL     1      -1.640   1.833   0.891  0.00  0.00    +0.159 HD
ATOM     14  H   UNL     1      -1.668  -1.781   1.386  0.00  0.00    +0.172 HD
ATOM     15  H   UNL     1      -3.238   1.832  -0.147  0.00  0.00    +0.159 HD
ATOM     16  H   UNL     1      -1.136   1.804   0.950  0.00  0.00    +0.168 HD
ENDROOT
BRANCH   1  21
ATOM     17  C   UNL     1      -3.562  -6.370  -0.107  0.00  0.00    +0.044 C 
ATOM     18  C   UNL     1      -3.563  -4.863  -0.100  0.00  0.00    -0.050 A 
ATOM     19  C   UNL     1      -2.365  -4.172  -0.099  0.00  0.00    +0.005 A 
ATOM     20  C   UNL     1      -2.362  -2.792  -0.092  0.00  0.00    +0.026 A 
ATOM     21  C   UNL     1      -3.565  -2.096  -0.087  0.00  0.00    +0.045 A 
ATOM     22  C   UNL     1      -4.766  -2.793  -0.083  0.00  0.00    -0.027 A 
ATOM     23  C   UNL     1      -4.762  -4.174  -0.094  0.00  0.00    +0.008 A 
ATOM     24  C   UNL     1      -6.073  -2.043  -0.071  0.00  0.00    +0.046 C 
ENDBRANCH   1  21
BRANCH  10  25
ATOM     25  C   UNL     1       0.780   3.436   1.725  0.00  0.00    +0.129 C 
BRANCH  25  26
ATOM     26  S   UNL     1       1.251   3.726   0.002  0.00  0.00    -0.093 S 
BRANCH  26  27
ATOM     27  C   UNL     1       1.288   5.487  -0.013  0.00  0.00    +0.136 A 
ATOM     28  N   UNL     1       1.573   6.298  -1.008  0.00  0.00    -0.233 NA
ATOM     29  C   UNL     1       1.562   7.642  -0.874  0.00  0.00    +0.079 A 
ATOM     30  C   UNL     1       1.845   8.619  -1.856  0.00  0.00    +0.029 A 
ATOM     31  C   UNL     1       1.787   9.954  -1.553  0.00  0.00    +0.002 A 
ATOM     32  C   UNL     1       1.451  10.395  -0.281  0.00  0.00    +0.001 A 
ATOM     33  C   UNL     1       1.168   9.466   0.704  0.00  0.00    +0.017 A 
ATOM     34  C   UNL     1       1.223   8.127   0.409  0.00  0.00    +0.040 A 
ATOM     35  S   UNL     1       0.942   6.627   1.319  0.00  0.00    -0.061 S 
ENDBRANCH  26  27
ENDBRANCH  25  26
ENDBRANCH  10  25
TORSDOF 4
