REMARK  Name = ZINC61690321
REMARK  5 active torsions:
REMARK  status: ('A' for Active; 'I' for Inactive)
REMARK    1  A    between atoms: C_1  and  C_2
REMARK    2  A    between atoms: C_2  and  C_3
REMARK    3  A    between atoms: C_2  and  C_11
REMARK    4  A    between atoms: C_2  and  N_14
REMARK    5  A    between atoms: N_14  and  C_15
REMARK                            x       y       z     vdW  Elec       q    Type
REMARK                         _______ _______ _______ _____ _____    ______ ____
ROOT
ATOM      1  C   UNL     1      -1.398  -0.184   0.105  0.00  0.00    +0.007 C 
ATOM      2  C   UNL     1      -0.352  -1.193  -0.373  0.00  0.00    +0.059 C 
ENDROOT
BRANCH   2   3
ATOM      3  C   UNL     1       0.490  -1.636   0.796  0.00  0.00    -0.047 A 
ATOM      4  C   UNL     1       1.854  -1.415   0.788  0.00  0.00    +0.005 A 
ATOM      5  C   UNL     1       2.627  -1.821   1.859  0.00  0.00    +0.040 A 
ATOM      6  C   UNL     1       2.035  -2.449   2.942  0.00  0.00    +0.137 A 
ATOM      7  C   UNL     1       0.667  -2.670   2.949  0.00  0.00    +0.053 A 
ATOM      8  C   UNL     1      -0.105  -2.258   1.878  0.00  0.00    +0.021 A 
ATOM      9 BR   UNL     1      -0.144  -3.527   4.426  0.00  0.00    -0.047 Br
ATOM     10  F   UNL     1       2.790  -2.846   3.989  0.00  0.00    -0.204 F 
ENDBRANCH   2   3
BRANCH   2  11
ATOM     11  C   UNL     1      -1.045  -2.388  -0.975  0.00  0.00    +0.349 C 
ATOM     12  O   UNL     1      -0.744  -2.768  -2.094  0.00  0.00    -0.248 OA
ATOM     13  O   UNL     1      -1.907  -2.975  -0.343  0.00  0.00    -0.248 OA
ENDBRANCH   2  11
BRANCH   2  14
ATOM     14  N   UNL     1       0.508  -0.564  -1.385  0.00  0.00    +0.400 N 
ATOM     15  H   UNL     1       1.026   0.192  -0.963  0.00  0.00    -0.083 HD
ATOM     16  H   UNL     1       1.151  -1.249  -1.752  0.00  0.00    -0.083 HD
BRANCH  14  17
ATOM     17  C   UNL     1      -0.324  -0.039  -2.475  0.00  0.00    +0.018 C 
ATOM     18  C   UNL     1       0.144  -0.637  -3.805  0.00  0.00    -0.005 C 
ATOM     19  C   UNL     1      -0.543   0.122  -4.946  0.00  0.00    +0.018 C 
ATOM     20  C   UNL     1      -0.004   1.553  -4.975  0.00  0.00    +0.104 C 
ATOM     21  N   UNL     1      -0.081   2.154  -3.649  0.00  0.00    -0.317 N 
ATOM     22  C   UNL     1      -0.201   1.457  -2.520  0.00  0.00    +0.199 C 
ATOM     23  O   UNL     1      -0.213   2.066  -1.471  0.00  0.00    -0.278 OA
ATOM     24  H   UNL     1      -0.041   3.121  -3.585  0.00  0.00    +0.149 HD
ENDBRANCH  14  17
ENDBRANCH   2  14
TORSDOF 4
