REMARK  Name = ZINC65434924
REMARK  3 active torsions:
REMARK  status: ('A' for Active; 'I' for Inactive)
REMARK    1  A    between atoms: C_1  and  C_2
REMARK    2  A    between atoms: C_2  and  C_3
REMARK    3  A    between atoms: C_2  and  C_4
REMARK                            x       y       z     vdW  Elec       q    Type
REMARK                         _______ _______ _______ _____ _____    ______ ____
ROOT
ATOM      1  C   UNL     1      -1.194  -0.764  -0.455  0.00  0.00    +0.102 C 
ATOM      2  C   UNL     1      -1.392  -2.285  -0.382  0.00  0.00    +0.074 C 
ATOM      3  C   UNL     1      -1.939  -2.708   0.986  0.00  0.00    +0.117 C 
ATOM      4  N   UNL     1      -2.508  -4.057   0.846  0.00  0.00    -0.317 N 
ATOM      5  C   UNL     1      -3.600  -4.311  -0.101  0.00  0.00    +0.112 C 
ATOM      6  C   UNL     1      -3.154  -3.909  -1.517  0.00  0.00    +0.072 C 
ATOM      7  C   UNL     1      -2.478  -2.554  -1.414  0.00  0.00    +0.044 C 
ATOM      8  N   UNL     1      -2.749  -1.488  -2.034  0.00  0.00    -0.195 NA
ATOM      9  N   UNL     1      -2.051  -0.362  -1.585  0.00  0.00    -0.265 N 
ATOM     10  C   UNL     1      -2.022  -5.071   1.594  0.00  0.00    +0.114 C 
ATOM     11  N   UNL     1      -2.388  -6.331   1.412  0.00  0.00    -0.224 NA
ATOM     12  C   UNL     1      -1.894  -7.324   2.147  0.00  0.00    +0.225 C 
ATOM     13  N   UNL     1      -1.236  -7.185   3.277  0.00  0.00    -0.220 NA
ATOM     14  C   UNL     1      -1.002  -5.966   3.757  0.00  0.00    +0.145 C 
ATOM     15  N   UNL     1      -0.777  -5.333   4.864  0.00  0.00    -0.240 NA
ATOM     16  C   UNL     1      -1.130  -4.029   4.787  0.00  0.00    +0.110 C 
ATOM     17  C   UNL     1      -1.359  -3.641   3.524  0.00  0.00    +0.011 C 
ATOM     18  C   UNL     1      -1.015  -4.854   2.697  0.00  0.00    +0.144 C 
ATOM     19  H   UNL     1      -2.118   0.532  -1.954  0.00  0.00    +0.168 HD
ENDROOT
BRANCH   1  21
ATOM     20  C   UNL     1       0.426   1.094  -0.863  0.00  0.00    +0.009 C 
ATOM     21  C   UNL     1       0.270  -0.423  -0.740  0.00  0.00    +0.005 C 
ATOM     22  C   UNL     1       1.145  -0.934   0.407  0.00  0.00    +0.009 C 
ENDBRANCH   1  21
TORSDOF 1
