REMARK  Name = ZINC00649963
REMARK  11 active torsions:
REMARK  status: ('A' for Active; 'I' for Inactive)
REMARK    1  A    between atoms: C_1  and  C_2
REMARK    2  A    between atoms: C_5  and  N_8
REMARK    3  A    between atoms: C_11  and  C_13
REMARK    4  A    between atoms: C_14  and  C_22
REMARK    5  A    between atoms: C_16  and  C_20
REMARK    6  A    between atoms: C_17  and  N_19
REMARK    7  A    between atoms: C_25  and  O_37
REMARK    8  A    between atoms: C_26  and  C_28
REMARK    9  A    between atoms: C_28  and  N_29
REMARK   10  A    between atoms: C_31  and  N_34
REMARK   11  A    between atoms: O_37  and  C_38
REMARK                            x       y       z     vdW  Elec       q    Type
REMARK                         _______ _______ _______ _____ _____    ______ ____
ROOT
ATOM      1  N   UNL     1      -2.458   3.824   0.046  0.00  0.00    -0.200 N 
ATOM      2  C   UNL     1      -3.596   3.438  -0.571  0.00  0.00    +0.230 A 
ATOM      3  C   UNL     1      -4.548   4.384  -0.307  0.00  0.00    +0.050 A 
ATOM      4  C   UNL     1      -3.971   5.365   0.490  0.00  0.00    +0.068 A 
ATOM      5  N   UNL     1      -2.721   5.032   0.710  0.00  0.00    -0.168 NA
ATOM      6  C   UNL     1      -4.664   6.595   1.016  0.00  0.00    +0.068 C 
ATOM      7  C   UNL     1      -5.956   4.291  -0.836  0.00  0.00    +0.101 C 
ATOM      8  C   UNL     1      -6.159   2.903  -1.391  0.00  0.00    +0.098 C 
ATOM      9  C   UNL     1      -5.133   2.047  -1.597  0.00  0.00    +0.200 C 
ATOM     10  O   UNL     1      -3.845   2.340  -1.327  0.00  0.00    -0.423 OA
ENDROOT
BRANCH   1  15
ATOM     11  C   UNL     1       2.490   1.045  -0.016  0.00  0.00    +0.044 C 
ATOM     12  C   UNL     1       1.176   1.783   0.000  0.00  0.00    -0.050 A 
ATOM     13  C   UNL     1      -0.013   1.076   0.008  0.00  0.00    +0.005 A 
ATOM     14  C   UNL     1      -1.218   1.749   0.017  0.00  0.00    +0.028 A 
ATOM     15  C   UNL     1      -1.236   3.138   0.031  0.00  0.00    +0.069 A 
ATOM     16  C   UNL     1      -0.041   3.845   0.023  0.00  0.00    +0.028 A 
ATOM     17  C   UNL     1       1.161   3.166   0.008  0.00  0.00    +0.005 A 
ENDBRANCH   1  15
BRANCH   7  18
ATOM     18  C   UNL     1      -6.158   5.311  -1.927  0.00  0.00    -0.034 A 
ATOM     19  C   UNL     1      -5.369   5.272  -3.062  0.00  0.00    +0.008 A 
ATOM     20  C   UNL     1      -5.556   6.203  -4.066  0.00  0.00    +0.046 A 
ATOM     21  C   UNL     1      -6.529   7.183  -3.929  0.00  0.00    +0.125 A 
ATOM     22  C   UNL     1      -7.314   7.223  -2.787  0.00  0.00    +0.016 A 
ATOM     23  C   UNL     1      -7.127   6.286  -1.788  0.00  0.00    +0.013 A 
BRANCH  21  24
ATOM     24  O   UNL     1      -6.710   8.104  -4.913  0.00  0.00    -0.495 OA
ATOM     25  C   UNL     1      -5.865   8.002  -6.060  0.00  0.00    +0.277 C 
ENDBRANCH  21  24
BRANCH  22  26
ATOM     26  C   UNL     1      -8.372   8.286  -2.635  0.00  0.00    +0.182 C 
BRANCH  26  27
ATOM     27  N   UNL     1      -7.746   9.538  -2.203  0.00  0.00    -0.265 N 
ATOM     28  C   UNL     1      -7.848  10.732  -2.825  0.00  0.00    +0.141 A 
ATOM     29  C   UNL     1      -7.131  11.631  -2.111  0.00  0.00    +0.163 A 
ATOM     30  C   UNL     1      -6.564  10.961  -1.021  0.00  0.00    +0.167 A 
ATOM     31  N   UNL     1      -6.933   9.707  -1.075  0.00  0.00    -0.177 NA
BRANCH  29  32
ATOM     32  N   UNL     1      -6.969  13.067  -2.430  0.00  0.00    +0.059 N 
ATOM     33  O   UNL     1      -6.291  13.778  -1.711  0.00  0.00    -0.126 OA
ATOM     34  O   UNL     1      -7.515  13.537  -3.412  0.00  0.00    -0.126 OA
ENDBRANCH  29  32
ENDBRANCH  26  27
ENDBRANCH  22  26
ENDBRANCH   7  18
BRANCH   9  35
ATOM     35  N   UNL     1      -5.420   0.807  -2.111  0.00  0.00    -0.328 N 
ATOM     36  H   UNL     1      -6.337   0.567  -2.316  0.00  0.00    +0.145 HD
ATOM     37  H   UNL     1      -4.705   0.170  -2.269  0.00  0.00    +0.145 HD
ENDBRANCH   9  35
BRANCH   8  38
ATOM     38  C   UNL     1      -7.487   2.477  -1.713  0.00  0.00    +0.101 C 
ATOM     39  N   UNL     1      -8.541   2.139  -1.968  0.00  0.00    -0.191 NA
ENDBRANCH   8  38
TORSDOF 8
