REMARK  Name = ZINC04027970
REMARK  4 active torsions:
REMARK  status: ('A' for Active; 'I' for Inactive)
REMARK    1  A    between atoms: C_1  and  C_2
REMARK    2  A    between atoms: C_5  and  O_30
REMARK    3  A    between atoms: C_18  and  C_29
REMARK    4  A    between atoms: N_24  and  N_25
REMARK                            x       y       z     vdW  Elec       q    Type
REMARK                         _______ _______ _______ _____ _____    ______ ____
ROOT
ATOM      1  C   UNL     1       6.081  -0.538  -0.842  0.00  0.00    +0.012 C 
ATOM      2  C   UNL     1       5.448   0.670  -1.536  0.00  0.00    -0.026 C 
ATOM      3  C   UNL     1       5.705   0.558  -3.025  0.00  0.00    +0.010 C 
ATOM      4  C   UNL     1       7.213   0.535  -3.287  0.00  0.00    +0.032 C 
ATOM      5  C   UNL     1       7.843   1.822  -2.751  0.00  0.00    +0.115 C 
ATOM      6  C   UNL     1       7.589   1.925  -1.245  0.00  0.00    +0.035 C 
ATOM      7  C   UNL     1       6.082   1.948  -0.983  0.00  0.00    -0.002 C 
ATOM      8  C   UNL     1       5.828   2.049   0.523  0.00  0.00    +0.004 C 
ATOM      9  C   UNL     1       4.321   2.076   0.784  0.00  0.00    +0.004 C 
ATOM     10  C   UNL     1       3.685   0.793   0.243  0.00  0.00    -0.003 C 
ATOM     11  C   UNL     1       3.943   0.686  -1.259  0.00  0.00    -0.001 C 
ATOM     12  C   UNL     1       3.322  -0.620  -1.765  0.00  0.00    +0.005 C 
ATOM     13  C   UNL     1       1.811  -0.551  -1.560  0.00  0.00    +0.013 C 
ATOM     14  C   UNL     1       1.468  -0.430  -0.073  0.00  0.00    +0.011 C 
ATOM     15  C   UNL     1       2.211   0.759   0.561  0.00  0.00    +0.004 C 
ATOM     16  C   UNL     1       1.455   1.980  -0.001  0.00  0.00    +0.010 C 
ATOM     17  C   UNL     1      -0.018   1.512   0.010  0.00  0.00    +0.053 C 
ATOM     18  C   UNL     1       0.002  -0.004   0.002  0.00  0.00    +0.043 C 
ATOM     19  N   UNL     1      -1.015  -0.780   0.050  0.00  0.00    -0.187 NA
ATOM     20  C   UNL     1       1.718  -1.743   0.672  0.00  0.00    +0.018 C 
ENDROOT
BRANCH  19  21
ATOM     21  N   UNL     1      -2.306  -0.239   0.117  0.00  0.00    -0.191 N 
ATOM     22  C   UNL     1      -3.377  -1.056   0.167  0.00  0.00    +0.317 C 
ATOM     23  O   UNL     1      -4.497  -0.587   0.225  0.00  0.00    -0.251 OA
ATOM     24  N   UNL     1      -3.206  -2.393   0.152  0.00  0.00    -0.312 N 
ATOM     25  H   UNL     1      -2.429   0.723   0.127  0.00  0.00    +0.179 HD
ATOM     26  H   UNL     1      -2.312  -2.767   0.106  0.00  0.00    +0.147 HD
ATOM     27  H   UNL     1      -3.977  -2.981   0.189  0.00  0.00    +0.147 HD
ENDBRANCH  19  21
BRANCH   5  28
ATOM     28  O   UNL     1       9.251   1.801  -2.996  0.00  0.00    -0.392 OA
ATOM     29  H   UNL     1       9.486   1.736  -3.931  0.00  0.00    +0.210 HD
ENDBRANCH   5  28
TORSDOF 2
