REMARK  Name = ZINC39593704
REMARK  5 active torsions:
REMARK  status: ('A' for Active; 'I' for Inactive)
REMARK    1  A    between atoms: C_1  and  O_2
REMARK    2  A    between atoms: O_2  and  C_3
REMARK    3  A    between atoms: C_6  and  C_9
REMARK    4  A    between atoms: C_11  and  C_15
REMARK    5  A    between atoms: C_21  and  C_24
REMARK                            x       y       z     vdW  Elec       q    Type
REMARK                         _______ _______ _______ _____ _____    ______ ____
ROOT
ATOM      1  C   UNL     1       4.777  -4.730   5.505  0.00  0.00    +0.181 A 
ATOM      2  N   UNL     1       5.837  -4.202   4.969  0.00  0.00    -0.129 NA
ATOM      3  N   UNL     1       6.780  -5.075   4.903  0.00  0.00    -0.121 NA
ATOM      4  C   UNL     1       6.357  -6.204   5.380  0.00  0.00    +0.211 A 
ATOM      5  N   UNL     1       5.069  -6.044   5.825  0.00  0.00    -0.222 N 
ATOM      6  N   UNL     1       4.441  -7.090   6.433  0.00  0.00    -0.260 N 
ATOM      7  C   UNL     1       5.008  -8.430   6.122  0.00  0.00    +0.218 C 
ATOM      8  S   UNL     1       6.731  -7.912   5.716  0.00  0.00    -0.053 S 
ATOM      9  H   UNL     1       4.381  -6.946   7.430  0.00  0.00    +0.168 HD
ENDROOT
BRANCH   1  12
ATOM     10  C   UNL     1       2.577  -2.541   4.295  0.00  0.00    +0.091 C 
ATOM     11  C   UNL     1       2.697  -3.875   4.440  0.00  0.00    +0.039 C 
ATOM     12  C   UNL     1       3.462  -4.032   5.742  0.00  0.00    +0.222 C 
ATOM     13  N   UNL     1       3.679  -2.642   6.174  0.00  0.00    -0.171 NA
ATOM     14  N   UNL     1       3.173  -1.896   5.332  0.00  0.00    -0.153 NA
BRANCH  10  18
ATOM     15  C   UNL     1       0.626  -0.618   1.041  0.00  0.00    +0.120 A 
ATOM     16  C   UNL     1       1.202   0.142   2.050  0.00  0.00    +0.046 A 
ATOM     17  C   UNL     1       1.835  -0.479   3.107  0.00  0.00    +0.013 A 
ATOM     18  C   UNL     1       1.896  -1.870   3.161  0.00  0.00    +0.002 A 
ATOM     19  C   UNL     1       1.317  -2.631   2.146  0.00  0.00    +0.013 A 
ATOM     20  C   UNL     1       0.681  -2.005   1.095  0.00  0.00    +0.046 A 
BRANCH  15  22
ATOM     21  C   UNL     1      -0.017   1.425   0.010  0.00  0.00    +0.277 C 
ATOM     22  O   UNL     1       0.002  -0.004   0.002  0.00  0.00    -0.495 OA
ENDBRANCH  15  22
ENDBRANCH  10  18
ENDBRANCH   1  12
BRANCH   7  23
ATOM     23  C   UNL     1       4.329  -9.055   4.930  0.00  0.00    +0.137 A 
ATOM     24  C   UNL     1       4.159 -10.373   4.724  0.00  0.00    +0.047 A 
ATOM     25  C   UNL     1       3.480 -10.511   3.492  0.00  0.00    +0.041 A 
ATOM     26  C   UNL     1       3.276  -9.268   3.018  0.00  0.00    +0.195 A 
ATOM     27  O   UNL     1       3.787  -8.390   3.897  0.00  0.00    -0.465 OA
ENDBRANCH   7  23
TORSDOF 4
