REMARK  Name = ZINC55238407
REMARK  8 active torsions:
REMARK  status: ('A' for Active; 'I' for Inactive)
REMARK    1  A    between atoms: C_1  and  C_2
REMARK    2  A    between atoms: C_2  and  C_3
REMARK    3  A    between atoms: C_2  and  C_4
REMARK    4  A    between atoms: C_2  and  C_5
REMARK    5  A    between atoms: C_8  and  C_11
REMARK    6  A    between atoms: C_11  and  O_12
REMARK    7  A    between atoms: O_12  and  C_13
REMARK    8  A    between atoms: C_13  and  C_15
REMARK                            x       y       z     vdW  Elec       q    Type
REMARK                         _______ _______ _______ _____ _____    ______ ____
ROOT
ATOM      1  C   UNL     1       3.097  -1.209  -6.993  0.00  0.00    +0.345 C 
ATOM      2  O   UNL     1       3.734  -2.236  -7.128  0.00  0.00    -0.245 OA
ENDROOT
BRANCH   1   3
ATOM      3  C   UNL     1       2.952  -0.281  -8.124  0.00  0.00    +0.124 A 
ATOM      4  C   UNL     1       3.529  -0.561  -9.356  0.00  0.00    +0.033 A 
ATOM      5  C   UNL     1       3.361   0.360 -10.412  0.00  0.00    +0.038 A 
ATOM      6  C   UNL     1       2.628   1.521 -10.228  0.00  0.00    +0.030 A 
ATOM      7  N   UNL     1       2.072   1.796  -9.031  0.00  0.00    -0.325 N 
ATOM      8  H   UNL     1       1.569   2.619  -8.924  0.00  0.00    +0.169 HD
ATOM      9  C   UNL     1       2.189   0.963  -7.984  0.00  0.00    +0.263 A 
ATOM     10  O   UNL     1       1.666   1.242  -6.920  0.00  0.00    -0.267 OA
ATOM     11  C   UNL     1       2.421   2.505 -11.351  0.00  0.00    +0.054 C 
ATOM     12  C   UNL     1       3.513   2.378 -12.409  0.00  0.00    +0.014 C 
ATOM     13  C   UNL     1       3.577   0.925 -12.898  0.00  0.00    +0.080 C 
ATOM     14  C   UNL     1       3.982   0.071 -11.716  0.00  0.00    +0.165 C 
ATOM     15  O   UNL     1       4.793  -0.824 -11.838  0.00  0.00    -0.292 OA
ENDBRANCH   1   3
BRANCH   1  16
ATOM     16  O   UNL     1       2.525  -0.921  -5.807  0.00  0.00    -0.456 OA
BRANCH  16  17
ATOM     17  C   UNL     1       2.707  -1.868  -4.752  0.00  0.00    +0.268 C 
BRANCH  17  21
ATOM     18  C   UNL     1       0.707  -0.490  -1.238  0.00  0.00    -0.042 A 
ATOM     19  C   UNL     1       0.036  -1.284  -2.148  0.00  0.00    +0.004 A 
ATOM     20  C   UNL     1       0.683  -1.730  -3.286  0.00  0.00    +0.007 A 
ATOM     21  C   UNL     1       2.001  -1.381  -3.513  0.00  0.00    -0.010 A 
ATOM     22  C   UNL     1       2.672  -0.586  -2.603  0.00  0.00    +0.007 A 
ATOM     23  C   UNL     1       2.024  -0.137  -1.467  0.00  0.00    +0.004 A 
BRANCH  18  25
ATOM     24  C   UNL     1      -0.019   1.526   0.010  0.00  0.00    +0.015 C 
ATOM     25  C   UNL     1       0.002  -0.004   0.002  0.00  0.00    -0.013 C 
ATOM     26  C   UNL     1       0.742  -0.511   1.242  0.00  0.00    +0.015 C 
ATOM     27  C   UNL     1      -1.433  -0.534   0.013  0.00  0.00    +0.015 C 
ENDBRANCH  18  25
ENDBRANCH  17  21
ENDBRANCH  16  17
ENDBRANCH   1  16
TORSDOF 5
