REMARK  Name = ZINC28008548
REMARK  8 active torsions:
REMARK  status: ('A' for Active; 'I' for Inactive)
REMARK    1  A    between atoms: C_1  and  C_2
REMARK    2  A    between atoms: C_9  and  S_12
REMARK    3  A    between atoms: S_12  and  C_13
REMARK    4  A    between atoms: C_13  and  C_14
REMARK    5  A    between atoms: C_16  and  C_19
REMARK    6  A    between atoms: C_19  and  C_20
REMARK    7  A    between atoms: C_19  and  C_21
REMARK    8  A    between atoms: C_19  and  C_22
REMARK                            x       y       z     vdW  Elec       q    Type
REMARK                         _______ _______ _______ _____ _____    ______ ____
ROOT
ATOM      1  C   UNL     1      -7.381  -5.596   1.097  0.00  0.00    +0.044 C 
ATOM      2  C   UNL     1      -6.479  -4.902   0.110  0.00  0.00    -0.048 A 
ATOM      3  C   UNL     1      -6.701  -5.053  -1.251  0.00  0.00    +0.005 A 
ATOM      4  C   UNL     1      -5.883  -4.424  -2.167  0.00  0.00    +0.028 A 
ATOM      5  C   UNL     1      -4.832  -3.635  -1.726  0.00  0.00    +0.067 A 
ATOM      6  C   UNL     1      -4.602  -3.478  -0.349  0.00  0.00    +0.090 A 
ATOM      7  C   UNL     1      -5.439  -4.122   0.565  0.00  0.00    +0.033 A 
ATOM      8  N   UNL     1      -3.519  -2.668  -0.213  0.00  0.00    -0.222 NA
ATOM      9  C   UNL     1      -3.082  -2.317  -1.398  0.00  0.00    +0.168 A 
ATOM     10  N   UNL     1      -3.856  -2.889  -2.367  0.00  0.00    -0.333 N 
ATOM     11  H   UNL     1      -3.825  -2.853  -3.466  0.00  0.00    +0.168 HD
ENDROOT
BRANCH   9  12
ATOM     12  S   UNL     1      -1.698  -1.268  -1.695  0.00  0.00    -0.080 S 
BRANCH  12  13
ATOM     13  C   UNL     1      -1.200  -0.912   0.009  0.00  0.00    +0.157 C 
BRANCH  13  14
ATOM     14  C   UNL     1       0.002  -0.004   0.002  0.00  0.00    +0.182 A 
ATOM     15  N   UNL     1       1.291  -0.389  -0.012  0.00  0.00    -0.195 NA
ATOM     16  C   UNL     1       1.990   0.720  -0.013  0.00  0.00    +0.233 A 
ATOM     17  O   UNL     1       1.117   1.731   0.001  0.00  0.00    -0.337 OA
ATOM     18  N   UNL     1      -0.015   1.295   0.009  0.00  0.00    -0.060 NA
BRANCH  16  19
ATOM     19  C   UNL     1       3.493   0.832  -0.026  0.00  0.00    +0.041 C 
ATOM     20  C   UNL     1       4.044   0.158  -1.284  0.00  0.00    +0.020 C 
ATOM     21  C   UNL     1       3.894   2.309  -0.022  0.00  0.00    +0.020 C 
ATOM     22  C   UNL     1       4.067   0.145   1.214  0.00  0.00    +0.020 C 
ENDBRANCH  16  19
ENDBRANCH  13  14
ENDBRANCH  12  13
ENDBRANCH   9  12
TORSDOF 4
