REMARK  Name = ZINC18202932
REMARK  4 active torsions:
REMARK  status: ('A' for Active; 'I' for Inactive)
REMARK    1  A    between atoms: C_1  and  C_2
REMARK    2  A    between atoms: C_2  and  C_28
REMARK    3  A    between atoms: C_6  and  C_18
REMARK    4  A    between atoms: C_11  and  C_13
REMARK                            x       y       z     vdW  Elec       q    Type
REMARK                         _______ _______ _______ _____ _____    ______ ____
ROOT
ATOM      1  C   UNL     1      -0.019   1.526   0.010  0.00  0.00    +0.011 C 
ATOM      2  C   UNL     1       0.002  -0.004   0.002  0.00  0.00    -0.023 C 
ATOM      3  C   UNL     1      -1.431  -0.539   0.041  0.00  0.00    +0.058 C 
ATOM      4  C   UNL     1      -1.409  -2.049   0.077  0.00  0.00    +0.020 C 
ATOM      5  C   UNL     1      -0.393  -2.714   0.667  0.00  0.00    +0.041 C 
ATOM      6  C   UNL     1      -0.342  -4.226   0.717  0.00  0.00    +0.175 C 
ATOM      7  N   UNL     1      -1.641  -4.780   0.360  0.00  0.00    -0.220 N 
ATOM      8  C   UNL     1      -2.628  -4.054  -0.222  0.00  0.00    +0.219 A 
ATOM      9  N   UNL     1      -3.649  -4.844  -0.415  0.00  0.00    -0.189 NA
ATOM     10  C   UNL     1      -3.356  -6.070   0.031  0.00  0.00    +0.256 A 
ATOM     11  N   UNL     1      -2.138  -6.074   0.513  0.00  0.00    -0.143 NA
ATOM     12  N   UNL     1      -2.464  -2.709  -0.507  0.00  0.00    -0.287 N 
ATOM     13  C   UNL     1       0.675  -2.019   1.263  0.00  0.00    +0.164 C 
ATOM     14  O   UNL     1       1.564  -2.646   1.806  0.00  0.00    -0.292 OA
ATOM     15  C   UNL     1       0.742  -0.517   1.242  0.00  0.00    +0.086 C 
ATOM     16  C   UNL     1       0.706  -0.503  -1.262  0.00  0.00    +0.011 C 
ATOM     17  H   UNL     1      -3.075  -2.246  -1.101  0.00  0.00    +0.155 HD
ENDROOT
BRANCH   6  18
ATOM     18  C   UNL     1       0.696  -4.724  -0.255  0.00  0.00    -0.018 A 
ATOM     19  C   UNL     1       0.579  -4.432  -1.601  0.00  0.00    +0.007 A 
ATOM     20  C   UNL     1       1.531  -4.889  -2.493  0.00  0.00    +0.020 A 
ATOM     21  C   UNL     1       2.601  -5.638  -2.039  0.00  0.00    +0.041 A 
ATOM     22  C   UNL     1       2.718  -5.930  -0.691  0.00  0.00    +0.020 A 
ATOM     23  C   UNL     1       1.769  -5.468   0.201  0.00  0.00    +0.007 A 
ATOM     24 CL   UNL     1       3.797  -6.212  -3.158  0.00  0.00    -0.084 Cl
ENDBRANCH   6  18
BRANCH  10  25
ATOM     25  C   UNL     1      -4.281  -7.259  -0.015  0.00  0.00    +0.454 C 
ATOM     26  F   UNL     1      -5.343  -6.991  -0.886  0.00  0.00    -0.163 F 
ATOM     27  F   UNL     1      -3.577  -8.380  -0.469  0.00  0.00    -0.163 F 
ATOM     28  F   UNL     1      -4.782  -7.510   1.266  0.00  0.00    -0.163 F 
ENDBRANCH  10  25
TORSDOF 2
