REMARK  Name = ZINC15676334
REMARK  7 active torsions:
REMARK  status: ('A' for Active; 'I' for Inactive)
REMARK    1  A    between atoms: C_3  and  C_33
REMARK    2  A    between atoms: C_6  and  C_7
REMARK    3  A    between atoms: C_7  and  N_8
REMARK    4  A    between atoms: C_9  and  C_11
REMARK    5  A    between atoms: N_21  and  C_22
REMARK    6  A    between atoms: C_22  and  C_23
REMARK    7  A    between atoms: C_26  and  C_29
REMARK                            x       y       z     vdW  Elec       q    Type
REMARK                         _______ _______ _______ _____ _____    ______ ____
ROOT
ATOM      1  C   UNL     1      -3.441  -1.799  -2.843  0.00  0.00    +0.149 C 
ATOM      2  C   UNL     1      -3.828  -0.489  -3.545  0.00  0.00    +0.083 C 
ATOM      3  C   UNL     1      -4.292  -0.830  -4.937  0.00  0.00    +0.040 A 
ATOM      4  C   UNL     1      -4.627  -2.081  -5.326  0.00  0.00    +0.051 A 
ATOM      5  N   UNL     1      -4.986  -2.030  -6.610  0.00  0.00    -0.349 N 
ATOM      6  C   UNL     1      -4.889  -0.796  -7.033  0.00  0.00    +0.171 A 
ATOM      7  N   UNL     1      -4.457  -0.018  -6.013  0.00  0.00    -0.349 N 
ATOM      8  H   UNL     1      -4.298   0.939  -6.044  0.00  0.00    +0.166 HD
ATOM      9  C   UNL     1      -4.580  -3.275  -4.405  0.00  0.00    +0.140 C 
ATOM     10  N   UNL     1      -4.516  -2.786  -3.018  0.00  0.00    -0.281 NA
ATOM     11  H   UNL     1      -5.274  -2.787  -7.144  0.00  0.00    +0.166 HD
ENDROOT
BRANCH   1  13
ATOM     12  N   UNL     1      -1.990  -1.325  -0.897  0.00  0.00    -0.310 N 
ATOM     13  C   UNL     1      -3.232  -1.539  -1.374  0.00  0.00    +0.231 C 
ATOM     14  O   UNL     1      -4.182  -1.522  -0.620  0.00  0.00    -0.274 OA
ATOM     15  H   UNL     1      -1.230  -1.338  -1.500  0.00  0.00    +0.149 HD
BRANCH  12  16
ATOM     16  C   UNL     1      -1.786  -1.072   0.531  0.00  0.00    +0.139 C 
BRANCH  16  22
ATOM     17  C   UNL     1       0.223   0.405   0.735  0.00  0.00    +0.006 A 
ATOM     18  C   UNL     1       1.566   0.601   0.981  0.00  0.00    +0.019 A 
ATOM     19  C   UNL     1       2.380  -0.488   1.298  0.00  0.00    +0.052 A 
ATOM     20  C   UNL     1       1.828  -1.769   1.363  0.00  0.00    +0.019 A 
ATOM     21  C   UNL     1       0.483  -1.950   1.115  0.00  0.00    +0.006 A 
ATOM     22  C   UNL     1      -0.318  -0.867   0.801  0.00  0.00    -0.030 A 
BRANCH  19  23
ATOM     23  C   UNL     1       3.775  -0.293   1.554  0.00  0.00    +0.099 C 
ATOM     24  N   UNL     1       4.882  -0.138   1.758  0.00  0.00    -0.191 NA
ENDBRANCH  19  23
ENDBRANCH  16  22
ENDBRANCH  12  16
ENDBRANCH   1  13
BRANCH  10  25
ATOM     25  C   UNL     1      -4.365  -3.901  -2.074  0.00  0.00    +0.120 C 
BRANCH  25  26
ATOM     26  C   UNL     1      -5.654  -4.678  -2.004  0.00  0.00    -0.033 A 
ATOM     27  C   UNL     1      -6.624  -4.327  -1.083  0.00  0.00    +0.005 A 
ATOM     28  C   UNL     1      -7.807  -5.040  -1.020  0.00  0.00    +0.012 A 
ATOM     29  C   UNL     1      -8.020  -6.104  -1.876  0.00  0.00    +0.055 A 
ATOM     30  C   UNL     1      -7.050  -6.455  -2.797  0.00  0.00    +0.012 A 
ATOM     31  C   UNL     1      -5.869  -5.739  -2.864  0.00  0.00    +0.005 A 
BRANCH  29  32
ATOM     32  C   UNL     1      -9.308  -6.881  -1.805  0.00  0.00    +0.417 C 
ATOM     33  F   UNL     1     -10.249  -6.304  -2.665  0.00  0.00    -0.166 F 
ATOM     34  F   UNL     1      -9.075  -8.206  -2.191  0.00  0.00    -0.166 F 
ATOM     35  F   UNL     1      -9.797  -6.856  -0.495  0.00  0.00    -0.166 F 
ENDBRANCH  29  32
ENDBRANCH  25  26
ENDBRANCH  10  25
TORSDOF 7
