REMARK  Name = ZINC05902044
REMARK  2 active torsions:
REMARK  status: ('A' for Active; 'I' for Inactive)
REMARK    1  A    between atoms: C_4  and  C_7
REMARK    2  A    between atoms: C_14  and  C_20
REMARK                            x       y       z     vdW  Elec       q    Type
REMARK                         _______ _______ _______ _____ _____    ______ ____
ROOT
ATOM      1  C   UNL     1      -0.070   5.347   0.032  0.00  0.00    +0.061 C 
ATOM      2  C   UNL     1      -0.975   5.896  -1.097  0.00  0.00    +0.114 C 
ATOM      3  N   UNL     1      -2.293   6.098  -0.481  0.00  0.00    -0.314 N 
ATOM      4  C   UNL     1      -2.208   6.106   0.864  0.00  0.00    +0.229 C 
ATOM      5  O   UNL     1      -3.141   6.272   1.621  0.00  0.00    -0.275 OA
ATOM      6  C   UNL     1      -0.784   5.881   1.283  0.00  0.00    +0.139 C 
ATOM      7  C   UNL     1      -0.128   7.180   1.774  0.00  0.00    +0.061 C 
ATOM      8  C   UNL     1       0.813   6.651   2.883  0.00  0.00    +0.114 C 
ATOM      9  N   UNL     1       0.221   5.382   3.327  0.00  0.00    -0.314 N 
ATOM     10  C   UNL     1      -0.674   4.920   2.432  0.00  0.00    +0.229 C 
ATOM     11  O   UNL     1      -1.298   3.886   2.539  0.00  0.00    -0.275 OA
ATOM     12  H   UNL     1      -3.119   6.209  -0.979  0.00  0.00    +0.149 HD
ATOM     13  H   UNL     1       0.446   4.934   4.158  0.00  0.00    +0.149 HD
ENDROOT
BRANCH   1  17
ATOM     14  C   UNL     1      -0.013   1.076   0.008  0.00  0.00    +0.000 A 
ATOM     15  C   UNL     1      -1.219   1.751   0.017  0.00  0.00    +0.000 A 
ATOM     16  C   UNL     1      -1.238   3.133   0.029  0.00  0.00    +0.004 A 
ATOM     17  C   UNL     1      -0.050   3.840   0.023  0.00  0.00    -0.041 A 
ATOM     18  C   UNL     1       1.156   3.165   0.008  0.00  0.00    +0.004 A 
ATOM     19  C   UNL     1       1.175   1.783   0.000  0.00  0.00    +0.000 A 
ENDBRANCH   1  17
BRANCH   7  20
ATOM     20  C   UNL     1      -1.156   8.123   2.343  0.00  0.00    -0.041 A 
ATOM     21  C   UNL     1      -1.930   7.734   3.420  0.00  0.00    +0.004 A 
ATOM     22  C   UNL     1      -2.870   8.601   3.945  0.00  0.00    +0.000 A 
ATOM     23  C   UNL     1      -3.043   9.854   3.386  0.00  0.00    +0.000 A 
ATOM     24  C   UNL     1      -2.273  10.241   2.305  0.00  0.00    +0.000 A 
ATOM     25  C   UNL     1      -1.329   9.376   1.784  0.00  0.00    +0.004 A 
ENDBRANCH   7  20
TORSDOF 2
