REMARK  Name = ZINC38819074
REMARK  5 active torsions:
REMARK  status: ('A' for Active; 'I' for Inactive)
REMARK    1  A    between atoms: C_1  and  C_2
REMARK    2  A    between atoms: C_7  and  C_12
REMARK    3  A    between atoms: C_13  and  N_27
REMARK    4  A    between atoms: N_14  and  C_18
REMARK    5  A    between atoms: C_21  and  C_24
REMARK                            x       y       z     vdW  Elec       q    Type
REMARK                         _______ _______ _______ _____ _____    ______ ____
ROOT
ATOM      1  C   UNL     1       1.324  -5.167   1.798  0.00  0.00    +0.074 C 
ATOM      2  C   UNL     1       1.360  -6.402   2.400  0.00  0.00    +0.099 C 
ATOM      3  N   UNL     1       2.615  -6.710   2.845  0.00  0.00    -0.281 N 
ATOM      4  C   UNL     1       3.493  -5.579   2.510  0.00  0.00    +0.191 C 
ATOM      5  C   UNL     1       2.588  -4.586   1.812  0.00  0.00    +0.183 C 
ATOM      6  O   UNL     1       2.902  -3.502   1.358  0.00  0.00    -0.290 OA
ENDROOT
BRANCH   1  13
ATOM      7  C   UNL     1      -0.363   1.333  -0.139  0.00  0.00    +0.044 C 
ATOM      8  C   UNL     1      -0.177  -0.161  -0.190  0.00  0.00    -0.048 A 
ATOM      9  C   UNL     1       0.114  -0.763  -1.427  0.00  0.00    +0.005 A 
ATOM     10  C   UNL     1       0.295  -2.092  -1.564  0.00  0.00    +0.027 A 
ATOM     11  C   UNL     1       0.189  -2.963  -0.386  0.00  0.00    +0.060 A 
ATOM     12  N   UNL     1       0.312  -4.249  -0.222  0.00  0.00    -0.359 N 
ATOM     13  C   UNL     1       0.093  -4.534   1.202  0.00  0.00    +0.212 C 
ATOM     14  N   UNL     1      -0.173  -3.242   1.847  0.00  0.00    -0.359 N 
ATOM     15  C   UNL     1      -0.118  -2.326   0.924  0.00  0.00    +0.061 A 
ATOM     16  C   UNL     1      -0.290  -0.867   0.953  0.00  0.00    +0.030 A 
ATOM     17  H   UNL     1       0.510  -4.899  -0.913  0.00  0.00    +0.162 HD
ATOM     18  H   UNL     1      -0.357  -3.098   2.788  0.00  0.00    +0.162 HD
ENDBRANCH   1  13
BRANCH   3  19
ATOM     19  C   UNL     1       2.992  -7.881   3.497  0.00  0.00    +0.035 A 
ATOM     20  C   UNL     1       3.864  -8.771   2.877  0.00  0.00    +0.024 A 
ATOM     21  C   UNL     1       4.238  -9.925   3.516  0.00  0.00    +0.017 A 
ATOM     22  C   UNL     1       3.743 -10.206   4.794  0.00  0.00    +0.063 A 
ATOM     23  C   UNL     1       2.867  -9.309   5.415  0.00  0.00    +0.017 A 
ATOM     24  C   UNL     1       2.501  -8.155   4.771  0.00  0.00    +0.024 A 
BRANCH  22  25
ATOM     25  C   UNL     1       4.142 -11.444   5.484  0.00  0.00    +0.387 C 
ATOM     26  O   UNL     1       4.907 -12.228   4.940  0.00  0.00    -0.241 OA
ATOM     27  O   UNL     1       3.708 -11.689   6.601  0.00  0.00    -0.241 OA
ENDBRANCH  22  25
ENDBRANCH   3  19
BRANCH   2  28
ATOM     28  N   UNL     1       0.273  -7.222   2.536  0.00  0.00    -0.346 N 
ATOM     29  H   UNL     1      -0.607  -6.909   2.273  0.00  0.00    +0.143 HD
ATOM     30  H   UNL     1       0.382  -8.117   2.895  0.00  0.00    +0.143 HD
ENDBRANCH   2  28
TORSDOF 4
