REMARK  Name = ZINC15956671
REMARK  7 active torsions:
REMARK  status: ('A' for Active; 'I' for Inactive)
REMARK    1  A    between atoms: C_1  and  C_2
REMARK    2  A    between atoms: C_7  and  C_8
REMARK    3  A    between atoms: C_17  and  C_20
REMARK    4  A    between atoms: C_20  and  C_21
REMARK    5  A    between atoms: C_21  and  C_22
REMARK    6  A    between atoms: N_27  and  C_30
REMARK    7  A    between atoms: C_30  and  C_31
REMARK                            x       y       z     vdW  Elec       q    Type
REMARK                         _______ _______ _______ _____ _____    ______ ____
ROOT
ATOM      1  C   UNL     1      -0.212   1.546  -0.082  0.00  0.00    +0.044 C 
ATOM      2  C   UNL     1      -0.153   0.040  -0.067  0.00  0.00    -0.046 A 
ATOM      3  C   UNL     1      -0.116  -0.659  -1.259  0.00  0.00    +0.004 A 
ATOM      4  C   UNL     1      -0.062  -2.042  -1.246  0.00  0.00    +0.008 A 
ATOM      5  C   UNL     1      -0.045  -2.719  -0.047  0.00  0.00    +0.004 A 
ATOM      6  C   UNL     1      -0.083  -2.026   1.159  0.00  0.00    +0.042 A 
ATOM      7  C   UNL     1      -0.132  -0.634   1.136  0.00  0.00    -0.026 A 
ATOM      8  C   UNL     1      -0.166   0.138   2.430  0.00  0.00    +0.046 C 
ATOM      9  N   UNL     1      -0.059  -2.921   2.232  0.00  0.00    -0.283 N 
ATOM     10  C   UNL     1      -0.006  -4.203   1.821  0.00  0.00    +0.243 C 
ATOM     11  O   UNL     1       0.022  -5.189   2.528  0.00  0.00    -0.273 OA
ATOM     12  C   UNL     1       0.010  -4.175   0.317  0.00  0.00    +0.136 C 
ATOM     13  C   UNL     1      -1.175  -4.949  -0.271  0.00  0.00    +0.122 C 
ATOM     14  C   UNL     1      -0.590  -6.340  -0.644  0.00  0.00    +0.107 C 
ATOM     15  C   UNL     1       0.896  -6.266  -0.234  0.00  0.00    +0.068 C 
ATOM     16  N   UNL     1       1.223  -4.822  -0.219  0.00  0.00    -0.295 NA
ATOM     17  C   UNL     1      -1.327  -7.286   0.277  0.00  0.00    +0.227 C 
ATOM     18  O   UNL     1      -1.174  -8.488   0.315  0.00  0.00    -0.275 OA
ATOM     19  N   UNL     1      -2.175  -6.590   1.043  0.00  0.00    -0.237 N 
ATOM     20  C   UNL     1      -2.178  -5.256   0.817  0.00  0.00    +0.229 C 
ATOM     21  O   UNL     1      -2.865  -4.437   1.389  0.00  0.00    -0.275 OA
ATOM     22  H   UNL     1      -0.078  -2.651   3.163  0.00  0.00    +0.155 HD
ATOM     23  H   UNL     1       1.423  -4.497  -1.153  0.00  0.00    +0.123 HD
ENDROOT
BRANCH  15  24
ATOM     24  C   UNL     1       1.766  -7.017  -1.244  0.00  0.00    +0.028 C 
BRANCH  24  25
ATOM     25  C   UNL     1       3.215  -7.037  -0.754  0.00  0.00    +0.097 C 
BRANCH  25  26
ATOM     26  C   UNL     1       4.071  -7.777  -1.750  0.00  0.00    +0.211 C 
ATOM     27  O   UNL     1       3.571  -8.242  -2.752  0.00  0.00    -0.276 OA
ATOM     28  N   UNL     1       5.392  -7.922  -1.526  0.00  0.00    -0.329 N 
ATOM     29  H   UNL     1       5.792  -7.550  -0.724  0.00  0.00    +0.145 HD
ATOM     30  H   UNL     1       5.943  -8.398  -2.167  0.00  0.00    +0.145 HD
ENDBRANCH  25  26
ENDBRANCH  24  25
ENDBRANCH  15  24
BRANCH  19  31
ATOM     31  C   UNL     1      -3.039  -7.221   2.043  0.00  0.00    +0.153 C 
BRANCH  31  32
ATOM     32  C   UNL     1      -2.264  -7.427   3.319  0.00  0.00    -0.011 A 
ATOM     33  C   UNL     1      -1.649  -8.641   3.566  0.00  0.00    +0.006 A 
ATOM     34  C   UNL     1      -0.938  -8.830   4.736  0.00  0.00    +0.000 A 
ATOM     35  C   UNL     1      -0.840  -7.806   5.659  0.00  0.00    +0.001 A 
ATOM     36  C   UNL     1      -1.453  -6.592   5.413  0.00  0.00    +0.020 A 
ATOM     37  C   UNL     1      -2.161  -6.400   4.240  0.00  0.00    +0.046 A 
ATOM     38 CL   UNL     1      -2.926  -4.874   3.927  0.00  0.00    -0.083 Cl
ENDBRANCH  31  32
ENDBRANCH  19  31
TORSDOF 5
