REMARK  Name = ZINC50470359
REMARK  5 active torsions:
REMARK  status: ('A' for Active; 'I' for Inactive)
REMARK    1  A    between atoms: C_3  and  C_10
REMARK    2  A    between atoms: C_5  and  C_7
REMARK    3  A    between atoms: C_10  and  O_11
REMARK    4  A    between atoms: O_11  and  C_12
REMARK    5  A    between atoms: C_15  and  N_19
REMARK                            x       y       z     vdW  Elec       q    Type
REMARK                         _______ _______ _______ _____ _____    ______ ____
ROOT
ATOM      1  C   UNL     1      -0.017   1.375   0.010  0.00  0.00    +0.001 A 
ATOM      2  C   UNL     1       1.170   2.086   0.002  0.00  0.00    +0.007 A 
ATOM      3  C   UNL     1       2.382   1.420  -0.013  0.00  0.00    -0.010 A 
ATOM      4  C   UNL     1       2.415   0.040  -0.021  0.00  0.00    +0.018 A 
ATOM      5  C   UNL     1       1.222  -0.682  -0.014  0.00  0.00    +0.012 A 
ATOM      6  C   UNL     1       0.002  -0.004   0.002  0.00  0.00    +0.011 A 
ENDROOT
BRANCH   5   7
ATOM      7  C   UNL     1       1.249  -2.162  -0.023  0.00  0.00    +0.094 C 
ATOM      8  N   UNL     1       0.108  -2.849  -0.016  0.00  0.00    -0.387 N 
ATOM      9  N   UNL     1       2.414  -2.806  -0.038  0.00  0.00    -0.345 N 
ATOM     10  H   UNL     1      -0.741  -2.379  -0.004  0.00  0.00    +0.157 HD
ATOM     11  H   UNL     1       3.245  -2.305  -0.043  0.00  0.00    +0.144 HD
ATOM     12  H   UNL     1       2.432  -3.776  -0.044  0.00  0.00    +0.144 HD
ATOM     13  H   UNL     1       0.126  -3.818  -0.022  0.00  0.00    +0.157 HD
ENDBRANCH   5   7
BRANCH   3  14
ATOM     14  C   UNL     1       3.671   2.202  -0.021  0.00  0.00    +0.264 C 
BRANCH  14  15
ATOM     15  O   UNL     1       4.090   2.442   1.323  0.00  0.00    -0.487 OA
BRANCH  15  16
ATOM     16  C   UNL     1       5.244   3.141   1.494  0.00  0.00    +0.123 A 
ATOM     17  C   UNL     1       5.954   3.591   0.390  0.00  0.00    +0.048 A 
ATOM     18  C   UNL     1       7.125   4.301   0.566  0.00  0.00    +0.038 A 
ATOM     19  C   UNL     1       7.592   4.563   1.841  0.00  0.00    +0.145 A 
ATOM     20  C   UNL     1       6.887   4.115   2.943  0.00  0.00    +0.075 A 
ATOM     21  C   UNL     1       5.710   3.409   2.772  0.00  0.00    +0.068 A 
ATOM     22 CL   UNL     1       7.476   4.446   4.543  0.00  0.00    -0.081 Cl
BRANCH  19  23
ATOM     23  N   UNL     1       8.848   5.324   2.026  0.00  0.00    +0.058 N 
ATOM     24  O   UNL     1       9.465   5.715   1.062  0.00  0.00    -0.126 OA
ATOM     25  O   UNL     1       9.257   5.554   3.140  0.00  0.00    -0.126 OA
ENDBRANCH  19  23
ENDBRANCH  15  16
ENDBRANCH  14  15
ENDBRANCH   3  14
TORSDOF 5
