REMARK  Name = ZINC63406564
REMARK  8 active torsions:
REMARK  status: ('A' for Active; 'I' for Inactive)
REMARK    1  A    between atoms: C_1  and  C_2
REMARK    2  A    between atoms: N_4  and  C_9
REMARK    3  A    between atoms: C_6  and  C_8
REMARK    4  A    between atoms: C_9  and  C_10
REMARK    5  A    between atoms: C_10  and  N_11
REMARK    6  A    between atoms: N_14  and  C_15
REMARK    7  A    between atoms: C_18  and  C_21
REMARK    8  A    between atoms: N_23  and  C_24
REMARK                            x       y       z     vdW  Elec       q    Type
REMARK                         _______ _______ _______ _____ _____    ______ ____
ROOT
ATOM      1  N   UNL     1       4.915  -0.172  -3.695  0.00  0.00    -0.298 N 
ATOM      2  C   UNL     1       6.146   0.314  -3.947  0.00  0.00    +0.300 C 
ATOM      3  O   UNL     1       6.666   1.089  -3.167  0.00  0.00    -0.253 OA
ATOM      4  N   UNL     1       6.802  -0.059  -5.065  0.00  0.00    -0.297 N 
ATOM      5  H   UNL     1       4.500  -0.789  -4.317  0.00  0.00    +0.150 HD
ATOM      6  H   UNL     1       6.387  -0.676  -5.687  0.00  0.00    +0.151 HD
ENDROOT
BRANCH   4   7
ATOM      7  C   UNL     1       8.141   0.469  -5.339  0.00  0.00    +0.074 C 
ATOM      8  C   UNL     1       8.021   1.825  -6.038  0.00  0.00    +0.023 C 
ATOM      9  C   UNL     1       7.260   1.655  -7.354  0.00  0.00    +0.014 C 
ATOM     10  C   UNL     1       8.018   0.680  -8.258  0.00  0.00    +0.075 C 
ATOM     11  C   UNL     1       8.137  -0.676  -7.559  0.00  0.00    +0.014 C 
ATOM     12  C   UNL     1       8.898  -0.505  -6.243  0.00  0.00    +0.023 C 
BRANCH  10  13
ATOM     13  C   UNL     1       7.268   0.512  -9.555  0.00  0.00    +0.216 C 
ATOM     14  O   UNL     1       6.231   1.113  -9.738  0.00  0.00    -0.276 OA
ATOM     15  N   UNL     1       7.751  -0.305 -10.511  0.00  0.00    -0.318 N 
ATOM     16  C   UNL     1       7.023  -0.468 -11.772  0.00  0.00    +0.128 C 
ATOM     17  H   UNL     1       8.581  -0.786 -10.365  0.00  0.00    +0.148 HD
ENDBRANCH  10  13
ENDBRANCH   4   7
BRANCH   1  18
ATOM     18  C   UNL     1       4.202   0.234  -2.481  0.00  0.00    +0.121 C 
BRANCH  18  19
ATOM     19  C   UNL     1       2.837  -0.456  -2.437  0.00  0.00    +0.103 C 
BRANCH  19  23
ATOM     20  C   UNL     1      -0.019   1.526   0.010  0.00  0.00    +0.039 C 
ATOM     21  C   UNL     1       0.002  -0.004   0.002  0.00  0.00    +0.130 C 
ATOM     22  C   UNL     1       0.723  -0.499  -1.255  0.00  0.00    +0.115 C 
ATOM     23  N   UNL     1       2.123  -0.050  -1.219  0.00  0.00    -0.296 NA
ATOM     24  C   UNL     1       2.801  -0.555  -0.017  0.00  0.00    +0.115 C 
ATOM     25  C   UNL     1       2.059  -0.059   1.228  0.00  0.00    +0.130 C 
ATOM     26  O   UNL     1       0.694  -0.479   1.160  0.00  0.00    -0.371 OA
ATOM     27  C   UNL     1       2.713  -0.647   2.480  0.00  0.00    +0.039 C 
ENDBRANCH  19  23
ENDBRANCH  18  19
ENDBRANCH   1  18
TORSDOF 5
