REMARK  Name = ZINC13987319
REMARK  15 active torsions:
REMARK  status: ('A' for Active; 'I' for Inactive)
REMARK    1  A    between atoms: C_1  and  C_2
REMARK    2  A    between atoms: C_5  and  C_9
REMARK    3  A    between atoms: N_11  and  C_12
REMARK    4  A    between atoms: C_12  and  N_14
REMARK    5  A    between atoms: N_14  and  C_15
REMARK    6  A    between atoms: C_15  and  C_17
REMARK    7  A    between atoms: C_15  and  C_21
REMARK    8  A    between atoms: C_17  and  C_18
REMARK    9  A    between atoms: C_18  and  S_19
REMARK   10  A    between atoms: S_19  and  C_20
REMARK   11  A    between atoms: C_21  and  C_22
REMARK   12  A    between atoms: C_21  and  C_25
REMARK   13  A    between atoms: C_21  and  O_28
REMARK   14  A    between atoms: C_22  and  C_23
REMARK   15  A    between atoms: C_25  and  C_26
REMARK                            x       y       z     vdW  Elec       q    Type
REMARK                         _______ _______ _______ _____ _____    ______ ____
ROOT
ATOM      1  N   UNL     1      -2.157   0.813   1.046  0.00  0.00    -0.321 N 
ATOM      2  H   UNL     1      -2.213  -0.057   0.620  0.00  0.00    +0.148 HD
ENDROOT
BRANCH   1   3
ATOM      3  C   UNL     1      -3.214   1.302   1.723  0.00  0.00    +0.137 C 
ATOM      4  S   UNL     1      -3.162   2.889   2.363  0.00  0.00    -0.018 S 
BRANCH   3   7
ATOM      5  C   UNL     1      -5.371   1.030   2.574  0.00  0.00    +0.250 C 
ATOM      6  O   UNL     1      -5.334   2.156   3.028  0.00  0.00    -0.270 OA
ATOM      7  N   UNL     1      -4.314   0.541   1.896  0.00  0.00    -0.264 N 
ATOM      8  H   UNL     1      -4.343  -0.358   1.534  0.00  0.00    +0.157 HD
BRANCH   5  13
ATOM      9  C   UNL     1     -10.063  -2.219   3.313  0.00  0.00    +0.045 C 
ATOM     10  C   UNL     1      -8.835  -1.368   3.120  0.00  0.00    -0.037 A 
ATOM     11  C   UNL     1      -7.750  -1.873   2.424  0.00  0.00    +0.005 A 
ATOM     12  C   UNL     1      -6.625  -1.097   2.238  0.00  0.00    +0.013 A 
ATOM     13  C   UNL     1      -6.576   0.196   2.764  0.00  0.00    +0.038 A 
ATOM     14  C   UNL     1      -7.674   0.699   3.464  0.00  0.00    +0.027 A 
ATOM     15  C   UNL     1      -8.796  -0.085   3.638  0.00  0.00    +0.017 A 
ATOM     16  I   UNL     1     -10.445   0.667   4.689  0.00  0.00    -0.044 I 
ENDBRANCH   5  13
ENDBRANCH   3   7
ENDBRANCH   1   3
BRANCH   1  17
ATOM     17  C   UNL     1      -0.921   1.595   0.954  0.00  0.00    +0.105 C 
BRANCH  17  18
ATOM     18  C   UNL     1      -0.192   1.244  -0.345  0.00  0.00    +0.036 C 
BRANCH  18  19
ATOM     19  C   UNL     1      -1.053   1.655  -1.541  0.00  0.00    +0.071 C 
BRANCH  19  20
ATOM     20  S   UNL     1      -0.188   1.239  -3.080  0.00  0.00    -0.164 S 
ATOM     21  C   UNL     1      -1.326   1.782  -4.384  0.00  0.00    +0.084 C 
ENDBRANCH  19  20
ENDBRANCH  18  19
ENDBRANCH  17  18
BRANCH  17  22
ATOM     22  C   UNL     1      -0.021   1.270   2.148  0.00  0.00    +0.091 C 
BRANCH  22  23
ATOM     23  O   UNL     1      -0.730   1.528   3.362  0.00  0.00    -0.386 OA
ATOM     24  H   UNL     1      -0.219   1.344   4.162  0.00  0.00    +0.210 HD
ENDBRANCH  22  23
BRANCH  22  25
ATOM     25  C   UNL     1       0.382  -0.205   2.097  0.00  0.00    +0.063 C 
BRANCH  25  26
ATOM     26  C   UNL     1      -0.845  -1.067   2.251  0.00  0.00    -0.032 C 
ATOM     27  C   UNL     1      -1.112  -1.992   1.362  0.00  0.00    +0.004 C 
ENDBRANCH  25  26
ENDBRANCH  22  25
BRANCH  22  28
ATOM     28  C   UNL     1       1.233   2.144   2.093  0.00  0.00    +0.063 C 
BRANCH  28  29
ATOM     29  C   UNL     1       0.838   3.596   2.168  0.00  0.00    -0.032 C 
ATOM     30  C   UNL     1       1.342   4.365   3.101  0.00  0.00    +0.004 C 
ENDBRANCH  28  29
ENDBRANCH  22  28
ENDBRANCH  17  22
ENDBRANCH   1  17
TORSDOF 13
