REMARK  Name = ZINC04132271
REMARK  4 active torsions:
REMARK  status: ('A' for Active; 'I' for Inactive)
REMARK    1  A    between atoms: C_1  and  O_2
REMARK    2  A    between atoms: O_2  and  C_3
REMARK    3  A    between atoms: C_5  and  N_25
REMARK    4  A    between atoms: C_10  and  C_19
REMARK                            x       y       z     vdW  Elec       q    Type
REMARK                         _______ _______ _______ _____ _____    ______ ____
ROOT
ATOM      1  C   UNL     1       5.242   1.477  -0.825  0.00  0.00    +0.143 A 
ATOM      2  C   UNL     1       5.783   0.215  -0.975  0.00  0.00    +0.080 A 
ATOM      3  C   UNL     1       4.956  -0.887  -1.084  0.00  0.00    +0.130 A 
ATOM      4  C   UNL     1       3.585  -0.719  -1.051  0.00  0.00    +0.039 A 
ATOM      5  C   UNL     1       3.035   0.546  -0.890  0.00  0.00    -0.014 A 
ATOM      6  C   UNL     1       3.855   1.660  -0.784  0.00  0.00    +0.074 A 
ATOM      7  N   UNL     1       3.380   2.962  -0.615  0.00  0.00    -0.334 N 
ATOM      8  C   UNL     1       1.920   3.145  -0.656  0.00  0.00    +0.105 C 
ATOM      9  C   UNL     1       1.304   1.960   0.059  0.00  0.00    +0.029 C 
ATOM     10  C   UNL     1       1.570   0.748  -0.887  0.00  0.00    +0.049 C 
ATOM     11  C   UNL     1       0.622  -0.280  -0.391  0.00  0.00    -0.023 C 
ATOM     12  C   UNL     1      -0.423   0.337   0.152  0.00  0.00    -0.030 C 
ATOM     13  C   UNL     1      -0.225   1.853   0.087  0.00  0.00    +0.033 C 
ATOM     14  H   UNL     1       3.842   3.600  -1.246  0.00  0.00    +0.147 HD
ENDROOT
BRANCH   8  15
ATOM     15  C   UNL     1       1.448   3.184  -2.087  0.00  0.00    -0.027 A 
ATOM     16  C   UNL     1       2.203   2.591  -3.081  0.00  0.00    +0.005 A 
ATOM     17  C   UNL     1       1.768   2.622  -4.392  0.00  0.00    +0.000 A 
ATOM     18  C   UNL     1       0.581   3.256  -4.711  0.00  0.00    +0.000 A 
ATOM     19  C   UNL     1      -0.172   3.854  -3.718  0.00  0.00    +0.000 A 
ATOM     20  C   UNL     1       0.262   3.818  -2.406  0.00  0.00    +0.005 A 
ENDBRANCH   8  15
BRANCH   3  21
ATOM     21  N   UNL     1       5.536  -2.240  -1.236  0.00  0.00    +0.057 N 
ATOM     22  O   UNL     1       6.745  -2.385  -1.265  0.00  0.00    -0.126 OA
ATOM     23  O   UNL     1       4.804  -3.209  -1.332  0.00  0.00    -0.126 OA
ENDBRANCH   3  21
BRANCH   1  25
ATOM     24  C   UNL     1       7.472   2.303  -0.767  0.00  0.00    +0.277 C 
ATOM     25  O   UNL     1       6.066   2.554  -0.718  0.00  0.00    -0.493 OA
ENDBRANCH   1  25
TORSDOF 3
