REMARK  Name = ZINC36590031
REMARK  12 active torsions:
REMARK  status: ('A' for Active; 'I' for Inactive)
REMARK    1  A    between atoms: C_1  and  C_2
REMARK    2  A    between atoms: C_2  and  C_3
REMARK    3  A    between atoms: C_2  and  C_4
REMARK    4  A    between atoms: C_2  and  N_5
REMARK    5  A    between atoms: N_5  and  C_6
REMARK    6  A    between atoms: C_6  and  C_8
REMARK    7  A    between atoms: C_6  and  C_17
REMARK    8  A    between atoms: C_9  and  O_16
REMARK    9  A    between atoms: C_11  and  O_15
REMARK   10  A    between atoms: C_13  and  O_14
REMARK   11  A    between atoms: N_19  and  C_20
REMARK   12  A    between atoms: C_26  and  C_28
REMARK                            x       y       z     vdW  Elec       q    Type
REMARK                         _______ _______ _______ _____ _____    ______ ____
ROOT
ATOM      1  C   UNL     1       2.006   0.108  -1.725  0.00  0.00    +0.200 C 
ENDROOT
BRANCH   1   2
ATOM      2  C   UNL     1       2.528  -0.439  -0.422  0.00  0.00    +0.065 A 
ATOM      3  C   UNL     1       1.685  -0.542   0.674  0.00  0.00    +0.129 A 
ATOM      4  C   UNL     1       2.166  -1.045   1.874  0.00  0.00    +0.091 A 
ATOM      5  C   UNL     1       3.489  -1.446   1.977  0.00  0.00    +0.124 A 
ATOM      6  C   UNL     1       4.332  -1.344   0.880  0.00  0.00    +0.091 A 
ATOM      7  C   UNL     1       3.850  -0.845  -0.320  0.00  0.00    +0.129 A 
BRANCH   7   8
ATOM      8  O   UNL     1       4.675  -0.749  -1.396  0.00  0.00    -0.506 OA
ATOM      9  H   UNL     1       5.144   0.094  -1.458  0.00  0.00    +0.292 HD
ENDBRANCH   7   8
BRANCH   5  10
ATOM     10  O   UNL     1       3.961  -1.938   3.153  0.00  0.00    -0.507 OA
ATOM     11  H   UNL     1       3.870  -2.896   3.243  0.00  0.00    +0.292 HD
ENDBRANCH   5  10
BRANCH   3  12
ATOM     12  O   UNL     1       0.388  -0.149   0.574  0.00  0.00    -0.506 OA
ATOM     13  H   UNL     1      -0.233  -0.876   0.424  0.00  0.00    +0.292 HD
ENDBRANCH   3  12
ENDBRANCH   1   2
BRANCH   1  14
ATOM     14  C   UNL     1       2.949   1.163  -2.242  0.00  0.00    +0.239 C 
ATOM     15  O   UNL     1       3.021   2.238  -1.684  0.00  0.00    -0.273 OA
ATOM     16  N   UNL     1       3.713   0.913  -3.323  0.00  0.00    -0.311 N 
ATOM     17  H   UNL     1       3.656   0.054  -3.770  0.00  0.00    +0.149 HD
BRANCH  16  18
ATOM     18  C   UNL     1       4.631   1.939  -3.825  0.00  0.00    +0.073 C 
ATOM     19  C   UNL     1       3.875   2.886  -4.760  0.00  0.00    +0.022 C 
ATOM     20  C   UNL     1       4.833   3.957  -5.284  0.00  0.00    +0.002 C 
ATOM     21  C   UNL     1       5.976   3.288  -6.051  0.00  0.00    +0.000 C 
ATOM     22  C   UNL     1       6.732   2.342  -5.116  0.00  0.00    +0.002 C 
ATOM     23  C   UNL     1       5.774   1.270  -4.592  0.00  0.00    +0.022 C 
ENDBRANCH  16  18
ENDBRANCH   1  14
BRANCH   1  24
ATOM     24  N   UNL     1       0.682   0.699  -1.512  0.00  0.00    -0.280 N 
ATOM     25  C   UNL     1      -0.408  -0.092  -1.458  0.00  0.00    +0.232 C 
ATOM     26  O   UNL     1      -1.512   0.402  -1.372  0.00  0.00    -0.274 OA
BRANCH  24  28
ATOM     27  C   UNL     1       1.101   2.850  -2.597  0.00  0.00    +0.031 C 
ATOM     28  C   UNL     1       0.543   2.149  -1.356  0.00  0.00    +0.030 C 
ATOM     29  C   UNL     1       1.320   2.606  -0.120  0.00  0.00    +0.031 C 
ATOM     30  C   UNL     1      -0.935   2.505  -1.190  0.00  0.00    +0.031 C 
ENDBRANCH  24  28
BRANCH  25  31
ATOM     31  C   UNL     1      -0.255  -1.591  -1.505  0.00  0.00    +0.204 C 
ATOM     32 CL   UNL     1      -1.881  -2.364  -1.415  0.00  0.00    -0.116 Cl
ENDBRANCH  25  31
ENDBRANCH   1  24
TORSDOF 9
