REMARK  Name = ZINC08224110
REMARK  6 active torsions:
REMARK  status: ('A' for Active; 'I' for Inactive)
REMARK    1  A    between atoms: C_1  and  C_2
REMARK    2  A    between atoms: C_4  and  C_19
REMARK    3  A    between atoms: C_5  and  C_18
REMARK    4  A    between atoms: C_6  and  O_8
REMARK    5  A    between atoms: O_8  and  C_9
REMARK    6  A    between atoms: C_9  and  C_10
REMARK                            x       y       z     vdW  Elec       q    Type
REMARK                         _______ _______ _______ _____ _____    ______ ____
ROOT
ATOM      1  C   UNL     1       5.981  -0.737  -0.062  0.00  0.00    +0.173 A 
ATOM      2  N   UNL     1       6.524  -1.133   1.076  0.00  0.00    -0.196 NA
ATOM      3  C   UNL     1       7.588  -1.932   1.065  0.00  0.00    +0.217 A 
ATOM      4  N   UNL     1       8.111  -2.323  -0.092  0.00  0.00    -0.181 NA
ATOM      5  C   UNL     1       7.565  -1.919  -1.234  0.00  0.00    +0.217 A 
ATOM      6  N   UNL     1       6.498  -1.124  -1.215  0.00  0.00    -0.196 NA
ATOM      7  N   UNL     1       8.104  -2.322  -2.439  0.00  0.00    -0.327 N 
ATOM      8  N   UNL     1       8.152  -2.350   2.253  0.00  0.00    -0.327 N 
ATOM      9  H   UNL     1       7.706  -2.026  -3.272  0.00  0.00    +0.145 HD
ATOM     10  H   UNL     1       8.882  -2.901  -2.452  0.00  0.00    +0.145 HD
ATOM     11  H   UNL     1       8.930  -2.929   2.244  0.00  0.00    +0.145 HD
ATOM     12  H   UNL     1       7.769  -2.064   3.098  0.00  0.00    +0.145 HD
ENDROOT
BRANCH   1  13
ATOM     13  C   UNL     1       4.772   0.164  -0.044  0.00  0.00    +0.305 C 
BRANCH  13  14
ATOM     14  O   UNL     1       3.586  -0.632  -0.037  0.00  0.00    -0.484 OA
BRANCH  14  20
ATOM     15  C   UNL     1       1.146   3.595   0.010  0.00  0.00    +0.044 C 
ATOM     16  C   UNL     1       1.170   2.088   0.002  0.00  0.00    -0.047 A 
ATOM     17  C   UNL     1      -0.017   1.378   0.010  0.00  0.00    +0.007 A 
ATOM     18  C   UNL     1       0.002  -0.004   0.002  0.00  0.00    -0.044 A 
ATOM     19  C   UNL     1       1.207  -0.680  -0.014  0.00  0.00    -0.006 A 
ATOM     20  C   UNL     1       2.399   0.030  -0.021  0.00  0.00    +0.125 A 
ATOM     21  C   UNL     1       2.377   1.417  -0.013  0.00  0.00    +0.049 A 
ATOM     22  C   UNL     1       1.227  -2.187  -0.022  0.00  0.00    +0.048 C 
ATOM     23  C   UNL     1      -1.293  -0.775   0.010  0.00  0.00    +0.044 C 
ENDBRANCH  14  20
ENDBRANCH  13  14
ENDBRANCH   1  13
TORSDOF 3
