REMARK  Name = ZINC53993874
REMARK  6 active torsions:
REMARK  status: ('A' for Active; 'I' for Inactive)
REMARK    1  A    between atoms: C_1  and  C_2
REMARK    2  A    between atoms: C_5  and  C_8
REMARK    3  A    between atoms: C_10  and  C_15
REMARK    4  A    between atoms: C_11  and  N_13
REMARK    5  A    between atoms: N_13  and  N_14
REMARK    6  A    between atoms: C_17  and  C_20
REMARK                            x       y       z     vdW  Elec       q    Type
REMARK                         _______ _______ _______ _____ _____    ______ ____
ROOT
ATOM      1  C   UNL     1       0.060  -4.251  -0.021  0.00  0.00    +0.230 A 
ATOM      2  N   UNL     1       0.070  -5.011   1.043  0.00  0.00    -0.202 NA
ATOM      3  C   UNL     1       0.087  -6.311   0.647  0.00  0.00    +0.190 A 
ATOM      4  C   UNL     1       0.087  -6.311  -0.739  0.00  0.00    +0.233 A 
ATOM      5  O   UNL     1       0.064  -5.022  -1.125  0.00  0.00    -0.420 OA
ENDROOT
BRANCH   1  10
ATOM      6  C   UNL     1      -0.018   1.503   0.010  0.00  0.00    +0.044 C 
ATOM      7  C   UNL     1       0.002  -0.004   0.002  0.00  0.00    -0.050 A 
ATOM      8  C   UNL     1       0.006  -0.686  -1.202  0.00  0.00    +0.004 A 
ATOM      9  C   UNL     1       0.024  -2.065  -1.217  0.00  0.00    +0.013 A 
ATOM     10  C   UNL     1       0.040  -2.773  -0.013  0.00  0.00    +0.037 A 
ATOM     11  C   UNL     1       0.037  -2.079   1.198  0.00  0.00    +0.013 A 
ATOM     12  C   UNL     1       0.023  -0.699   1.198  0.00  0.00    +0.004 A 
ENDBRANCH   1  10
BRANCH   3  13
ATOM     13  C   UNL     1       0.103  -7.491   1.522  0.00  0.00    +0.282 A 
ATOM     14  N   UNL     1       0.098  -7.478   2.838  0.00  0.00    -0.186 NA
ATOM     15  C   UNL     1       0.116  -8.734   3.308  0.00  0.00    +0.202 A 
ATOM     16  N   UNL     1       0.133  -9.566   2.295  0.00  0.00    -0.056 NA
ATOM     17  O   UNL     1       0.120  -8.775   1.116  0.00  0.00    -0.331 OA
BRANCH  15  18
ATOM     18  C   UNL     1       0.117  -9.120   4.741  0.00  0.00    +0.022 A 
ATOM     19  C   UNL     1       0.092  -8.138   5.729  0.00  0.00    +0.012 A 
ATOM     20  C   UNL     1       0.092  -8.502   7.061  0.00  0.00    +0.001 A 
ATOM     21  C   UNL     1       0.118  -9.839   7.415  0.00  0.00    +0.000 A 
ATOM     22  C   UNL     1       0.144 -10.818   6.438  0.00  0.00    +0.001 A 
ATOM     23  C   UNL     1       0.137 -10.465   5.103  0.00  0.00    +0.012 A 
ENDBRANCH  15  18
ENDBRANCH   3  13
BRANCH   4  24
ATOM     24  N   UNL     1       0.101  -7.417  -1.561  0.00  0.00    -0.252 N 
ATOM     25  H   UNL     1       0.114  -8.307  -1.177  0.00  0.00    +0.169 HD
BRANCH  24  26
ATOM     26  N   UNL     1       0.099  -7.259  -2.918  0.00  0.00    -0.254 NA
ATOM     27  H   UNL     1       0.872  -6.684  -3.217  0.00  0.00    +0.140 HD
ATOM     28  H   UNL     1       0.111  -8.153  -3.386  0.00  0.00    +0.140 HD
ENDBRANCH  24  26
ENDBRANCH   4  24
TORSDOF 5
