REMARK  Name = ZINC44924362
REMARK  4 active torsions:
REMARK  status: ('A' for Active; 'I' for Inactive)
REMARK    1  A    between atoms: C_1  and  C_2
REMARK    2  A    between atoms: C_2  and  N_9
REMARK    3  A    between atoms: N_9  and  C_10
REMARK    4  A    between atoms: C_19  and  N_20
REMARK                            x       y       z     vdW  Elec       q    Type
REMARK                         _______ _______ _______ _____ _____    ______ ____
ROOT
ATOM      1  C   UNL     1      -1.181  -0.013  -2.825  0.00  0.00    +0.059 A 
ATOM      2  C   UNL     1      -0.815  -0.706  -4.001  0.00  0.00    +0.022 A 
ATOM      3  C   UNL     1      -1.392  -1.942  -4.328  0.00  0.00    +0.027 A 
ATOM      4  C   UNL     1      -1.015  -2.581  -5.471  0.00  0.00    +0.019 A 
ATOM      5  C   UNL     1      -0.061  -2.021  -6.320  0.00  0.00    +0.017 A 
ATOM      6  C   UNL     1       0.518  -0.824  -6.032  0.00  0.00    +0.027 A 
ATOM      7  C   UNL     1       0.154  -0.135  -4.862  0.00  0.00    +0.048 A 
ATOM      8  N   UNL     1       0.708   1.044  -4.558  0.00  0.00    -0.359 N 
ATOM      9  C   UNL     1       0.380   1.701  -3.470  0.00  0.00    +0.107 A 
ATOM     10  C   UNL     1      -0.568   1.210  -2.574  0.00  0.00    +0.063 A 
ATOM     11 BR   UNL     1      -1.793  -4.247  -5.910  0.00  0.00    -0.050 Br
ATOM     12  H   UNL     1       1.370   1.423  -5.157  0.00  0.00    +0.165 HD
ENDROOT
BRANCH  10  13
ATOM     13  N   UNL     1      -0.899   1.942  -1.425  0.00  0.00    -0.355 N 
ATOM     14  H   UNL     1      -0.664   1.600  -0.548  0.00  0.00    +0.142 HD
ATOM     15  H   UNL     1      -1.362   2.791  -1.507  0.00  0.00    +0.142 HD
ENDBRANCH  10  13
BRANCH   1  16
ATOM     16  N   UNL     1      -2.127  -0.535  -1.950  0.00  0.00    -0.335 N 
ATOM     17  H   UNL     1      -2.997  -0.808  -2.282  0.00  0.00    +0.147 HD
BRANCH  16  19
ATOM     18  C   UNL     1      -0.291  -0.645  -0.358  0.00  0.00    +0.033 C 
ATOM     19  C   UNL     1      -1.811  -0.672  -0.526  0.00  0.00    +0.050 C 
ATOM     20  C   UNL     1      -2.407   0.520   0.222  0.00  0.00    +0.049 C 
ATOM     21  C   UNL     1      -3.852   0.194   0.692  0.00  0.00    +0.168 C 
ATOM     22  S   UNL     1      -3.619  -1.564   1.206  0.00  0.00    -0.029 S 
ATOM     23  O   UNL     1      -4.811  -2.291   0.943  0.00  0.00    -0.174 OA
ATOM     24  O   UNL     1      -3.048  -1.599   2.507  0.00  0.00    -0.174 OA
ATOM     25  C   UNL     1      -2.339  -2.033  -0.031  0.00  0.00    +0.191 C 
ENDBRANCH  16  19
ENDBRANCH   1  16
TORSDOF 3
