REMARK  Name = ZINC19354078
REMARK  3 active torsions:
REMARK  status: ('A' for Active; 'I' for Inactive)
REMARK    1  A    between atoms: C_1  and  C_2
REMARK    2  A    between atoms: C_3  and  C_15
REMARK    3  A    between atoms: N_5  and  C_7
REMARK                            x       y       z     vdW  Elec       q    Type
REMARK                         _______ _______ _______ _____ _____    ______ ____
ROOT
ATOM      1  C   UNL     1      -0.005  -0.342  -2.566  0.00  0.00    +0.214 C 
ATOM      2  N   UNL     1       0.958  -1.121  -3.366  0.00  0.00    -0.293 N 
ATOM      3  C   UNL     1       0.601  -2.350  -3.856  0.00  0.00    +0.183 C 
ATOM      4  N   UNL     1      -0.654  -2.633  -4.159  0.00  0.00    -0.183 NA
ATOM      5  C   UNL     1      -1.602  -1.696  -3.917  0.00  0.00    +0.236 A 
ATOM      6  N   UNL     1      -1.327  -0.570  -3.160  0.00  0.00    -0.285 N 
ATOM      7  C   UNL     1      -2.470   0.192  -3.106  0.00  0.00    +0.076 A 
ATOM      8  C   UNL     1      -2.798   1.408  -2.520  0.00  0.00    +0.077 A 
ATOM      9  C   UNL     1      -4.075   1.917  -2.658  0.00  0.00    +0.164 A 
ATOM     10  C   UNL     1      -5.039   1.218  -3.380  0.00  0.00    +0.164 A 
ATOM     11  C   UNL     1      -4.731   0.008  -3.966  0.00  0.00    +0.079 A 
ATOM     12  C   UNL     1      -3.443  -0.519  -3.834  0.00  0.00    +0.095 A 
ATOM     13  N   UNL     1      -2.854  -1.665  -4.292  0.00  0.00    -0.210 NA
ATOM     14  O   UNL     1      -6.295   1.740  -3.507  0.00  0.00    -0.488 OA
ATOM     15  C   UNL     1      -7.076   1.788  -2.312  0.00  0.00    +0.232 C 
ATOM     16  C   UNL     1      -6.759   3.041  -1.510  0.00  0.00    +0.082 C 
ATOM     17  C   UNL     1      -5.327   3.054  -0.999  0.00  0.00    +0.232 C 
ATOM     18  O   UNL     1      -4.400   3.113  -2.084  0.00  0.00    -0.488 OA
ATOM     19  N   UNL     1       1.564  -3.305  -4.035  0.00  0.00    -0.331 N 
ATOM     20  H   UNL     1       1.842  -0.765  -3.545  0.00  0.00    +0.151 HD
ATOM     21  H   UNL     1       2.489  -3.108  -3.816  0.00  0.00    +0.145 HD
ATOM     22  H   UNL     1       1.323  -4.179  -4.380  0.00  0.00    +0.145 HD
ENDROOT
BRANCH   1  25
ATOM     23  C   UNL     1      -0.018   1.503   0.010  0.00  0.00    +0.068 C 
ATOM     24  C   UNL     1       0.002  -0.004   0.002  0.00  0.00    +0.069 A 
ATOM     25  C   UNL     1       0.008  -0.818  -1.136  0.00  0.00    +0.053 A 
ATOM     26  C   UNL     1       0.027  -2.108  -0.726  0.00  0.00    +0.140 A 
ATOM     27  N   UNL     1       0.034  -2.109   0.627  0.00  0.00    -0.221 N 
ATOM     28  N   UNL     1       0.023  -0.777   1.058  0.00  0.00    -0.170 NA
ATOM     29 CL   UNL     1       0.041  -3.509  -1.751  0.00  0.00    -0.061 Cl
BRANCH  27  30
ATOM     30  C   UNL     1       0.053  -3.244   1.452  0.00  0.00    +0.067 A 
ATOM     31  C   UNL     1      -0.618  -4.396   1.064  0.00  0.00    +0.030 A 
ATOM     32  C   UNL     1      -0.598  -5.512   1.877  0.00  0.00    +0.040 A 
ATOM     33  C   UNL     1       0.091  -5.482   3.078  0.00  0.00    +0.124 A 
ATOM     34  C   UNL     1       0.760  -4.334   3.466  0.00  0.00    +0.040 A 
ATOM     35  C   UNL     1       0.747  -3.218   2.653  0.00  0.00    +0.030 A 
ATOM     36  F   UNL     1       0.110  -6.575   3.872  0.00  0.00    -0.205 F 
ENDBRANCH  27  30
ENDBRANCH   1  25
TORSDOF 2
