REMARK  Name = ZINC49502615
REMARK  7 active torsions:
REMARK  status: ('A' for Active; 'I' for Inactive)
REMARK    1  A    between atoms: C_1  and  C_2
REMARK    2  A    between atoms: C_2  and  C_4
REMARK    3  A    between atoms: C_2  and  N_11
REMARK    4  A    between atoms: C_4  and  N_5
REMARK    5  A    between atoms: N_11  and  S_12
REMARK    6  A    between atoms: S_12  and  C_15
REMARK    7  A    between atoms: N_21  and  N_22
REMARK                            x       y       z     vdW  Elec       q    Type
REMARK                         _______ _______ _______ _____ _____    ______ ____
ROOT
ATOM      1  S   UNL     1      -2.144  -1.107   1.304  0.00  0.00    +0.060 S 
ATOM      2  O   UNL     1      -3.351  -1.772   0.960  0.00  0.00    -0.153 OA
ATOM      3  O   UNL     1      -1.180  -1.680   2.176  0.00  0.00    -0.153 OA
ENDROOT
BRANCH   1   4
ATOM      4  C   UNL     1      -2.604   0.441   2.010  0.00  0.00    +0.123 A 
ATOM      5  C   UNL     1      -1.740   1.104   2.871  0.00  0.00    +0.033 A 
ATOM      6  C   UNL     1      -2.140   2.316   3.404  0.00  0.00    +0.046 A 
ATOM      7  C   UNL     1      -3.387   2.827   3.060  0.00  0.00    +0.132 A 
ATOM      8  N   UNL     1      -4.183   2.165   2.234  0.00  0.00    -0.237 NA
ATOM      9  C   UNL     1      -3.825   1.009   1.707  0.00  0.00    +0.141 A 
ATOM     10  N   UNL     1      -3.802   4.045   3.588  0.00  0.00    -0.268 N 
ATOM     11  H   UNL     1      -3.223   4.533   4.193  0.00  0.00    +0.167 HD
BRANCH  10  12
ATOM     12  N   UNL     1      -5.026   4.552   3.254  0.00  0.00    -0.255 NA
ATOM     13  H   UNL     1      -5.761   3.895   3.468  0.00  0.00    +0.140 HD
ATOM     14  H   UNL     1      -5.187   5.437   3.712  0.00  0.00    +0.140 HD
ENDBRANCH  10  12
ENDBRANCH   1   4
BRANCH   1  15
ATOM     15  N   UNL     1      -1.361  -0.782  -0.119  0.00  0.00    -0.189 NA
ATOM     16  H   UNL     1      -1.750  -1.063  -0.962  0.00  0.00    +0.148 HD
BRANCH  15  18
ATOM     17  C   UNL     1      -0.320   1.418  -0.359  0.00  0.00    +0.024 C 
ATOM     18  C   UNL     1      -0.080  -0.071  -0.104  0.00  0.00    +0.057 C 
BRANCH  18  19
ATOM     19  C   UNL     1       0.829  -0.635  -1.198  0.00  0.00    -0.059 C 
BRANCH  19  20
ATOM     20  N   UNL     1       0.979  -2.084  -1.011  0.00  0.00    +0.381 N 
ATOM     21  C   UNL     1       1.722  -2.648  -2.144  0.00  0.00    -0.079 C 
ATOM     22  C   UNL     1       1.811  -4.168  -1.995  0.00  0.00    -0.019 C 
ATOM     23  C   UNL     1       2.536  -4.506  -0.689  0.00  0.00    -0.004 C 
ATOM     24  C   UNL     1       1.794  -3.851   0.479  0.00  0.00    -0.019 C 
ATOM     25  C   UNL     1       1.705  -2.342   0.238  0.00  0.00    -0.079 C 
ATOM     26  H   UNL     1       0.067  -2.513  -0.963  0.00  0.00    -0.082 HD
ENDBRANCH  19  20
ENDBRANCH  18  19
ENDBRANCH  15  18
ENDBRANCH   1  15
TORSDOF 6
