REMARK  Name = ZINC10155347
REMARK  12 active torsions:
REMARK  status: ('A' for Active; 'I' for Inactive)
REMARK    1  A    between atoms: C_1  and  C_2
REMARK    2  A    between atoms: C_6  and  N_8
REMARK    3  A    between atoms: N_8  and  S_9
REMARK    4  A    between atoms: S_9  and  C_12
REMARK    5  A    between atoms: C_14  and  C_19
REMARK    6  A    between atoms: C_17  and  C_18
REMARK    7  A    between atoms: C_19  and  O_21
REMARK    8  A    between atoms: O_21  and  C_22
REMARK    9  A    between atoms: C_22  and  C_24
REMARK   10  A    between atoms: C_22  and  C_25
REMARK   11  A    between atoms: N_27  and  C_28
REMARK   12  A    between atoms: C_33  and  N_34
REMARK                            x       y       z     vdW  Elec       q    Type
REMARK                         _______ _______ _______ _____ _____    ______ ____
ROOT
ATOM      1  C   UNL     1      -0.100   6.086  -2.207  0.00  0.00    +0.112 A 
ATOM      2  C   UNL     1      -0.429   7.063  -3.123  0.00  0.00    +0.044 A 
ATOM      3  C   UNL     1      -0.928   6.701  -4.376  0.00  0.00    +0.061 A 
ATOM      4  C   UNL     1      -1.099   5.351  -4.689  0.00  0.00    +0.015 A 
ATOM      5  C   UNL     1      -0.770   4.384  -3.761  0.00  0.00    +0.006 A 
ATOM      6  C   UNL     1      -0.272   4.750  -2.523  0.00  0.00    -0.024 A 
ATOM      7  C   UNL     1       0.085   3.688  -1.515  0.00  0.00    +0.046 C 
ENDROOT
BRANCH   1   8
ATOM      8  S   UNL     1       0.535   6.540  -0.627  0.00  0.00    +0.073 S 
ATOM      9  O   UNL     1      -0.223   5.822   0.337  0.00  0.00    -0.150 OA
ATOM     10  O   UNL     1       0.629   7.958  -0.620  0.00  0.00    -0.150 OA
BRANCH   8  11
ATOM     11  N   UNL     1       2.084   5.963  -0.538  0.00  0.00    -0.216 N 
ATOM     12  H   UNL     1       2.317   5.298   0.129  0.00  0.00    +0.174 HD
BRANCH  11  18
ATOM     13  C   UNL     1       5.817   5.044  -3.600  0.00  0.00    +0.044 C 
ATOM     14  C   UNL     1       4.881   6.011  -2.921  0.00  0.00    -0.049 A 
ATOM     15  C   UNL     1       4.984   7.366  -3.176  0.00  0.00    +0.003 A 
ATOM     16  C   UNL     1       4.123   8.256  -2.561  0.00  0.00    +0.002 A 
ATOM     17  C   UNL     1       3.160   7.794  -1.685  0.00  0.00    +0.024 A 
ATOM     18  C   UNL     1       3.057   6.434  -1.422  0.00  0.00    +0.048 A 
ATOM     19  C   UNL     1       3.924   5.543  -2.043  0.00  0.00    +0.027 A 
ENDBRANCH  11  18
ENDBRANCH   8  11
ENDBRANCH   1   8
BRANCH   3  20
ATOM     20  C   UNL     1      -1.278   7.742  -5.364  0.00  0.00    +0.340 C 
ATOM     21  O   UNL     1      -1.127   8.915  -5.090  0.00  0.00    -0.245 OA
BRANCH  20  22
ATOM     22  O   UNL     1      -1.763   7.389  -6.571  0.00  0.00    -0.449 OA
BRANCH  22  23
ATOM     23  C   UNL     1      -2.085   8.464  -7.492  0.00  0.00    +0.259 C 
ATOM     24  C   UNL     1      -0.856   8.793  -8.341  0.00  0.00    +0.062 C 
BRANCH  23  25
ATOM     25  C   UNL     1      -3.216   8.034  -8.390  0.00  0.00    +0.258 C 
ATOM     26  O   UNL     1      -3.703   6.930  -8.266  0.00  0.00    -0.271 OA
ATOM     27  N   UNL     1      -3.687   8.877  -9.331  0.00  0.00    -0.281 N 
ATOM     28  H   UNL     1      -3.259   9.736  -9.470  0.00  0.00    +0.155 HD
BRANCH  27  29
ATOM     29  C   UNL     1      -4.793   8.511 -10.107  0.00  0.00    +0.064 A 
ATOM     30  C   UNL     1      -5.011   7.176 -10.423  0.00  0.00    +0.025 A 
ATOM     31  C   UNL     1      -6.106   6.819 -11.184  0.00  0.00    +0.002 A 
ATOM     32  C   UNL     1      -6.979   7.789 -11.641  0.00  0.00    +0.002 A 
ATOM     33  C   UNL     1      -6.762   9.119 -11.333  0.00  0.00    +0.034 A 
ATOM     34  C   UNL     1      -5.671   9.483 -10.567  0.00  0.00    +0.147 A 
BRANCH  34  35
ATOM     35  N   UNL     1      -5.439  10.907 -10.238  0.00  0.00    +0.058 N 
ATOM     36  O   UNL     1      -6.251  11.751 -10.575  0.00  0.00    -0.126 OA
ATOM     37  O   UNL     1      -4.436  11.236  -9.631  0.00  0.00    -0.126 OA
ENDBRANCH  34  35
ENDBRANCH  27  29
ENDBRANCH  23  25
ENDBRANCH  22  23
ENDBRANCH  20  22
ENDBRANCH   3  20
TORSDOF 9
