REMARK  Name = ZINC09325352
REMARK  8 active torsions:
REMARK  status: ('A' for Active; 'I' for Inactive)
REMARK    1  A    between atoms: C_1  and  O_2
REMARK    2  A    between atoms: O_2  and  C_3
REMARK    3  A    between atoms: C_11  and  N_16
REMARK    4  A    between atoms: C_12  and  C_13
REMARK    5  A    between atoms: C_17  and  C_19
REMARK    6  A    between atoms: C_24  and  N_25
REMARK    7  A    between atoms: N_25  and  S_26
REMARK    8  A    between atoms: S_26  and  C_29
REMARK                            x       y       z     vdW  Elec       q    Type
REMARK                         _______ _______ _______ _____ _____    ______ ____
ROOT
ATOM      1  N   UNL     1       2.943  -1.253  -5.574  0.00  0.00    -0.275 N 
ATOM      2  C   UNL     1       3.385  -1.217  -4.302  0.00  0.00    +0.250 C 
ATOM      3  O   UNL     1       3.225  -2.179  -3.575  0.00  0.00    -0.270 OA
ATOM      4  H   UNL     1       3.070  -0.486  -6.154  0.00  0.00    +0.156 HD
ENDROOT
BRANCH   1  13
ATOM      5  C   UNL     1      -1.371  -6.940  -7.737  0.00  0.00    +0.403 C 
ATOM      6  O   UNL     1      -1.982  -7.082  -8.778  0.00  0.00    -0.226 OA
ATOM      7  N   UNL     1      -0.172  -6.325  -7.738  0.00  0.00    -0.262 N 
ATOM      8  C   UNL     1       0.422  -5.814  -8.983  0.00  0.00    +0.116 C 
ATOM      9  C   UNL     1       0.539  -4.290  -8.907  0.00  0.00    +0.056 C 
ATOM     10  C   UNL     1       1.161  -3.901  -7.572  0.00  0.00    -0.020 A 
ATOM     11  C   UNL     1       1.160  -4.750  -6.522  0.00  0.00    +0.013 A 
ATOM     12  S   UNL     1       1.973  -3.869  -5.221  0.00  0.00    -0.076 S 
ATOM     13  C   UNL     1       2.307  -2.387  -6.055  0.00  0.00    +0.085 A 
ATOM     14  C   UNL     1       1.787  -2.613  -7.322  0.00  0.00    +0.068 A 
ATOM     15  C   UNL     1       0.594  -6.138  -6.490  0.00  0.00    +0.153 C 
BRANCH  14  16
ATOM     16  C   UNL     1       1.867  -1.590  -8.369  0.00  0.00    +0.244 C 
ATOM     17  O   UNL     1       2.829  -1.556  -9.114  0.00  0.00    -0.270 OA
ATOM     18  N   UNL     1       0.876  -0.687  -8.507  0.00  0.00    -0.325 N 
ATOM     19  H   UNL     1       0.109  -0.714  -7.912  0.00  0.00    +0.145 HD
ATOM     20  H   UNL     1       0.928  -0.011  -9.199  0.00  0.00    +0.145 HD
ENDBRANCH  14  16
BRANCH   5  22
ATOM     21  C   UNL     1      -3.187  -8.050  -6.657  0.00  0.00    +0.282 C 
ATOM     22  O   UNL     1      -1.892  -7.398  -6.583  0.00  0.00    -0.454 OA
ENDBRANCH   5  22
ENDBRANCH   1  13
BRANCH   2  23
ATOM     23  C   UNL     1       4.061  -0.011  -3.791  0.00  0.00    +0.059 A 
ATOM     24  C   UNL     1       4.242   1.099  -4.621  0.00  0.00    +0.015 A 
ATOM     25  C   UNL     1       4.880   2.220  -4.139  0.00  0.00    +0.001 A 
ATOM     26  C   UNL     1       5.340   2.257  -2.832  0.00  0.00    +0.002 A 
ATOM     27  C   UNL     1       5.165   1.172  -1.998  0.00  0.00    +0.025 A 
ATOM     28  C   UNL     1       4.523   0.032  -2.466  0.00  0.00    +0.060 A 
BRANCH  28  29
ATOM     29  N   UNL     1       4.345  -1.062  -1.629  0.00  0.00    -0.216 N 
ATOM     30  H   UNL     1       4.401  -1.962  -1.988  0.00  0.00    +0.174 HD
BRANCH  29  31
ATOM     31  S   UNL     1       4.038  -0.831  -0.018  0.00  0.00    +0.072 S 
ATOM     32  O   UNL     1       5.069   0.014   0.474  0.00  0.00    -0.150 OA
ATOM     33  O   UNL     1       3.775  -2.114   0.533  0.00  0.00    -0.150 OA
BRANCH  31  34
ATOM     34  C   UNL     1       2.538   0.085   0.100  0.00  0.00    +0.108 A 
ATOM     35  C   UNL     1       1.327  -0.578   0.174  0.00  0.00    +0.029 A 
ATOM     36  C   UNL     1       0.150   0.141   0.267  0.00  0.00    +0.002 A 
ATOM     37  C   UNL     1       0.183   1.523   0.285  0.00  0.00    +0.000 A 
ATOM     38  C   UNL     1       1.394   2.186   0.211  0.00  0.00    +0.002 A 
ATOM     39  C   UNL     1       2.571   1.467   0.118  0.00  0.00    +0.029 A 
ENDBRANCH  31  34
ENDBRANCH  29  31
ENDBRANCH  28  29
ENDBRANCH   2  23
TORSDOF 7
