REMARK  Name = ZINC01420982
REMARK  7 active torsions:
REMARK  status: ('A' for Active; 'I' for Inactive)
REMARK    1  A    between atoms: C_1  and  O_2
REMARK    2  A    between atoms: O_2  and  C_3
REMARK    3  A    between atoms: C_3  and  C_5
REMARK    4  A    between atoms: C_6  and  N_26
REMARK    5  A    between atoms: C_12  and  C_24
REMARK    6  A    between atoms: C_15  and  C_17
REMARK    7  A    between atoms: C_24  and  O_25
REMARK                            x       y       z     vdW  Elec       q    Type
REMARK                         _______ _______ _______ _____ _____    ______ ____
ROOT
ATOM      1  C   UNL     1      -1.245  -2.035   0.029  0.00  0.00    +0.108 C 
ATOM      2  C   UNL     1      -2.450  -2.659   0.109  0.00  0.00    +0.196 C 
ATOM      3  O   UNL     1      -2.542  -3.998   0.078  0.00  0.00    -0.435 OA
ATOM      4  C   UNL     1      -1.521  -4.736  -0.423  0.00  0.00    +0.215 A 
ATOM      5  C   UNL     1      -1.772  -6.074  -0.843  0.00  0.00    +0.228 A 
ATOM      6  O   UNL     1      -2.889  -6.561  -0.759  0.00  0.00    -0.284 OA
ATOM      7  C   UNL     1      -0.685  -6.821  -1.363  0.00  0.00    +0.098 A 
ATOM      8  C   UNL     1       0.526  -6.236  -1.436  0.00  0.00    +0.134 A 
ATOM      9  O   UNL     1       0.725  -4.981  -1.036  0.00  0.00    -0.457 OA
ATOM     10  C   UNL     1      -0.273  -4.236  -0.534  0.00  0.00    +0.163 A 
ATOM     11  C   UNL     1       0.026  -2.825  -0.100  0.00  0.00    +0.131 C 
ENDROOT
BRANCH  11  12
ATOM     12  C   UNL     1       0.732  -2.857   1.231  0.00  0.00    -0.032 A 
ATOM     13  C   UNL     1       0.106  -3.413   2.332  0.00  0.00    +0.006 A 
ATOM     14  C   UNL     1       0.753  -3.442   3.553  0.00  0.00    +0.015 A 
ATOM     15  C   UNL     1       2.026  -2.915   3.674  0.00  0.00    +0.018 A 
ATOM     16  C   UNL     1       2.651  -2.359   2.573  0.00  0.00    +0.015 A 
ATOM     17  C   UNL     1       2.006  -2.334   1.351  0.00  0.00    +0.006 A 
ATOM     18 BR   UNL     1       2.911  -2.955   5.345  0.00  0.00    -0.050 Br
ENDBRANCH  11  12
BRANCH   2  19
ATOM     19  N   UNL     1      -3.590  -1.909   0.221  0.00  0.00    -0.329 N 
ATOM     20  H   UNL     1      -3.543  -0.943   0.152  0.00  0.00    +0.145 HD
ATOM     21  H   UNL     1      -4.444  -2.344   0.370  0.00  0.00    +0.145 HD
ENDBRANCH   2  19
BRANCH   1  22
ATOM     22  C   UNL     1      -1.188  -0.635   0.063  0.00  0.00    +0.341 C 
ATOM     23  O   UNL     1      -1.032  -0.006  -0.969  0.00  0.00    -0.245 OA
BRANCH  22  25
ATOM     24  C   UNL     1      -1.240   1.445   1.200  0.00  0.00    +0.280 C 
ATOM     25  O   UNL     1      -1.307   0.018   1.240  0.00  0.00    -0.465 OA
ENDBRANCH  22  25
ENDBRANCH   1  22
BRANCH   8  26
ATOM     26  C   UNL     1       1.688  -7.023  -1.987  0.00  0.00    +0.230 C 
BRANCH  26  27
ATOM     27  O   UNL     1       1.246  -8.333  -2.350  0.00  0.00    -0.387 OA
ATOM     28  H   UNL     1       1.944  -8.896  -2.713  0.00  0.00    +0.210 HD
ENDBRANCH  26  27
ENDBRANCH   8  26
TORSDOF 6
