REMARK  Name = ZINC63182301
REMARK  5 active torsions:
REMARK  status: ('A' for Active; 'I' for Inactive)
REMARK    1  A    between atoms: C_4  and  C_21
REMARK    2  A    between atoms: C_6  and  S_7
REMARK    3  A    between atoms: S_7  and  N_10
REMARK    4  A    between atoms: N_10  and  C_11
REMARK    5  A    between atoms: C_16  and  C_17
REMARK                            x       y       z     vdW  Elec       q    Type
REMARK                         _______ _______ _______ _____ _____    ______ ____
ROOT
ATOM      1  N   UNL     1      -1.949  -1.145  -1.568  0.00  0.00    -0.097 NA
ENDROOT
BRANCH   1   2
ATOM      2  C   UNL     1      -3.117  -1.834  -1.868  0.00  0.00    +0.086 A 
ATOM      3  C   UNL     1      -3.925  -2.318  -0.846  0.00  0.00    +0.029 A 
ATOM      4  C   UNL     1      -5.084  -3.003  -1.147  0.00  0.00    +0.022 A 
ATOM      5  C   UNL     1      -5.453  -3.214  -2.467  0.00  0.00    +0.042 A 
ATOM      6  C   UNL     1      -4.664  -2.741  -3.494  0.00  0.00    +0.035 A 
ATOM      7  C   UNL     1      -3.490  -2.041  -3.205  0.00  0.00    +0.062 A 
ATOM      8 CL   UNL     1      -6.914  -4.079  -2.828  0.00  0.00    -0.084 Cl
BRANCH   7   9
ATOM      9  C   UNL     1      -2.645  -1.527  -4.298  0.00  0.00    +0.243 C 
ATOM     10  O   UNL     1      -1.622  -0.922  -4.043  0.00  0.00    -0.270 OA
ATOM     11  N   UNL     1      -3.007  -1.728  -5.581  0.00  0.00    -0.325 N 
ATOM     12  H   UNL     1      -3.823  -2.210  -5.785  0.00  0.00    +0.145 HD
ATOM     13  H   UNL     1      -2.451  -1.389  -6.301  0.00  0.00    +0.145 HD
ENDBRANCH   7   9
ENDBRANCH   1   2
BRANCH   1  14
ATOM     14  S   UNL     1      -1.513  -0.903   0.012  0.00  0.00    +0.092 S 
ATOM     15  O   UNL     1      -1.222  -2.184   0.553  0.00  0.00    -0.148 OA
ATOM     16  O   UNL     1      -2.493  -0.043   0.576  0.00  0.00    -0.148 OA
BRANCH  14  22
ATOM     17  C   UNL     1      -0.017   1.379   0.010  0.00  0.00    +0.030 A 
ATOM     18  C   UNL     1       1.168   2.094   0.002  0.00  0.00    +0.023 A 
ATOM     19  C   UNL     1       2.378   1.430  -0.013  0.00  0.00    +0.058 A 
ATOM     20  C   UNL     1       2.404   0.032  -0.021  0.00  0.00    +0.072 A 
ATOM     21  C   UNL     1       1.204  -0.681  -0.013  0.00  0.00    +0.049 A 
ATOM     22  C   UNL     1       0.002  -0.004   0.002  0.00  0.00    +0.112 A 
ATOM     23 CL   UNL     1       3.864   2.328  -0.023  0.00  0.00    -0.082 Cl
BRANCH  20  24
ATOM     24  C   UNL     1       3.655  -0.664  -0.037  0.00  0.00    +0.101 C 
ATOM     25  N   UNL     1       4.647  -1.217  -0.050  0.00  0.00    -0.191 NA
ENDBRANCH  20  24
ENDBRANCH  14  22
ENDBRANCH   1  14
TORSDOF 5
