REMARK  Name = ZINC03144890
REMARK  10 active torsions:
REMARK  status: ('A' for Active; 'I' for Inactive)
REMARK    1  A    between atoms: C_1  and  O_2
REMARK    2  A    between atoms: O_2  and  C_3
REMARK    3  A    between atoms: C_5  and  C_11
REMARK    4  A    between atoms: C_8  and  O_9
REMARK    5  A    between atoms: N_12  and  N_13
REMARK    6  A    between atoms: C_14  and  C_16
REMARK    7  A    between atoms: C_16  and  N_17
REMARK    8  A    between atoms: C_18  and  C_20
REMARK    9  A    between atoms: C_20  and  C_21
REMARK   10  A    between atoms: C_20  and  C_27
REMARK                            x       y       z     vdW  Elec       q    Type
REMARK                         _______ _______ _______ _____ _____    ______ ____
ROOT
ATOM      1  C   UNL     1      -2.428   2.597  -0.774  0.00  0.00    +0.201 C 
ENDROOT
BRANCH   1   3
ATOM      2  N   UNL     1      -2.225   0.180  -1.259  0.00  0.00    -0.206 N 
ATOM      3  C   UNL     1      -3.023   1.226  -0.969  0.00  0.00    +0.249 C 
ATOM      4  O   UNL     1      -4.221   1.065  -0.864  0.00  0.00    -0.272 OA
ATOM      5  H   UNL     1      -1.268   0.309  -1.346  0.00  0.00    +0.177 HD
BRANCH   2   7
ATOM      6  C   UNL     1      -2.010  -2.101  -1.724  0.00  0.00    +0.138 C 
ATOM      7  N   UNL     1      -2.778  -1.095  -1.439  0.00  0.00    -0.188 NA
BRANCH   6  10
ATOM      8  C   UNL     1      -2.318  -5.783  -2.396  0.00  0.00    +0.163 A 
ATOM      9  C   UNL     1      -1.768  -4.526  -2.225  0.00  0.00    +0.059 A 
ATOM     10  C   UNL     1      -2.593  -3.442  -1.914  0.00  0.00    -0.001 A 
ATOM     11  C   UNL     1      -3.971  -3.631  -1.788  0.00  0.00    +0.028 A 
ATOM     12  C   UNL     1      -4.514  -4.887  -1.966  0.00  0.00    +0.063 A 
ATOM     13  C   UNL     1      -3.693  -5.965  -2.270  0.00  0.00    +0.173 A 
ATOM     14 BR   UNL     1      -6.380  -5.141  -1.796  0.00  0.00    -0.046 Br
BRANCH   8  16
ATOM     15  C   UNL     1      -0.117  -6.582  -2.809  0.00  0.00    +0.277 C 
ATOM     16  O   UNL     1      -1.518  -6.841  -2.694  0.00  0.00    -0.491 OA
ENDBRANCH   8  16
BRANCH  13  17
ATOM     17  O   UNL     1      -4.233  -7.200  -2.443  0.00  0.00    -0.503 OA
ATOM     18  H   UNL     1      -4.491  -7.392  -3.356  0.00  0.00    +0.292 HD
ENDBRANCH  13  17
ENDBRANCH   6  10
ENDBRANCH   2   7
ENDBRANCH   1   3
BRANCH   1  19
ATOM     19  N   UNL     1      -3.494   3.554  -0.471  0.00  0.00    -0.306 N 
ATOM     20  C   UNL     1      -3.196   4.851  -0.258  0.00  0.00    +0.225 C 
ATOM     21  O   UNL     1      -2.044   5.225  -0.317  0.00  0.00    -0.275 OA
ATOM     22  H   UNL     1      -4.416   3.255  -0.424  0.00  0.00    +0.149 HD
BRANCH  20  23
ATOM     23  C   UNL     1      -4.293   5.836   0.054  0.00  0.00    +0.135 C 
BRANCH  23  24
ATOM     24  C   UNL     1      -5.004   5.413   1.314  0.00  0.00    -0.031 A 
ATOM     25  C   UNL     1      -4.277   5.128   2.455  0.00  0.00    +0.005 A 
ATOM     26  C   UNL     1      -4.929   4.745   3.612  0.00  0.00    +0.000 A 
ATOM     27  C   UNL     1      -6.307   4.639   3.626  0.00  0.00    +0.000 A 
ATOM     28  C   UNL     1      -7.033   4.918   2.484  0.00  0.00    +0.000 A 
ATOM     29  C   UNL     1      -6.382   5.306   1.328  0.00  0.00    +0.005 A 
ENDBRANCH  23  24
BRANCH  23  30
ATOM     30  C   UNL     1      -3.698   7.206   0.248  0.00  0.00    -0.031 A 
ATOM     31  C   UNL     1      -2.672   7.392   1.156  0.00  0.00    +0.005 A 
ATOM     32  C   UNL     1      -2.122   8.648   1.331  0.00  0.00    +0.000 A 
ATOM     33  C   UNL     1      -2.606   9.721   0.605  0.00  0.00    +0.000 A 
ATOM     34  C   UNL     1      -3.635   9.537  -0.299  0.00  0.00    +0.000 A 
ATOM     35  C   UNL     1      -4.181   8.279  -0.477  0.00  0.00    +0.005 A 
ENDBRANCH  23  30
ENDBRANCH  20  23
ENDBRANCH   1  19
TORSDOF 9
