REMARK  Name = ZINC20865172
REMARK  8 active torsions:
REMARK  status: ('A' for Active; 'I' for Inactive)
REMARK    1  A    between atoms: C_3  and  C_6
REMARK    2  A    between atoms: C_6  and  N_7
REMARK    3  A    between atoms: C_8  and  C_10
REMARK    4  A    between atoms: C_13  and  C_16
REMARK    5  A    between atoms: C_16  and  N_17
REMARK    6  A    between atoms: C_20  and  O_21
REMARK    7  A    between atoms: C_22  and  O_23
REMARK    8  A    between atoms: N_24  and  C_25
REMARK                            x       y       z     vdW  Elec       q    Type
REMARK                         _______ _______ _______ _____ _____    ______ ____
ROOT
ATOM      1  C   UNL     1       5.934   0.556   2.969  0.00  0.00    +0.037 A 
ATOM      2  C   UNL     1       5.040   0.566   4.041  0.00  0.00    +0.013 A 
ATOM      3  C   UNL     1       5.519   0.548   5.335  0.00  0.00    +0.006 A 
ATOM      4  C   UNL     1       6.883   0.520   5.570  0.00  0.00    -0.026 A 
ATOM      5  C   UNL     1       7.774   0.511   4.512  0.00  0.00    +0.006 A 
ATOM      6  C   UNL     1       7.308   0.523   3.214  0.00  0.00    +0.013 A 
ENDROOT
BRANCH   1   8
ATOM      7  N   UNL     1       4.101   0.607   1.347  0.00  0.00    -0.304 N 
ATOM      8  C   UNL     1       5.428   0.575   1.580  0.00  0.00    +0.244 C 
ATOM      9  O   UNL     1       6.208   0.561   0.648  0.00  0.00    -0.270 OA
ATOM     10  H   UNL     1       3.478   0.617   2.090  0.00  0.00    +0.149 HD
BRANCH   7  11
ATOM     11  C   UNL     1       3.599   0.625  -0.029  0.00  0.00    +0.179 C 
BRANCH  11  14
ATOM     12  C   UNL     1      -0.016   1.341   0.009  0.00  0.00    +0.041 A 
ATOM     13  C   UNL     1       1.331   1.769  -0.001  0.00  0.00    +0.046 A 
ATOM     14  C   UNL     1       2.092   0.660  -0.014  0.00  0.00    +0.122 A 
ATOM     15  O   UNL     1       1.282  -0.411  -0.012  0.00  0.00    -0.466 OA
ATOM     16  C   UNL     1       0.002  -0.004   0.002  0.00  0.00    +0.195 A 
ENDBRANCH  11  14
ENDBRANCH   7  11
ENDBRANCH   1   8
BRANCH   4  17
ATOM     17  C   UNL     1       7.399   0.501   6.986  0.00  0.00    +0.177 C 
BRANCH  17  18
ATOM     18  N   UNL     1       7.540  -0.886   7.436  0.00  0.00    -0.273 NA
ATOM     19  C   UNL     1       8.721  -1.365   7.709  0.00  0.00    +0.132 C 
ATOM     20  C   UNL     1       9.243  -2.682   8.169  0.00  0.00    +0.132 C 
ATOM     21  C   UNL     1      10.576  -2.050   8.116  0.00  0.00    +0.188 C 
ATOM     22  C   UNL     1      10.096  -0.830   7.684  0.00  0.00    +0.188 C 
ATOM     23  N   UNL     1       8.752  -3.849   8.476  0.00  0.00    -0.275 NA
BRANCH  23  24
ATOM     24  C   UNL     1       9.644  -4.930   8.903  0.00  0.00    +0.106 C 
ATOM     25  C   UNL     1       9.469  -6.154   7.980  0.00  0.00    +0.027 C 
ATOM     26  C   UNL     1       9.603  -7.369   8.932  0.00  0.00    +0.002 C 
ATOM     27  C   UNL     1       8.882  -6.882  10.212  0.00  0.00    +0.002 C 
ATOM     28  C   UNL     1       9.270  -5.393  10.322  0.00  0.00    +0.027 C 
ENDBRANCH  23  24
BRANCH  21  29
ATOM     29  O   UNL     1      11.822  -2.506   8.387  0.00  0.00    -0.502 OA
ATOM     30  H   UNL     1      12.519  -1.847   8.259  0.00  0.00    +0.292 HD
ENDBRANCH  21  29
BRANCH  22  31
ATOM     31  O   UNL     1      10.655   0.362   7.368  0.00  0.00    -0.502 OA
ATOM     32  H   UNL     1      11.618   0.383   7.462  0.00  0.00    +0.292 HD
ENDBRANCH  22  31
ENDBRANCH  17  18
ENDBRANCH   4  17
TORSDOF 8
