REMARK  Name = ZINC39659509
REMARK  6 active torsions:
REMARK  status: ('A' for Active; 'I' for Inactive)
REMARK    1  A    between atoms: C_1  and  C_2
REMARK    2  A    between atoms: C_2  and  C_33
REMARK    3  A    between atoms: C_5  and  C_8
REMARK    4  A    between atoms: C_8  and  N_9
REMARK    5  A    between atoms: C_10  and  C_12
REMARK    6  A    between atoms: C_23  and  C_25
REMARK                            x       y       z     vdW  Elec       q    Type
REMARK                         _______ _______ _______ _____ _____    ______ ____
ROOT
ATOM      1  C   UNL     1       2.725  -3.129   5.066  0.00  0.00    +0.100 C 
ATOM      2  C   UNL     1       2.077  -2.229   6.142  0.00  0.00    +0.121 C 
ATOM      3  N   UNL     1       1.833  -3.135   7.289  0.00  0.00    -0.296 N 
ATOM      4  C   UNL     1       3.030  -4.008   7.330  0.00  0.00    +0.115 C 
ATOM      5  C   UNL     1       3.353  -4.293   5.850  0.00  0.00    -0.004 C 
ATOM      6  C   UNL     1       4.863  -4.322   5.635  0.00  0.00    -0.010 C 
ATOM      7  C   UNL     1       5.457  -5.523   6.377  0.00  0.00    -0.082 C 
ATOM      8  N   UNL     1       4.847  -6.761   5.876  0.00  0.00    +0.379 N 
ATOM      9  C   UNL     1       3.409  -6.765   6.171  0.00  0.00    -0.082 C 
ATOM     10  C   UNL     1       2.728  -5.617   5.420  0.00  0.00    -0.010 C 
ATOM     11  C   UNL     1       0.764  -3.158   8.111  0.00  0.00    +0.249 C 
ATOM     12  O   UNL     1       0.752  -3.904   9.071  0.00  0.00    -0.270 OA
ATOM     13  H   UNL     1       4.985  -6.822   4.878  0.00  0.00    -0.086 HD
ATOM     14  H   UNL     1       5.283  -7.553   6.323  0.00  0.00    -0.086 HD
ENDROOT
BRANCH  11  15
ATOM     15  C   UNL     1      -0.391  -2.278   7.844  0.00  0.00    +0.073 A 
ATOM     16  C   UNL     1      -0.194  -1.005   7.306  0.00  0.00    +0.036 A 
ATOM     17  C   UNL     1      -1.278  -0.188   7.059  0.00  0.00    +0.042 A 
ATOM     18  C   UNL     1      -2.561  -0.628   7.342  0.00  0.00    +0.023 A 
ATOM     19  C   UNL     1      -2.765  -1.887   7.875  0.00  0.00    +0.040 A 
ATOM     20  C   UNL     1      -1.689  -2.719   8.123  0.00  0.00    +0.136 A 
ATOM     21  F   UNL     1      -1.889  -3.951   8.639  0.00  0.00    -0.205 F 
ATOM     22 CL   UNL     1      -1.035   1.395   6.390  0.00  0.00    -0.084 Cl
ENDBRANCH  11  15
BRANCH   1  24
ATOM     23  N   UNL     1       2.016  -3.955   2.845  0.00  0.00    -0.312 N 
ATOM     24  C   UNL     1       1.678  -3.643   4.112  0.00  0.00    +0.218 C 
ATOM     25  O   UNL     1       0.532  -3.776   4.483  0.00  0.00    -0.275 OA
ATOM     26  H   UNL     1       2.934  -3.849   2.547  0.00  0.00    +0.149 HD
BRANCH  23  27
ATOM     27  C   UNL     1       0.999  -4.455   1.917  0.00  0.00    +0.138 C 
BRANCH  27  32
ATOM     28  C   UNL     1       3.628  -6.748  -1.345  0.00  0.00    +0.074 C 
ATOM     29  C   UNL     1       2.300  -6.628  -0.596  0.00  0.00    +0.165 C 
ATOM     30  O   UNL     1       1.345  -5.931  -1.414  0.00  0.00    -0.347 OA
ATOM     31  C   UNL     1       0.567  -5.141  -0.483  0.00  0.00    +0.196 C 
ATOM     32  C   UNL     1       1.641  -4.730   0.556  0.00  0.00    +0.164 C 
ATOM     33  O   UNL     1       2.495  -5.890   0.617  0.00  0.00    -0.342 OA
ATOM     34  C   UNL     1       1.767  -8.024  -0.268  0.00  0.00    +0.074 C 
ENDBRANCH  27  32
ENDBRANCH  23  27
ENDBRANCH   1  24
TORSDOF 4
