REMARK  Name = ZINC66745761
REMARK  5 active torsions:
REMARK  status: ('A' for Active; 'I' for Inactive)
REMARK    1  A    between atoms: C_3  and  N_18
REMARK    2  A    between atoms: C_5  and  N_6
REMARK    3  A    between atoms: N_6  and  C_7
REMARK    4  A    between atoms: C_7  and  C_8
REMARK    5  A    between atoms: N_11  and  C_15
REMARK                            x       y       z     vdW  Elec       q    Type
REMARK                         _______ _______ _______ _____ _____    ______ ____
ROOT
ATOM      1  N   UNL     1      -1.070  -0.898   0.007  0.00  0.00    -0.336 N 
ATOM      2  H   UNL     1      -1.981  -0.564   0.018  0.00  0.00    +0.147 HD
ENDROOT
BRANCH   1   7
ATOM      3  C   UNL     1      -0.016   1.358   0.009  0.00  0.00    +0.033 A 
ATOM      4  C   UNL     1       1.187   2.041   0.002  0.00  0.00    +0.042 A 
ATOM      5  C   UNL     1       2.343   1.336  -0.013  0.00  0.00    +0.165 A 
ATOM      6  S   UNL     1       1.754  -0.349  -0.017  0.00  0.00    -0.050 S 
ATOM      7  C   UNL     1       0.002  -0.004   0.002  0.00  0.00    +0.068 A 
BRANCH   5   8
ATOM      8  N   UNL     1       3.739   1.835  -0.024  0.00  0.00    +0.063 N 
ATOM      9  O   UNL     1       3.955   3.024  -0.020  0.00  0.00    -0.126 OA
ATOM     10  O   UNL     1       4.660   1.053  -0.037  0.00  0.00    -0.126 OA
ENDBRANCH   5   8
ENDBRANCH   1   7
BRANCH   1  11
ATOM     11  C   UNL     1      -0.820  -2.342  -0.003  0.00  0.00    +0.134 C 
BRANCH  11  12
ATOM     12  C   UNL     1      -2.155  -3.090   0.006  0.00  0.00    +0.149 C 
ATOM     13  C   UNL     1      -1.894  -4.599  -0.002  0.00  0.00    +0.118 C 
ATOM     14  N   UNL     1      -3.177  -5.313   0.084  0.00  0.00    -0.295 NA
ATOM     15  C   UNL     1      -3.903  -4.933   1.304  0.00  0.00    +0.113 C 
ATOM     16  C   UNL     1      -4.143  -3.421   1.300  0.00  0.00    +0.175 C 
ATOM     17  O   UNL     1      -2.889  -2.744   1.183  0.00  0.00    -0.372 OA
BRANCH  14  18
ATOM     18  C   UNL     1      -2.975  -6.766   0.022  0.00  0.00    +0.057 C 
ATOM     19  C   UNL     1      -3.473  -7.496  -1.228  0.00  0.00    +0.020 C 
ATOM     20  C   UNL     1      -4.218  -7.656   0.099  0.00  0.00    +0.020 C 
ENDBRANCH  14  18
ENDBRANCH  11  12
ENDBRANCH   1  11
TORSDOF 5
