REMARK  Name = ZINC64923400
REMARK  5 active torsions:
REMARK  status: ('A' for Active; 'I' for Inactive)
REMARK    1  A    between atoms: C_1  and  C_2
REMARK    2  A    between atoms: C_5  and  C_8
REMARK    3  A    between atoms: C_11  and  S_13
REMARK    4  A    between atoms: S_13  and  N_16
REMARK    5  A    between atoms: N_16  and  C_17
REMARK                            x       y       z     vdW  Elec       q    Type
REMARK                         _______ _______ _______ _____ _____    ______ ____
ROOT
ATOM      1  S   UNL     1       4.353  -3.871   3.725  0.00  0.00    +0.057 S 
ATOM      2  O   UNL     1       5.377  -4.644   3.115  0.00  0.00    -0.153 OA
ATOM      3  O   UNL     1       4.611  -2.620   4.348  0.00  0.00    -0.153 OA
ENDROOT
BRANCH   1   7
ATOM      4  C   UNL     1       1.283  -2.821   1.212  0.00  0.00    +0.084 C 
ATOM      5  N   UNL     1       2.008  -3.671   0.566  0.00  0.00    -0.257 NA
ATOM      6  C   UNL     1       3.074  -4.116   1.272  0.00  0.00    +0.135 C 
ATOM      7  C   UNL     1       3.138  -3.575   2.484  0.00  0.00    +0.106 C 
ATOM      8  C   UNL     1       1.942  -2.644   2.566  0.00  0.00    +0.114 C 
BRANCH   4  13
ATOM      9  C   UNL     1      -0.018   1.503   0.010  0.00  0.00    +0.110 C 
ATOM     10  C   UNL     1       0.002  -0.004   0.002  0.00  0.00    +0.204 C 
ATOM     11  N   UNL     1       0.007  -0.710  -1.068  0.00  0.00    -0.151 NA
ATOM     12  N   UNL     1       0.027  -2.076  -0.755  0.00  0.00    -0.223 N 
ATOM     13  C   UNL     1       0.034  -2.138   0.718  0.00  0.00    +0.323 C 
ATOM     14  O   UNL     1       0.023  -0.760   1.123  0.00  0.00    -0.450 OA
ATOM     15  H   UNL     1       0.034  -2.822  -1.375  0.00  0.00    +0.172 HD
ENDBRANCH   4  13
ENDBRANCH   1   7
BRANCH   1  16
ATOM     16  N   UNL     1       3.652  -4.836   4.875  0.00  0.00    -0.187 NA
ATOM     17  H   UNL     1       3.516  -4.498   5.774  0.00  0.00    +0.148 HD
BRANCH  16  18
ATOM     18  C   UNL     1       3.240  -6.199   4.534  0.00  0.00    +0.077 C 
ATOM     19  C   UNL     1       1.758  -6.203   4.153  0.00  0.00    +0.020 C 
ATOM     20  C   UNL     1       1.422  -7.508   3.428  0.00  0.00    +0.002 C 
ATOM     21  C   UNL     1       2.519  -7.823   2.409  0.00  0.00    +0.000 C 
ATOM     22  C   UNL     1       3.273  -9.081   2.844  0.00  0.00    +0.000 C 
ATOM     23  C   UNL     1       4.219  -8.734   3.996  0.00  0.00    +0.000 C 
ATOM     24  C   UNL     1       3.413  -8.575   5.287  0.00  0.00    +0.002 C 
ATOM     25  C   UNL     1       3.458  -7.115   5.741  0.00  0.00    +0.020 C 
ENDBRANCH  16  18
ENDBRANCH   1  16
TORSDOF 4
