REMARK  Name = ZINC09870925
REMARK  12 active torsions:
REMARK  status: ('A' for Active; 'I' for Inactive)
REMARK    1  A    between atoms: C_1  and  C_2
REMARK    2  A    between atoms: C_2  and  N_3
REMARK    3  A    between atoms: C_6  and  C_19
REMARK    4  A    between atoms: C_7  and  N_18
REMARK    5  A    between atoms: N_8  and  C_11
REMARK    6  A    between atoms: C_11  and  C_12
REMARK    7  A    between atoms: C_19  and  C_21
REMARK    8  A    between atoms: C_21  and  S_22
REMARK    9  A    between atoms: S_22  and  C_23
REMARK   10  A    between atoms: C_26  and  C_35
REMARK   11  A    between atoms: N_27  and  C_28
REMARK   12  A    between atoms: C_31  and  C_34
REMARK                            x       y       z     vdW  Elec       q    Type
REMARK                         _______ _______ _______ _____ _____    ______ ____
ROOT
ATOM      1  N   UNL     1      -6.320   6.618   0.169  0.00  0.00    -0.260 N 
ATOM      2  C   UNL     1      -5.451   5.586   0.157  0.00  0.00    +0.269 A 
ATOM      3  O   UNL     1      -4.253   5.782   0.242  0.00  0.00    -0.267 OA
ATOM      4  C   UNL     1      -5.981   4.222   0.035  0.00  0.00    +0.121 A 
ATOM      5  C   UNL     1      -7.375   4.064  -0.052  0.00  0.00    +0.116 A 
ATOM      6  N   UNL     1      -8.169   5.175  -0.025  0.00  0.00    -0.277 N 
ATOM      7  C   UNL     1      -7.643   6.405   0.083  0.00  0.00    +0.334 A 
ATOM      8  O   UNL     1      -8.392   7.362   0.102  0.00  0.00    -0.246 OA
ENDROOT
BRANCH   5   9
ATOM      9  N   UNL     1      -7.925   2.824  -0.161  0.00  0.00    -0.344 N 
ATOM     10  H   UNL     1      -7.362   2.037  -0.097  0.00  0.00    +0.144 HD
ATOM     11  H   UNL     1      -8.880   2.728  -0.303  0.00  0.00    +0.144 HD
ENDBRANCH   5   9
BRANCH   1  13
ATOM     12  C   UNL     1      -5.717   8.373   1.762  0.00  0.00    +0.027 C 
ATOM     13  C   UNL     1      -5.814   7.988   0.285  0.00  0.00    +0.126 C 
ENDBRANCH   1  13
BRANCH   4  14
ATOM     14  C   UNL     1      -5.119   3.105   0.011  0.00  0.00    +0.182 C 
ATOM     15  O   UNL     1      -5.580   1.981   0.022  0.00  0.00    -0.291 OA
BRANCH  14  16
ATOM     16  C   UNL     1      -3.626   3.307  -0.029  0.00  0.00    +0.157 C 
BRANCH  16  17
ATOM     17  S   UNL     1      -2.800   1.696  -0.052  0.00  0.00    -0.078 S 
BRANCH  17  18
ATOM     18  C   UNL     1      -1.117   2.216  -0.097  0.00  0.00    +0.197 A 
ATOM     19  N   UNL     1      -0.682   3.455  -0.105  0.00  0.00    -0.122 NA
ATOM     20  N   UNL     1       0.602   3.468  -0.147  0.00  0.00    -0.133 NA
ATOM     21  C   UNL     1       1.063   2.249  -0.162  0.00  0.00    +0.135 A 
ATOM     22  N   UNL     1      -0.015   1.405  -0.127  0.00  0.00    -0.274 N 
ATOM     23  C   UNL     1       2.514   1.843  -0.209  0.00  0.00    +0.088 C 
BRANCH  22  24
ATOM     24  C   UNL     1       0.005   0.003  -0.128  0.00  0.00    +0.050 A 
ATOM     25  C   UNL     1       0.482  -0.685  -1.236  0.00  0.00    +0.026 A 
ATOM     26  C   UNL     1       0.505  -2.066  -1.232  0.00  0.00    +0.005 A 
ATOM     27  C   UNL     1       0.045  -2.764  -0.130  0.00  0.00    -0.050 A 
ATOM     28  C   UNL     1      -0.436  -2.081   0.973  0.00  0.00    +0.005 A 
ATOM     29  C   UNL     1      -0.457  -0.700   0.976  0.00  0.00    +0.026 A 
ATOM     30  C   UNL     1       0.066  -4.270  -0.131  0.00  0.00    +0.044 C 
ENDBRANCH  22  24
ENDBRANCH  17  18
ENDBRANCH  16  17
ENDBRANCH  14  16
ENDBRANCH   4  14
BRANCH   6  31
ATOM     31  C   UNL     1      -9.623   5.021  -0.116  0.00  0.00    +0.163 C 
BRANCH  31  32
ATOM     32  C   UNL     1     -10.200   4.877   1.269  0.00  0.00    -0.028 A 
ATOM     33  C   UNL     1     -10.340   3.623   1.833  0.00  0.00    +0.005 A 
ATOM     34  C   UNL     1     -10.864   3.491   3.105  0.00  0.00    +0.000 A 
ATOM     35  C   UNL     1     -11.259   4.614   3.809  0.00  0.00    +0.000 A 
ATOM     36  C   UNL     1     -11.124   5.867   3.243  0.00  0.00    +0.000 A 
ATOM     37  C   UNL     1     -10.595   5.999   1.973  0.00  0.00    +0.005 A 
ENDBRANCH  31  32
ENDBRANCH   6  31
TORSDOF 9
