REMARK  Name = ZINC54271971
REMARK  10 active torsions:
REMARK  status: ('A' for Active; 'I' for Inactive)
REMARK    1  A    between atoms: C_1  and  O_2
REMARK    2  A    between atoms: O_2  and  C_3
REMARK    3  A    between atoms: C_6  and  C_9
REMARK    4  A    between atoms: C_9  and  N_10
REMARK    5  A    between atoms: N_10  and  C_11
REMARK    6  A    between atoms: N_10  and  C_14
REMARK    7  A    between atoms: C_11  and  C_12
REMARK    8  A    between atoms: C_14  and  C_15
REMARK    9  A    between atoms: N_17  and  C_18
REMARK   10  A    between atoms: C_19  and  C_23
REMARK                            x       y       z     vdW  Elec       q    Type
REMARK                         _______ _______ _______ _____ _____    ______ ____
ROOT
ATOM      1  C   UNL     1       4.579  -2.942  -5.068  0.00  0.00    +0.020 C 
ENDROOT
BRANCH   1   2
ATOM      2  C   UNL     1       4.686  -1.801  -6.047  0.00  0.00    +0.201 C 
ATOM      3  O   UNL     1       4.146  -0.743  -5.806  0.00  0.00    -0.278 OA
ATOM      4  N   UNL     1       5.382  -1.958  -7.191  0.00  0.00    -0.281 N 
ATOM      5  H   UNL     1       5.814  -2.805  -7.383  0.00  0.00    +0.155 HD
BRANCH   4   6
ATOM      6  C   UNL     1       5.480  -0.908  -8.092  0.00  0.00    +0.084 A 
ATOM      7  C   UNL     1       6.144  -0.890  -9.310  0.00  0.00    +0.065 A 
ATOM      8  C   UNL     1       6.087   0.345 -10.057  0.00  0.00    +0.022 A 
ATOM      9  C   UNL     1       5.393   1.346  -9.485  0.00  0.00    +0.048 A 
ATOM     10  S   UNL     1       4.818   0.628  -7.962  0.00  0.00    -0.081 S 
BRANCH   7  11
ATOM     11  C   UNL     1       6.866  -2.063  -9.812  0.00  0.00    +0.244 C 
ATOM     12  O   UNL     1       6.894  -3.087  -9.156  0.00  0.00    -0.270 OA
ATOM     13  N   UNL     1       7.499  -2.006 -11.001  0.00  0.00    -0.325 N 
ATOM     14  H   UNL     1       7.477  -1.189 -11.524  0.00  0.00    +0.145 HD
ATOM     15  H   UNL     1       7.976  -2.782 -11.334  0.00  0.00    +0.145 HD
ENDBRANCH   7  11
ENDBRANCH   4   6
ENDBRANCH   1   2
BRANCH   1  16
ATOM     16  N   UNL     1       3.666  -2.568  -3.979  0.00  0.00    +0.390 N 
ATOM     17  H   UNL     1       3.962  -1.692  -3.577  0.00  0.00    -0.080 HD
BRANCH  16  18
ATOM     18  C   UNL     1       2.303  -2.428  -4.510  0.00  0.00    -0.042 C 
BRANCH  18  22
ATOM     19  C   UNL     1      -0.288  -1.006  -1.423  0.00  0.00    +0.120 A 
ATOM     20  C   UNL     1       0.374  -0.105  -2.244  0.00  0.00    +0.046 A 
ATOM     21  C   UNL     1       1.212  -0.568  -3.241  0.00  0.00    +0.005 A 
ATOM     22  C   UNL     1       1.390  -1.927  -3.421  0.00  0.00    -0.064 A 
ATOM     23  C   UNL     1       0.731  -2.827  -2.604  0.00  0.00    +0.005 A 
ATOM     24  C   UNL     1      -0.103  -2.370  -1.602  0.00  0.00    +0.046 A 
BRANCH  19  26
ATOM     25  C   UNL     1      -1.254   0.862  -0.315  0.00  0.00    +0.277 C 
ATOM     26  O   UNL     1      -1.111  -0.554  -0.441  0.00  0.00    -0.495 OA
ENDBRANCH  19  26
ENDBRANCH  18  22
ENDBRANCH  16  18
BRANCH  16  27
ATOM     27  C   UNL     1       3.684  -3.612  -2.946  0.00  0.00    -0.051 C 
BRANCH  27  28
ATOM     28  C   UNL     1       5.047  -3.660  -2.304  0.00  0.00    -0.053 C 
ATOM     29  C   UNL     1       5.163  -3.552  -1.004  0.00  0.00    +0.002 C 
ENDBRANCH  27  28
ENDBRANCH  16  27
ENDBRANCH   1  16
TORSDOF 9
