REMARK  Name = ZINC06781038
REMARK  11 active torsions:
REMARK  status: ('A' for Active; 'I' for Inactive)
REMARK    1  A    between atoms: C_1  and  C_2
REMARK    2  A    between atoms: C_2  and  O_3
REMARK    3  A    between atoms: O_3  and  C_4
REMARK    4  A    between atoms: C_9  and  N_10
REMARK    5  A    between atoms: C_11  and  C_13
REMARK    6  A    between atoms: C_13  and  C_15
REMARK    7  A    between atoms: C_17  and  C_29
REMARK    8  A    between atoms: N_18  and  C_21
REMARK    9  A    between atoms: C_19  and  C_20
REMARK   10  A    between atoms: C_23  and  C_28
REMARK   11  A    between atoms: C_25  and  C_27
REMARK                            x       y       z     vdW  Elec       q    Type
REMARK                         _______ _______ _______ _____ _____    ______ ____
ROOT
ATOM      1  C   UNL     1      -5.572  -0.084   1.462  0.00  0.00    +0.249 C 
ATOM      2  O   UNL     1      -5.711   0.413   2.562  0.00  0.00    -0.282 OA
ENDROOT
BRANCH   1   3
ATOM      3  C   UNL     1      -4.369   0.203   0.675  0.00  0.00    +0.048 A 
ATOM      4  C   UNL     1      -4.042  -0.312  -0.662  0.00  0.00    +0.035 A 
ATOM      5  C   UNL     1      -2.852   0.216  -0.992  0.00  0.00    +0.022 A 
ATOM      6  N   UNL     1      -2.410   1.006   0.034  0.00  0.00    -0.317 N 
ATOM      7  C   UNL     1      -3.306   1.013   1.039  0.00  0.00    +0.032 A 
ATOM      8  C   UNL     1      -3.176   1.771   2.335  0.00  0.00    +0.064 C 
ATOM      9  C   UNL     1      -2.117  -0.028  -2.285  0.00  0.00    +0.064 C 
BRANCH   6  10
ATOM     10  C   UNL     1      -1.200   1.712   0.036  0.00  0.00    +0.047 A 
ATOM     11  C   UNL     1       0.007   1.024   0.026  0.00  0.00    +0.029 A 
ATOM     12  C   UNL     1       1.198   1.723   0.023  0.00  0.00    -0.048 A 
ATOM     13  C   UNL     1       1.190   3.106   0.035  0.00  0.00    +0.006 A 
ATOM     14  C   UNL     1      -0.010   3.793   0.049  0.00  0.00    -0.048 A 
ATOM     15  C   UNL     1      -1.204   3.100   0.053  0.00  0.00    +0.029 A 
ATOM     16  C   UNL     1      -0.014   5.300   0.062  0.00  0.00    +0.044 C 
ATOM     17  C   UNL     1       2.508   0.978   0.007  0.00  0.00    +0.044 C 
ENDBRANCH   6  10
ENDBRANCH   1   3
BRANCH   1  19
ATOM     18  N   UNL     1      -7.731  -1.250   1.637  0.00  0.00    -0.276 N 
ATOM     19  C   UNL     1      -6.625  -0.987   0.913  0.00  0.00    +0.289 C 
ATOM     20  O   UNL     1      -6.486  -1.484  -0.186  0.00  0.00    -0.266 OA
ATOM     21  H   UNL     1      -7.813  -0.906   2.540  0.00  0.00    +0.155 HD
BRANCH  18  27
ATOM     22  C   UNL     1     -10.088  -1.741   1.403  0.00  0.00    +0.142 A 
ATOM     23  C   UNL     1     -11.104  -2.507   0.853  0.00  0.00    +0.047 A 
ATOM     24  C   UNL     1     -10.799  -3.545  -0.007  0.00  0.00    +0.004 A 
ATOM     25  C   UNL     1      -9.481  -3.822  -0.322  0.00  0.00    +0.002 A 
ATOM     26  C   UNL     1      -8.463  -3.061   0.217  0.00  0.00    +0.027 A 
ATOM     27  C   UNL     1      -8.760  -2.020   1.086  0.00  0.00    +0.076 A 
BRANCH  22  28
ATOM     28  O   UNL     1     -10.387  -0.719   2.249  0.00  0.00    -0.490 OA
BRANCH  28  30
ATOM     29  C   UNL     1     -11.907   0.689   3.492  0.00  0.00    +0.048 C 
ATOM     30  C   UNL     1     -11.770  -0.491   2.529  0.00  0.00    +0.226 C 
ENDBRANCH  28  30
ENDBRANCH  22  28
ENDBRANCH  18  27
ENDBRANCH   1  19
TORSDOF 6
