REMARK  Name = ZINC56173909
REMARK  4 active torsions:
REMARK  status: ('A' for Active; 'I' for Inactive)
REMARK    1  A    between atoms: C_1  and  C_2
REMARK    2  A    between atoms: C_2  and  C_4
REMARK    3  A    between atoms: C_2  and  N_15
REMARK    4  A    between atoms: N_15  and  C_16
REMARK                            x       y       z     vdW  Elec       q    Type
REMARK                         _______ _______ _______ _____ _____    ______ ____
ROOT
ATOM      1  C   UNL     1       0.020   1.440   0.495  0.00  0.00    +0.038 C 
ATOM      2  C   UNL     1       0.003  -0.007   0.000  0.00  0.00    +0.154 C 
ENDROOT
BRANCH   2   3
ATOM      3  C   UNL     1      -1.391  -0.566   0.128  0.00  0.00    +0.236 C 
ATOM      4  O   UNL     1      -1.700  -1.206   1.111  0.00  0.00    -0.274 OA
ATOM      5  N   UNL     1      -2.294  -0.354  -0.850  0.00  0.00    -0.295 N 
ATOM      6  C   UNL     1      -3.686  -0.797  -0.687  0.00  0.00    +0.113 C 
ATOM      7  C   UNL     1      -4.588   0.446  -0.661  0.00  0.00    +0.061 C 
ATOM      8  C   UNL     1      -4.136   1.388  -1.729  0.00  0.00    -0.004 A 
ATOM      9  C   UNL     1      -2.951   1.387  -2.398  0.00  0.00    -0.020 A 
ATOM     10  C   UNL     1      -2.771   2.388  -3.352  0.00  0.00    +0.013 A 
ATOM     11  C   UNL     1      -3.750   3.294  -3.576  0.00  0.00    +0.046 A 
ATOM     12  S   UNL     1      -5.009   2.767  -2.424  0.00  0.00    -0.101 S 
ATOM     13  C   UNL     1      -1.902   0.327  -2.091  0.00  0.00    +0.143 C 
ENDBRANCH   2   3
BRANCH   2  14
ATOM     14  N   UNL     1       0.927  -0.810   0.806  0.00  0.00    -0.333 N 
ATOM     15  H   UNL     1       0.596  -1.310   1.569  0.00  0.00    +0.147 HD
BRANCH  14  16
ATOM     16  C   UNL     1       2.284  -0.854   0.477  0.00  0.00    +0.030 A 
ATOM     17  C   UNL     1       2.760  -0.133  -0.611  0.00  0.00    +0.024 A 
ATOM     18  C   UNL     1       4.102  -0.177  -0.934  0.00  0.00    +0.024 A 
ATOM     19  C   UNL     1       4.973  -0.939  -0.177  0.00  0.00    +0.076 A 
ATOM     20  C   UNL     1       4.502  -1.660   0.909  0.00  0.00    +0.143 A 
ATOM     21  C   UNL     1       3.160  -1.614   1.241  0.00  0.00    +0.062 A 
ATOM     22  F   UNL     1       5.355  -2.404   1.647  0.00  0.00    -0.204 F 
ATOM     23 CL   UNL     1       6.659  -0.993  -0.587  0.00  0.00    -0.081 Cl
ENDBRANCH  14  16
ENDBRANCH   2  14
TORSDOF 3
