REMARK  Name = ZINC09435606
REMARK  5 active torsions:
REMARK  status: ('A' for Active; 'I' for Inactive)
REMARK    1  A    between atoms: C_6  and  C_7
REMARK    2  A    between atoms: C_7  and  N_8
REMARK    3  A    between atoms: C_9  and  C_11
REMARK    4  A    between atoms: C_16  and  C_31
REMARK    5  A    between atoms: C_19  and  C_22
REMARK                            x       y       z     vdW  Elec       q    Type
REMARK                         _______ _______ _______ _____ _____    ______ ____
ROOT
ATOM      1  C   UNL     1       8.203   3.011  -0.322  0.00  0.00    +0.149 A 
ATOM      2  C   UNL     1       7.278   3.844  -0.992  0.00  0.00    +0.078 A 
ATOM      3  C   UNL     1       6.210   3.997  -0.185  0.00  0.00    +0.119 A 
ATOM      4  N   UNL     1       6.438   3.291   0.962  0.00  0.00    -0.238 N 
ATOM      5  N   UNL     1       7.688   2.684   0.850  0.00  0.00    -0.164 NA
ATOM      6  C   UNL     1       5.491   3.226   2.079  0.00  0.00    +0.215 C 
ATOM      7  C   UNL     1       4.512   4.400   1.969  0.00  0.00    +0.063 C 
ATOM      8  C   UNL     1       3.932   4.464   0.552  0.00  0.00    +0.104 C 
ATOM      9  N   UNL     1       5.034   4.724  -0.396  0.00  0.00    -0.322 N 
ATOM     10  H   UNL     1       4.948   5.361  -1.122  0.00  0.00    +0.148 HD
ENDROOT
BRANCH   8  11
ATOM     11  C   UNL     1       3.274   3.151   0.215  0.00  0.00    -0.024 A 
ATOM     12  C   UNL     1       4.044   2.076  -0.188  0.00  0.00    +0.009 A 
ATOM     13  C   UNL     1       3.445   0.870  -0.498  0.00  0.00    +0.050 A 
ATOM     14  C   UNL     1       2.069   0.735  -0.406  0.00  0.00    +0.166 A 
ATOM     15  C   UNL     1       1.293   1.818  -0.001  0.00  0.00    +0.167 A 
ATOM     16  C   UNL     1       1.900   3.024   0.309  0.00  0.00    +0.055 A 
ATOM     17  O   UNL     1      -0.018   1.436   0.010  0.00  0.00    -0.453 OA
ATOM     18  C   UNL     1       0.002  -0.004   0.002  0.00  0.00    +0.466 C 
ATOM     19  O   UNL     1       1.245  -0.326  -0.649  0.00  0.00    -0.453 OA
ENDBRANCH   8  11
BRANCH   1  21
ATOM     20  N   UNL     1      10.306   1.780  -0.100  0.00  0.00    -0.306 N 
ATOM     21  C   UNL     1       9.516   2.580  -0.843  0.00  0.00    +0.264 C 
ATOM     22  O   UNL     1       9.884   2.946  -1.942  0.00  0.00    -0.268 OA
ATOM     23  H   UNL     1      10.012   1.487   0.777  0.00  0.00    +0.149 HD
BRANCH  20  24
ATOM     24  C   UNL     1      11.608   1.352  -0.617  0.00  0.00    +0.140 C 
BRANCH  24  30
ATOM     25  C   UNL     1      13.116   1.031   1.356  0.00  0.00    +0.008 A 
ATOM     26  C   UNL     1      13.735   0.225   2.292  0.00  0.00    +0.038 A 
ATOM     27  C   UNL     1      13.535  -1.145   2.266  0.00  0.00    +0.123 A 
ATOM     28  C   UNL     1      12.710  -1.705   1.305  0.00  0.00    +0.038 A 
ATOM     29  C   UNL     1      12.087  -0.896   0.374  0.00  0.00    +0.008 A 
ATOM     30  C   UNL     1      12.288   0.471   0.400  0.00  0.00    -0.030 A 
ATOM     31  F   UNL     1      14.144  -1.934   3.178  0.00  0.00    -0.205 F 
ENDBRANCH  24  30
ENDBRANCH  20  24
ENDBRANCH   1  21
BRANCH   6  32
ATOM     32  C   UNL     1       6.253   3.317   3.403  0.00  0.00    +0.412 C 
ATOM     33  F   UNL     1       5.347   3.269   4.468  0.00  0.00    -0.168 F 
ATOM     34  F   UNL     1       7.146   2.245   3.502  0.00  0.00    -0.168 F 
ATOM     35  F   UNL     1       6.964   4.522   3.450  0.00  0.00    -0.168 F 
ENDBRANCH   6  32
TORSDOF 5
