REMARK  Name = ZINC22991803
REMARK  5 active torsions:
REMARK  status: ('A' for Active; 'I' for Inactive)
REMARK    1  A    between atoms: C_1  and  C_2
REMARK    2  A    between atoms: C_2  and  C_3
REMARK    3  A    between atoms: C_2  and  C_4
REMARK    4  A    between atoms: C_7  and  C_10
REMARK    5  A    between atoms: C_12  and  C_15
REMARK                            x       y       z     vdW  Elec       q    Type
REMARK                         _______ _______ _______ _____ _____    ______ ____
ROOT
ATOM      1  C   UNL     1      -0.039   2.247   2.163  0.00  0.00    +0.265 C 
ATOM      2  O   UNL     1       1.169   2.116   2.214  0.00  0.00    -0.268 OA
ATOM      3  N   UNL     1      -0.711   1.874   1.055  0.00  0.00    -0.296 N 
ATOM      4  C   UNL     1       0.004   1.323  -0.104  0.00  0.00    +0.110 C 
ATOM      5  C   UNL     1      -0.367   2.137  -1.348  0.00  0.00    +0.054 C 
ATOM      6  C   UNL     1      -1.885   2.175  -1.494  0.00  0.00    +0.115 C 
ATOM      7  C   UNL     1      -2.531   2.821  -0.273  0.00  0.00    +0.054 C 
ATOM      8  C   UNL     1      -2.175   2.013   0.980  0.00  0.00    +0.110 C 
ATOM      9  C   UNL     1      -2.274   2.920  -2.751  0.00  0.00    +0.244 C 
ATOM     10  O   UNL     1      -2.040   4.079  -3.019  0.00  0.00    -0.273 OA
ATOM     11  N   UNL     1      -2.936   2.023  -3.511  0.00  0.00    -0.238 N 
ATOM     12  C   UNL     1      -3.014   0.830  -2.909  0.00  0.00    +0.307 C 
ATOM     13  O   UNL     1      -3.563  -0.138  -3.398  0.00  0.00    -0.252 OA
ATOM     14  N   UNL     1      -2.417   0.823  -1.702  0.00  0.00    -0.285 N 
ATOM     15  H   UNL     1      -3.330   2.320  -4.494  0.00  0.00    +0.159 HD
ATOM     16  H   UNL     1      -2.277   0.052  -0.930  0.00  0.00    +0.151 HD
ENDROOT
BRANCH   1  19
ATOM     17  C   UNL     1      -2.704   3.086   4.503  0.00  0.00    +0.109 A 
ATOM     18  N   UNL     1      -2.060   2.573   3.470  0.00  0.00    -0.234 NA
ATOM     19  C   UNL     1      -0.768   2.814   3.310  0.00  0.00    +0.133 A 
ATOM     20  C   UNL     1      -0.115   3.595   4.232  0.00  0.00    +0.080 A 
ATOM     21  S   UNL     1      -1.402   3.986   5.330  0.00  0.00    -0.075 S 
BRANCH  17  25
ATOM     22  C   UNL     1      -6.796   2.698   5.574  0.00  0.00    -0.045 A 
ATOM     23  C   UNL     1      -5.946   3.451   6.364  0.00  0.00    +0.004 A 
ATOM     24  C   UNL     1      -4.616   3.581   6.021  0.00  0.00    +0.011 A 
ATOM     25  C   UNL     1      -4.129   2.951   4.876  0.00  0.00    +0.007 A 
ATOM     26  C   UNL     1      -4.993   2.197   4.081  0.00  0.00    +0.011 A 
ATOM     27  C   UNL     1      -6.320   2.071   4.437  0.00  0.00    +0.004 A 
BRANCH  22  29
ATOM     28  C   UNL     1      -9.124   3.116   4.829  0.00  0.00    +0.012 C 
ATOM     29  C   UNL     1      -8.248   2.562   5.954  0.00  0.00    +0.013 C 
ATOM     30  C   UNL     1      -8.580   1.085   6.178  0.00  0.00    +0.012 C 
ENDBRANCH  22  29
ENDBRANCH  17  25
ENDBRANCH   1  19
TORSDOF 3
