REMARK  Name = ZINC12283143
REMARK  8 active torsions:
REMARK  status: ('A' for Active; 'I' for Inactive)
REMARK    1  A    between atoms: C_1  and  C_2
REMARK    2  A    between atoms: C_10  and  C_11
REMARK    3  A    between atoms: N_13  and  C_14
REMARK    4  A    between atoms: N_13  and  C_15
REMARK    5  A    between atoms: C_15  and  C_16
REMARK    6  A    between atoms: C_16  and  C_17
REMARK    7  A    between atoms: C_16  and  C_18
REMARK    8  A    between atoms: N_19  and  C_20
REMARK                            x       y       z     vdW  Elec       q    Type
REMARK                         _______ _______ _______ _____ _____    ______ ____
ROOT
ATOM      1  C   UNL     1       1.752   2.266   4.749  0.00  0.00    +0.046 C 
ATOM      2  C   UNL     1       2.290   1.963   3.375  0.00  0.00    -0.019 A 
ATOM      3  C   UNL     1       3.564   1.399   3.228  0.00  0.00    +0.051 A 
ATOM      4  C   UNL     1       4.511   1.034   4.232  0.00  0.00    +0.131 A 
ATOM      5  N   UNL     1       5.671   0.516   3.865  0.00  0.00    -0.220 NA
ATOM      6  C   UNL     1       5.988   0.322   2.598  0.00  0.00    +0.224 A 
ATOM      7  N   UNL     1       5.157   0.638   1.623  0.00  0.00    -0.228 NA
ATOM      8  C   UNL     1       3.978   1.160   1.895  0.00  0.00    +0.114 A 
ATOM      9  S   UNL     1       2.595   1.714   0.932  0.00  0.00    -0.064 S 
ATOM     10  C   UNL     1       1.537   2.233   2.273  0.00  0.00    +0.080 A 
ATOM     11  N   UNL     1       4.219   1.220   5.568  0.00  0.00    -0.323 N 
ATOM     12  H   UNL     1       3.333   1.511   5.835  0.00  0.00    +0.148 HD
ENDROOT
BRANCH  11  13
ATOM     13  C   UNL     1       5.248   0.979   6.582  0.00  0.00    +0.099 C 
ATOM     14  C   UNL     1       4.598   0.635   7.941  0.00  0.00    +0.052 C 
ATOM     15  C   UNL     1       5.079   1.761   8.883  0.00  0.00    +0.162 C 
ATOM     16  O   UNL     1       5.393   2.866   8.007  0.00  0.00    -0.378 OA
ATOM     17  C   UNL     1       6.045   2.272   6.864  0.00  0.00    +0.182 C 
ENDBRANCH  11  13
BRANCH  10  18
ATOM     18  C   UNL     1       0.191   2.813   2.204  0.00  0.00    +0.253 C 
ATOM     19  O   UNL     1      -0.444   3.000   3.225  0.00  0.00    -0.269 OA
ATOM     20  N   UNL     1      -0.343   3.138   1.009  0.00  0.00    -0.300 N 
ATOM     21  C   UNL     1       0.441   2.962  -0.215  0.00  0.00    +0.132 C 
BRANCH  20  22
ATOM     22  C   UNL     1      -1.707   3.668   0.936  0.00  0.00    +0.110 C 
BRANCH  22  23
ATOM     23  C   UNL     1      -2.695   2.511   0.775  0.00  0.00    +0.000 C 
ATOM     24  C   UNL     1      -4.125   3.051   0.823  0.00  0.00    +0.009 C 
ATOM     25  C   UNL     1      -2.456   1.820  -0.570  0.00  0.00    +0.009 C 
ENDBRANCH  22  23
ENDBRANCH  20  22
ENDBRANCH  10  18
TORSDOF 4
