REMARK  Name = ZINC40264480
REMARK  5 active torsions:
REMARK  status: ('A' for Active; 'I' for Inactive)
REMARK    1  A    between atoms: C_1  and  O_2
REMARK    2  A    between atoms: O_2  and  C_3
REMARK    3  A    between atoms: C_6  and  C_10
REMARK    4  A    between atoms: C_10  and  C_12
REMARK    5  A    between atoms: C_10  and  O_23
REMARK                            x       y       z     vdW  Elec       q    Type
REMARK                         _______ _______ _______ _____ _____    ______ ____
ROOT
ATOM      1  C   UNL     1      -4.983  -2.628   0.036  0.00  0.00    +0.189 C 
ENDROOT
BRANCH   1   2
ATOM      2  C   UNL     1      -5.365  -2.978   1.475  0.00  0.00    +0.244 C 
ATOM      3  C   UNL     1      -6.716  -3.706   1.489  0.00  0.00    +0.276 C 
ATOM      4  O   UNL     1      -7.036  -4.031   2.846  0.00  0.00    -0.485 OA
ATOM      5  C   UNL     1      -6.041  -4.582   3.594  0.00  0.00    +0.162 A 
ATOM      6  C   UNL     1      -6.361  -5.245   4.770  0.00  0.00    +0.049 A 
ATOM      7  C   UNL     1      -5.362  -5.808   5.541  0.00  0.00    +0.004 A 
ATOM      8  C   UNL     1      -4.041  -5.712   5.143  0.00  0.00    +0.004 A 
ATOM      9  C   UNL     1      -3.716  -5.054   3.972  0.00  0.00    +0.049 A 
ATOM     10  C   UNL     1      -4.714  -4.488   3.193  0.00  0.00    +0.163 A 
ATOM     11  O   UNL     1      -4.379  -3.850   2.038  0.00  0.00    -0.479 OA
ENDBRANCH   1   2
BRANCH   1  15
ATOM     12  C   UNL     1      -1.200  -0.637   0.010  0.00  0.00    +0.121 A 
ATOM     13  C   UNL     1      -2.375   0.101   0.019  0.00  0.00    +0.046 A 
ATOM     14  C   UNL     1      -3.596  -0.544   0.028  0.00  0.00    +0.011 A 
ATOM     15  C   UNL     1      -3.649  -1.926   0.027  0.00  0.00    -0.001 A 
ATOM     16  C   UNL     1      -2.480  -2.665   0.018  0.00  0.00    +0.027 A 
ATOM     17  C   UNL     1      -1.255  -2.023   0.003  0.00  0.00    +0.061 A 
ATOM     18 BR   UNL     1      -2.556  -4.555   0.017  0.00  0.00    -0.050 Br
BRANCH  12  20
ATOM     19  C   UNL     1      -0.017   1.425   0.010  0.00  0.00    +0.277 C 
ATOM     20  O   UNL     1       0.002  -0.004   0.002  0.00  0.00    -0.495 OA
ENDBRANCH  12  20
ENDBRANCH   1  15
BRANCH   1  21
ATOM     21  O   UNL     1      -5.977  -1.768  -0.525  0.00  0.00    -0.383 OA
ATOM     22  H   UNL     1      -6.090  -0.934  -0.049  0.00  0.00    +0.210 HD
ENDBRANCH   1  21
TORSDOF 4
