REMARK  Name = ZINC39981008
REMARK  6 active torsions:
REMARK  status: ('A' for Active; 'I' for Inactive)
REMARK    1  A    between atoms: C_1  and  C_2
REMARK    2  A    between atoms: C_14  and  S_16
REMARK    3  A    between atoms: S_16  and  C_17
REMARK    4  A    between atoms: C_17  and  C_18
REMARK    5  A    between atoms: N_20  and  C_21
REMARK    6  A    between atoms: C_24  and  C_27
REMARK                            x       y       z     vdW  Elec       q    Type
REMARK                         _______ _______ _______ _____ _____    ______ ____
ROOT
ATOM      1  S   UNL     1       2.558  -6.010   4.102  0.00  0.00    -0.075 S 
ENDROOT
BRANCH   1  14
ATOM      2  C   UNL     1      -0.070   1.481   0.004  0.00  0.00    +0.044 C 
ATOM      3  C   UNL     1      -0.044  -0.026  -0.000  0.00  0.00    -0.050 A 
ATOM      4  C   UNL     1      -0.046  -0.698  -1.230  0.00  0.00    +0.005 A 
ATOM      5  C   UNL     1      -0.030  -2.048  -1.305  0.00  0.00    +0.026 A 
ATOM      6  C   UNL     1      -0.009  -2.834  -0.065  0.00  0.00    +0.046 A 
ATOM      7  N   UNL     1       0.040  -4.128   0.149  0.00  0.00    -0.358 N 
ATOM      8  C   UNL     1      -0.088  -4.372   1.576  0.00  0.00    +0.252 C 
ATOM      9  C   UNL     1       0.042  -3.014   2.241  0.00  0.00    +0.117 C 
ATOM     10  C   UNL     1       0.004  -2.093   1.222  0.00  0.00    +0.025 A 
ATOM     11  C   UNL     1      -0.015  -0.680   1.183  0.00  0.00    +0.015 A 
ATOM     12  N   UNL     1       0.287  -2.892   3.548  0.00  0.00    -0.147 NA
ATOM     13  N   UNL     1       0.922  -3.886   4.093  0.00  0.00    -0.122 NA
ATOM     14  C   UNL     1       1.365  -4.942   3.367  0.00  0.00    +0.208 C 
ATOM     15  N   UNL     1       0.956  -5.219   2.150  0.00  0.00    -0.227 NA
ATOM     16  H   UNL     1       0.145  -4.809  -0.533  0.00  0.00    +0.162 HD
ENDBRANCH   1  14
BRANCH   1  17
ATOM     17  C   UNL     1       2.872  -7.261   2.827  0.00  0.00    +0.173 C 
BRANCH  17  18
ATOM     18  C   UNL     1       3.888  -8.251   3.333  0.00  0.00    +0.227 C 
ATOM     19  O   UNL     1       4.355  -8.125   4.446  0.00  0.00    -0.275 OA
ATOM     20  N   UNL     1       4.279  -9.277   2.551  0.00  0.00    -0.285 N 
ATOM     21  H   UNL     1       3.857  -9.416   1.688  0.00  0.00    +0.155 HD
BRANCH  20  22
ATOM     22  C   UNL     1       5.292 -10.139   2.982  0.00  0.00    +0.033 A 
ATOM     23  C   UNL     1       6.190 -10.671   2.066  0.00  0.00    +0.024 A 
ATOM     24  C   UNL     1       7.189 -11.523   2.494  0.00  0.00    +0.014 A 
ATOM     25  C   UNL     1       7.296 -11.846   3.835  0.00  0.00    +0.055 A 
ATOM     26  C   UNL     1       6.404 -11.318   4.750  0.00  0.00    +0.014 A 
ATOM     27  C   UNL     1       5.406 -10.461   4.328  0.00  0.00    +0.024 A 
BRANCH  25  28
ATOM     28  C   UNL     1       8.388 -12.775   4.299  0.00  0.00    +0.417 C 
ATOM     29  F   UNL     1       9.526 -12.031   4.628  0.00  0.00    -0.166 F 
ATOM     30  F   UNL     1       7.952 -13.481   5.425  0.00  0.00    -0.166 F 
ATOM     31  F   UNL     1       8.700 -13.676   3.275  0.00  0.00    -0.166 F 
ENDBRANCH  25  28
ENDBRANCH  20  22
ENDBRANCH  17  18
ENDBRANCH   1  17
TORSDOF 5
