REMARK  Name = ZINC51021874
REMARK  3 active torsions:
REMARK  status: ('A' for Active; 'I' for Inactive)
REMARK    1  A    between atoms: C_3  and  N_18
REMARK    2  A    between atoms: C_6  and  S_7
REMARK    3  A    between atoms: S_7  and  C_8
REMARK                            x       y       z     vdW  Elec       q    Type
REMARK                         _______ _______ _______ _____ _____    ______ ____
ROOT
ATOM      1  S   UNL     1      -1.505  -0.917   0.012  0.00  0.00    -0.066 S 
ENDROOT
BRANCH   1   2
ATOM      2  C   UNL     1      -0.989  -2.594  -0.151  0.00  0.00    +0.130 A 
ATOM      3  C   UNL     1      -1.927  -3.619  -0.292  0.00  0.00    +0.118 A 
ATOM      4  C   UNL     1      -1.467  -4.939  -0.420  0.00  0.00    +0.182 A 
ATOM      5  N   UNL     1      -2.555  -5.722  -0.539  0.00  0.00    -0.216 NA
ATOM      6  H   UNL     1      -3.919  -2.940  -0.284  0.00  0.00    +0.167 HD
ATOM      7  C   UNL     1      -3.633  -4.989  -0.496  0.00  0.00    +0.199 A 
ATOM      8  N   UNL     1      -3.303  -3.687  -0.345  0.00  0.00    -0.341 N 
ATOM      9  N   UNL     1      -0.149  -5.163  -0.400  0.00  0.00    -0.214 NA
ATOM     10  C   UNL     1       0.697  -4.166  -0.265  0.00  0.00    +0.224 A 
ATOM     11  N   UNL     1       0.303  -2.911  -0.148  0.00  0.00    -0.227 NA
ENDBRANCH   1   2
BRANCH   1  17
ATOM     12  C   UNL     1       0.598   0.369  -1.196  0.00  0.00    +0.020 A 
ATOM     13  C   UNL     1       1.780   1.084  -1.152  0.00  0.00    +0.044 A 
ATOM     14  C   UNL     1       2.333   1.406   0.083  0.00  0.00    +0.116 A 
ATOM     15  N   UNL     1       1.740   1.035   1.207  0.00  0.00    -0.240 NA
ATOM     16  C   UNL     1       0.611   0.351   1.202  0.00  0.00    +0.128 A 
ATOM     17  C   UNL     1       0.002  -0.004   0.008  0.00  0.00    +0.032 A 
BRANCH  14  18
ATOM     18  N   UNL     1       3.524   2.126   0.138  0.00  0.00    -0.343 N 
ATOM     19  H   UNL     1       3.963   2.400  -0.682  0.00  0.00    +0.144 HD
ATOM     20  H   UNL     1       3.914   2.353   0.997  0.00  0.00    +0.144 HD
ENDBRANCH  14  18
ENDBRANCH   1  17
TORSDOF 3
