REMARK  Name = ZINC44327952
REMARK  9 active torsions:
REMARK  status: ('A' for Active; 'I' for Inactive)
REMARK    1  A    between atoms: C_1  and  O_2
REMARK    2  A    between atoms: O_2  and  C_3
REMARK    3  A    between atoms: C_6  and  C_10
REMARK    4  A    between atoms: C_8  and  O_9
REMARK    5  A    between atoms: C_10  and  C_11
REMARK    6  A    between atoms: C_11  and  C_13
REMARK    7  A    between atoms: C_11  and  N_17
REMARK    8  A    between atoms: C_13  and  O_15
REMARK    9  A    between atoms: O_15  and  C_16
REMARK                            x       y       z     vdW  Elec       q    Type
REMARK                         _______ _______ _______ _____ _____    ______ ____
ROOT
ATOM      1  C   UNL     1       0.243  -0.203   1.963  0.00  0.00    +0.162 A 
ATOM      2  C   UNL     1       0.462  -1.540   1.675  0.00  0.00    +0.065 A 
ATOM      3  C   UNL     1       1.243  -2.310   2.518  0.00  0.00    +0.025 A 
ATOM      4  C   UNL     1       1.806  -1.748   3.649  0.00  0.00    -0.031 A 
ATOM      5  C   UNL     1       1.592  -0.414   3.942  0.00  0.00    +0.053 A 
ATOM      6  C   UNL     1       0.815   0.364   3.098  0.00  0.00    +0.159 A 
ATOM      7 BR   UNL     1       1.539  -4.136   2.124  0.00  0.00    -0.050 Br
ENDROOT
BRANCH   1   9
ATOM      8  C   UNL     1      -1.078  -0.092  -0.011  0.00  0.00    +0.277 C 
ATOM      9  O   UNL     1      -0.523   0.556   1.135  0.00  0.00    -0.491 OA
ENDBRANCH   1   9
BRANCH   6  10
ATOM     10  O   UNL     1       0.608   1.678   3.382  0.00  0.00    -0.503 OA
ATOM     11  H   UNL     1      -0.170   1.843   3.933  0.00  0.00    +0.292 HD
ENDBRANCH   6  10
BRANCH   4  12
ATOM     12  C   UNL     1       2.656  -2.591   4.564  0.00  0.00    +0.031 C 
BRANCH  12  13
ATOM     13  C   UNL     1       4.089  -2.640   4.029  0.00  0.00    +0.040 C 
BRANCH  13  14
ATOM     14  N   UNL     1       4.682  -1.298   4.093  0.00  0.00    +0.387 N 
ATOM     15  H   UNL     1       4.611  -0.943   5.035  0.00  0.00    -0.089 HD
ATOM     16  H   UNL     1       5.653  -1.346   3.823  0.00  0.00    -0.089 HD
ATOM     17  H   UNL     1       4.188  -0.682   3.463  0.00  0.00    -0.089 HD
ENDBRANCH  13  14
BRANCH  13  18
ATOM     18  C   UNL     1       4.906  -3.591   4.866  0.00  0.00    +0.292 C 
ATOM     19  O   UNL     1       5.640  -3.161   5.724  0.00  0.00    -0.253 OA
BRANCH  18  20
ATOM     20  O   UNL     1       4.818  -4.914   4.658  0.00  0.00    -0.469 OA
ATOM     21  C   UNL     1       5.621  -5.756   5.488  0.00  0.00    +0.280 C 
ENDBRANCH  18  20
ENDBRANCH  13  18
ENDBRANCH  12  13
ENDBRANCH   4  12
TORSDOF 7
