REMARK  Name = ZINC33021693
REMARK  10 active torsions:
REMARK  status: ('A' for Active; 'I' for Inactive)
REMARK    1  A    between atoms: C_4  and  C_7
REMARK    2  A    between atoms: C_9  and  C_12
REMARK    3  A    between atoms: C_12  and  C_13
REMARK    4  A    between atoms: N_15  and  C_16
REMARK    5  A    between atoms: C_16  and  C_17
REMARK    6  A    between atoms: C_17  and  C_18
REMARK    7  A    between atoms: C_18  and  C_19
REMARK    8  A    between atoms: C_20  and  C_31
REMARK    9  A    between atoms: C_21  and  N_30
REMARK   10  A    between atoms: N_22  and  C_24
REMARK                            x       y       z     vdW  Elec       q    Type
REMARK                         _______ _______ _______ _____ _____    ______ ____
ROOT
ATOM      1  C   UNL     1      -0.019   1.526   0.010  0.00  0.00    +0.025 C 
ENDROOT
BRANCH   1   2
ATOM      2  C   UNL     1       1.417   2.055  -0.000  0.00  0.00    +0.104 C 
BRANCH   2   5
ATOM      3  C   UNL     1       2.555   4.210   0.000  0.00  0.00    +0.219 C 
ATOM      4  O   UNL     1       3.613   3.618  -0.013  0.00  0.00    -0.275 OA
ATOM      5  N   UNL     1       1.397   3.520   0.008  0.00  0.00    -0.315 N 
ATOM      6  H   UNL     1       0.437   4.057   0.020  0.00  0.00    +0.149 HD
BRANCH   3   7
ATOM      7  C   UNL     1       2.534   5.717   0.009  0.00  0.00    +0.151 C 
BRANCH   7  10
ATOM      8  C   UNL     1       6.048   6.293   0.932  0.00  0.00    +0.109 A 
ATOM      9  N   UNL     1       4.798   5.854   0.921  0.00  0.00    -0.243 NA
ATOM     10  C   UNL     1       3.948   6.238  -0.002  0.00  0.00    +0.058 A 
ATOM     11  C   UNL     1       4.344   7.112  -0.965  0.00  0.00    +0.071 A 
ATOM     12  S   UNL     1       6.049   7.373  -0.493  0.00  0.00    -0.075 S 
BRANCH   8  16
ATOM     13  C   UNL     1       9.200   5.391   3.633  0.00  0.00    +0.000 A 
ATOM     14  C   UNL     1       9.421   6.265   2.584  0.00  0.00    +0.001 A 
ATOM     15  C   UNL     1       8.402   6.562   1.703  0.00  0.00    +0.010 A 
ATOM     16  C   UNL     1       7.145   5.979   1.872  0.00  0.00    +0.007 A 
ATOM     17  C   UNL     1       6.927   5.101   2.935  0.00  0.00    +0.010 A 
ATOM     18  C   UNL     1       7.957   4.809   3.806  0.00  0.00    +0.001 A 
ENDBRANCH   8  16
ENDBRANCH   7  10
ENDBRANCH   3   7
ENDBRANCH   2   5
ENDBRANCH   1   2
BRANCH   1  19
ATOM     19  C   UNL     1       0.002  -0.004   0.002  0.00  0.00    +0.060 C 
BRANCH  19  20
ATOM     20  C   UNL     1      -1.412  -0.526   0.013  0.00  0.00    +0.083 A 
ATOM     21  C   UNL     1      -2.176  -0.824   1.165  0.00  0.00    +0.114 A 
ATOM     22  C   UNL     1      -3.419  -1.272   0.724  0.00  0.00    +0.138 A 
ATOM     23  N   UNL     1      -3.392  -1.251  -0.628  0.00  0.00    -0.217 N 
ATOM     24  N   UNL     1      -2.138  -0.785  -1.038  0.00  0.00    -0.168 NA
BRANCH  23  25
ATOM     25  C   UNL     1      -4.442  -1.631  -1.474  0.00  0.00    +0.067 A 
ATOM     26  C   UNL     1      -5.278  -2.681  -1.118  0.00  0.00    +0.028 A 
ATOM     27  C   UNL     1      -6.316  -3.049  -1.952  0.00  0.00    +0.002 A 
ATOM     28  C   UNL     1      -6.516  -2.381  -3.146  0.00  0.00    +0.000 A 
ATOM     29  C   UNL     1      -5.683  -1.338  -3.506  0.00  0.00    +0.002 A 
ATOM     30  C   UNL     1      -4.646  -0.961  -2.673  0.00  0.00    +0.028 A 
ENDBRANCH  23  25
BRANCH  22  31
ATOM     31  N   UNL     1      -4.477  -1.670   1.518  0.00  0.00    -0.342 N 
ATOM     32  H   UNL     1      -5.416  -2.007   1.055  0.00  0.00    +0.144 HD
ATOM     33  H   UNL     1      -4.381  -1.649   2.614  0.00  0.00    +0.144 HD
ENDBRANCH  22  31
BRANCH  21  34
ATOM     34  C   UNL     1      -1.754  -0.688   2.526  0.00  0.00    +0.104 C 
ATOM     35  N   UNL     1      -1.419  -0.580   3.606  0.00  0.00    -0.191 NA
ENDBRANCH  21  34
ENDBRANCH  19  20
ENDBRANCH   1  19
TORSDOF 10
