REMARK  Name = ZINC12788404
REMARK  3 active torsions:
REMARK  status: ('A' for Active; 'I' for Inactive)
REMARK    1  A    between atoms: C_4  and  O_27
REMARK    2  A    between atoms: C_5  and  C_7
REMARK    3  A    between atoms: C_7  and  C_9
REMARK                            x       y       z     vdW  Elec       q    Type
REMARK                         _______ _______ _______ _____ _____    ______ ____
ROOT
ATOM      1  C   UNL     1      -2.016   5.021  -6.875  0.00  0.00    +0.039 A 
ATOM      2  C   UNL     1      -2.258   6.371  -6.514  0.00  0.00    +0.017 A 
ATOM      3  C   UNL     1      -2.004   6.775  -5.245  0.00  0.00    +0.047 A 
ATOM      4  C   UNL     1      -1.505   5.852  -4.301  0.00  0.00    +0.142 A 
ATOM      5  N   UNL     1      -1.260   6.261  -3.061  0.00  0.00    -0.222 NA
ATOM      6  C   UNL     1      -0.795   5.426  -2.149  0.00  0.00    +0.116 A 
ATOM      7  C   UNL     1      -0.532   4.072  -2.437  0.00  0.00    +0.076 A 
ATOM      8  C   UNL     1      -0.019   3.272  -1.322  0.00  0.00    -0.023 A 
ATOM      9  C   UNL     1       0.150   3.903  -0.142  0.00  0.00    -0.004 A 
ATOM     10  S   UNL     1      -0.354   5.577  -0.436  0.00  0.00    -0.073 S 
ATOM     11  C   UNL     1       0.654   3.311   1.139  0.00  0.00    +0.043 C 
ATOM     12  C   UNL     1       0.603   1.781   1.018  0.00  0.00    +0.005 C 
ATOM     13  C   UNL     1       1.231   1.374  -0.318  0.00  0.00    +0.005 C 
ATOM     14  C   UNL     1       0.315   1.790  -1.469  0.00  0.00    +0.037 C 
ATOM     15  C   UNL     1      -0.799   3.656  -3.775  0.00  0.00    +0.267 A 
ATOM     16  O   UNL     1      -0.598   2.501  -4.110  0.00  0.00    -0.267 OA
ATOM     17  N   UNL     1      -1.275   4.549  -4.665  0.00  0.00    -0.267 N 
ATOM     18  C   UNL     1      -1.529   4.138  -5.939  0.00  0.00    +0.108 A 
ENDROOT
BRANCH   1  19
ATOM     19  C   UNL     1      -2.287   4.564  -8.251  0.00  0.00    +0.198 C 
ATOM     20  O   UNL     1      -2.173   3.387  -8.535  0.00  0.00    -0.286 OA
BRANCH  19  25
ATOM     21  C   UNL     1      -4.408   6.511 -10.659  0.00  0.00    +0.001 A 
ATOM     22  C   UNL     1      -3.469   7.360 -11.224  0.00  0.00    +0.004 A 
ATOM     23  C   UNL     1      -2.148   7.304 -10.827  0.00  0.00    +0.046 A 
ATOM     24  C   UNL     1      -1.751   6.396  -9.858  0.00  0.00    +0.128 A 
ATOM     25  C   UNL     1      -2.697   5.535  -9.283  0.00  0.00    +0.064 A 
ATOM     26  C   UNL     1      -4.030   5.599  -9.699  0.00  0.00    +0.015 A 
BRANCH  24  27
ATOM     27  O   UNL     1      -0.453   6.340  -9.467  0.00  0.00    -0.506 OA
ATOM     28  H   UNL     1       0.086   5.724  -9.983  0.00  0.00    +0.292 HD
ENDBRANCH  24  27
ENDBRANCH  19  25
ENDBRANCH   1  19
TORSDOF 3
