REMARK  Name = ZINC35453183
REMARK  3 active torsions:
REMARK  status: ('A' for Active; 'I' for Inactive)
REMARK    1  A    between atoms: C_3  and  N_9
REMARK    2  A    between atoms: N_9  and  C_10
REMARK    3  A    between atoms: C_15  and  N_16
REMARK                            x       y       z     vdW  Elec       q    Type
REMARK                         _______ _______ _______ _____ _____    ______ ____
ROOT
ATOM      1  C   UNL     1       3.513   3.524  -0.106  0.00  0.00    +0.054 A 
ATOM      2  C   UNL     1       2.280   4.160  -0.077  0.00  0.00    +0.052 A 
ATOM      3  C   UNL     1       2.214   5.541  -0.162  0.00  0.00    +0.078 A 
ATOM      4  C   UNL     1       3.382   6.292  -0.276  0.00  0.00    +0.144 A 
ATOM      5  C   UNL     1       4.613   5.659  -0.304  0.00  0.00    +0.072 A 
ATOM      6  C   UNL     1       4.682   4.276  -0.214  0.00  0.00    +0.050 A 
ATOM      7  O   UNL     1       3.300   7.648  -0.360  0.00  0.00    -0.481 OA
ATOM      8  C   UNL     1       2.154   8.182  -1.027  0.00  0.00    +0.325 C 
ATOM      9  C   UNL     1       0.910   7.491  -0.530  0.00  0.00    +0.255 C 
ATOM     10  O   UNL     1      -0.144   8.090  -0.486  0.00  0.00    -0.272 OA
ATOM     11  N   UNL     1       0.974   6.201  -0.133  0.00  0.00    -0.280 N 
ATOM     12  H   UNL     1       0.176   5.738   0.166  0.00  0.00    +0.155 HD
ENDROOT
BRANCH   6  13
ATOM     13  N   UNL     1       5.928   3.634  -0.236  0.00  0.00    -0.356 N 
ATOM     14  H   UNL     1       5.976   2.667  -0.177  0.00  0.00    +0.142 HD
ATOM     15  H   UNL     1       6.741   4.157  -0.311  0.00  0.00    +0.142 HD
ENDBRANCH   6  13
BRANCH   1  16
ATOM     16  N   UNL     1       3.583   2.126  -0.021  0.00  0.00    -0.312 N 
ATOM     17  H   UNL     1       4.436   1.677  -0.124  0.00  0.00    +0.152 HD
BRANCH  16  20
ATOM     18  C   UNL     1       0.359   1.065   1.392  0.00  0.00    +0.040 A 
ATOM     19  C   UNL     1       1.504   1.804   1.163  0.00  0.00    +0.027 A 
ATOM     20  C   UNL     1       2.424   1.381   0.212  0.00  0.00    +0.046 A 
ATOM     21  C   UNL     1       2.189   0.215  -0.508  0.00  0.00    +0.042 A 
ATOM     22  C   UNL     1       1.042  -0.519  -0.276  0.00  0.00    +0.055 A 
ATOM     23  C   UNL     1       0.127  -0.095   0.673  0.00  0.00    +0.125 A 
ATOM     24  F   UNL     1      -0.994  -0.815   0.899  0.00  0.00    -0.205 F 
ATOM     25 BR   UNL     1       3.437  -0.364  -1.804  0.00  0.00    -0.048 Br
ENDBRANCH  16  20
ENDBRANCH   1  16
TORSDOF 3
