REMARK  Name = ZINC49991967
REMARK  8 active torsions:
REMARK  status: ('A' for Active; 'I' for Inactive)
REMARK    1  A    between atoms: C_1  and  C_2
REMARK    2  A    between atoms: C_5  and  N_8
REMARK    3  A    between atoms: N_8  and  C_9
REMARK    4  A    between atoms: C_10  and  C_12
REMARK    5  A    between atoms: C_15  and  N_19
REMARK    6  A    between atoms: C_16  and  N_18
REMARK    7  A    between atoms: N_19  and  C_20
REMARK    8  A    between atoms: N_19  and  C_21
REMARK                            x       y       z     vdW  Elec       q    Type
REMARK                         _______ _______ _______ _____ _____    ______ ____
ROOT
ATOM      1  C   UNL     1      -0.084  -6.217   1.344  0.00  0.00    +0.039 A 
ATOM      2  C   UNL     1      -0.139  -7.025   0.204  0.00  0.00    +0.015 A 
ATOM      3  C   UNL     1      -0.196  -8.395   0.333  0.00  0.00    +0.026 A 
ATOM      4  C   UNL     1      -0.198  -8.979   1.594  0.00  0.00    +0.050 A 
ATOM      5  C   UNL     1      -0.142  -8.177   2.737  0.00  0.00    +0.047 A 
ATOM      6  C   UNL     1      -0.081  -6.802   2.613  0.00  0.00    +0.037 A 
ENDROOT
BRANCH   1   9
ATOM      7  N   UNL     1      -0.445  -4.162   0.070  0.00  0.00    -0.271 N 
ATOM      8  C   UNL     1      -1.086  -4.963  -0.976  0.00  0.00    +0.138 C 
ATOM      9  C   UNL     1      -0.023  -4.750   1.206  0.00  0.00    +0.251 C 
ATOM     10  O   UNL     1       0.407  -4.071   2.119  0.00  0.00    -0.270 OA
BRANCH   7  15
ATOM     11  C   UNL     1       0.258   1.419  -0.665  0.00  0.00    +0.044 C 
ATOM     12  C   UNL     1       0.072  -0.064  -0.470  0.00  0.00    -0.050 A 
ATOM     13  C   UNL     1      -0.665  -0.792  -1.385  0.00  0.00    +0.005 A 
ATOM     14  C   UNL     1      -0.838  -2.151  -1.210  0.00  0.00    +0.024 A 
ATOM     15  C   UNL     1      -0.271  -2.786  -0.112  0.00  0.00    +0.036 A 
ATOM     16  C   UNL     1       0.468  -2.051   0.806  0.00  0.00    +0.024 A 
ATOM     17  C   UNL     1       0.642  -0.693   0.621  0.00  0.00    +0.005 A 
ENDBRANCH   7  15
ENDBRANCH   1   9
BRANCH   5  18
ATOM     18  N   UNL     1      -0.145  -8.767   4.007  0.00  0.00    -0.357 N 
ATOM     19  H   UNL     1      -0.184  -9.732   4.094  0.00  0.00    +0.142 HD
ATOM     20  H   UNL     1      -0.106  -8.210   4.801  0.00  0.00    +0.142 HD
ENDBRANCH   5  18
BRANCH   4  21
ATOM     21  N   UNL     1      -0.256 -10.366   1.719  0.00  0.00    -0.335 N 
ATOM     22  C   UNL     1       0.981 -11.150   1.761  0.00  0.00    +0.129 C 
ATOM     23  C   UNL     1      -1.553 -11.040   1.808  0.00  0.00    +0.129 C 
ENDBRANCH   4  21
TORSDOF 4
