REMARK  Name = ZINC09646939
REMARK  12 active torsions:
REMARK  status: ('A' for Active; 'I' for Inactive)
REMARK    1  A    between atoms: C_1  and  C_2
REMARK    2  A    between atoms: C_2  and  C_4
REMARK    3  A    between atoms: C_2  and  O_10
REMARK    4  A    between atoms: O_10  and  C_11
REMARK    5  A    between atoms: C_11  and  C_13
REMARK    6  A    between atoms: C_15  and  S_20
REMARK    7  A    between atoms: S_20  and  N_23
REMARK    8  A    between atoms: N_23  and  C_24
REMARK    9  A    between atoms: N_23  and  C_27
REMARK   10  A    between atoms: C_24  and  C_25
REMARK   11  A    between atoms: C_32  and  O_33
REMARK   12  A    between atoms: O_33  and  C_34
REMARK                            x       y       z     vdW  Elec       q    Type
REMARK                         _______ _______ _______ _____ _____    ______ ____
ROOT
ATOM      1  C   UNL     1       1.736   3.936  -3.668  0.00  0.00    +0.079 A 
ATOM      2  C   UNL     1       1.393   3.718  -2.331  0.00  0.00    +0.045 A 
ATOM      3  C   UNL     1       1.836   2.584  -1.685  0.00  0.00    +0.110 A 
ATOM      4  C   UNL     1       2.624   1.664  -2.355  0.00  0.00    +0.030 A 
ATOM      5  C   UNL     1       2.963   1.868  -3.680  0.00  0.00    +0.023 A 
ATOM      6  C   UNL     1       2.527   3.000  -4.341  0.00  0.00    +0.055 A 
ATOM      7 CL   UNL     1       2.958   3.260  -6.002  0.00  0.00    -0.083 Cl
ENDROOT
BRANCH   3   8
ATOM      8  S   UNL     1       1.405   2.308   0.001  0.00  0.00    +0.075 S 
ATOM      9  O   UNL     1       1.122   3.583   0.561  0.00  0.00    -0.150 OA
ATOM     10  O   UNL     1       2.396   1.443   0.538  0.00  0.00    -0.150 OA
BRANCH   8  11
ATOM     11  N   UNL     1      -0.018   1.461   0.010  0.00  0.00    -0.196 N 
BRANCH  11  12
ATOM     12  C   UNL     1      -1.239   2.144   0.020  0.00  0.00    +0.093 A 
ATOM     13  C   UNL     1      -1.895   2.381   1.219  0.00  0.00    +0.028 A 
ATOM     14  C   UNL     1      -3.098   3.060   1.226  0.00  0.00    +0.002 A 
ATOM     15  C   UNL     1      -3.657   3.496   0.039  0.00  0.00    +0.004 A 
ATOM     16  C   UNL     1      -3.012   3.259  -1.161  0.00  0.00    +0.047 A 
ATOM     17  C   UNL     1      -1.803   2.583  -1.176  0.00  0.00    +0.143 A 
BRANCH  17  18
ATOM     18  O   UNL     1      -1.168   2.349  -2.356  0.00  0.00    -0.493 OA
ATOM     19  C   UNL     1      -1.806   2.828  -3.542  0.00  0.00    +0.277 C 
ENDBRANCH  17  18
ENDBRANCH  11  12
BRANCH  11  20
ATOM     20  C   UNL     1       0.002  -0.004   0.002  0.00  0.00    +0.158 C 
BRANCH  20  21
ATOM     21  C   UNL     1      -0.101  -0.516   1.416  0.00  0.00    -0.014 C 
ATOM     22  C   UNL     1      -1.048  -1.362   1.738  0.00  0.00    +0.005 C 
ENDBRANCH  20  21
ENDBRANCH  11  20
ENDBRANCH   8  11
ENDBRANCH   3   8
BRANCH   1  23
ATOM     23  C   UNL     1       1.264   5.148  -4.367  0.00  0.00    +0.341 C 
ATOM     24  O   UNL     1       1.564   5.334  -5.529  0.00  0.00    -0.245 OA
BRANCH  23  25
ATOM     25  O   UNL     1       0.502   6.048  -3.715  0.00  0.00    -0.449 OA
BRANCH  25  27
ATOM     26  C   UNL     1      -1.263   6.922  -5.147  0.00  0.00    +0.062 C 
ATOM     27  C   UNL     1       0.075   7.215  -4.465  0.00  0.00    +0.259 C 
BRANCH  27  28
ATOM     28  C   UNL     1      -0.085   8.384  -3.526  0.00  0.00    +0.261 C 
ATOM     29  O   UNL     1       0.139   8.245  -2.343  0.00  0.00    -0.271 OA
ATOM     30  N   UNL     1      -0.477   9.582  -4.003  0.00  0.00    -0.237 N 
ATOM     31  C   UNL     1      -0.621  10.627  -3.163  0.00  0.00    +0.303 C 
ATOM     32  O   UNL     1      -0.396  10.488  -1.977  0.00  0.00    -0.253 OA
ATOM     33  N   UNL     1      -1.013  11.825  -3.639  0.00  0.00    -0.313 N 
ATOM     34  H   UNL     1      -0.657   9.692  -4.949  0.00  0.00    +0.159 HD
ATOM     35  H   UNL     1      -1.192  11.935  -4.586  0.00  0.00    +0.146 HD
ATOM     36  H   UNL     1      -1.116  12.577  -3.035  0.00  0.00    +0.146 HD
ENDBRANCH  27  28
ENDBRANCH  25  27
ENDBRANCH  23  25
ENDBRANCH   1  23
TORSDOF 10
