REMARK  Name = ZINC09926864
REMARK  4 active torsions:
REMARK  status: ('A' for Active; 'I' for Inactive)
REMARK    1  A    between atoms: C_1  and  C_2
REMARK    2  A    between atoms: C_5  and  N_9
REMARK    3  A    between atoms: C_10  and  C_12
REMARK    4  A    between atoms: C_12  and  C_13
REMARK                            x       y       z     vdW  Elec       q    Type
REMARK                         _______ _______ _______ _____ _____    ______ ____
ROOT
ATOM      1  C   UNL     1       0.634  -0.438  -2.373  0.00  0.00    +0.129 C 
ENDROOT
BRANCH   1   2
ATOM      2  C   UNL     1       0.995  -0.699  -0.909  0.00  0.00    +0.189 C 
ATOM      3  C   UNL     1      -0.018  -0.033   0.003  0.00  0.00    +0.333 C 
ATOM      4  O   UNL     1      -0.771  -0.684   0.688  0.00  0.00    -0.248 OA
ATOM      5  O   UNL     1      -0.044   1.315   0.016  0.00  0.00    -0.423 OA
ATOM      6  C   UNL     1       1.158   1.953   0.015  0.00  0.00    +0.152 A 
ATOM      7  C   UNL     1       1.208   3.305   0.323  0.00  0.00    +0.048 A 
ATOM      8  C   UNL     1       2.417   3.973   0.318  0.00  0.00    +0.004 A 
ATOM      9  C   UNL     1       3.584   3.299   0.007  0.00  0.00    +0.002 A 
ATOM     10  C   UNL     1       3.545   1.952  -0.298  0.00  0.00    +0.026 A 
ATOM     11  C   UNL     1       2.333   1.275  -0.292  0.00  0.00    +0.071 A 
ATOM     12  N   UNL     1       2.304  -0.095  -0.596  0.00  0.00    -0.328 N 
ATOM     13  H   UNL     1       3.115  -0.626  -0.600  0.00  0.00    +0.147 HD
ENDBRANCH   1   2
BRANCH   1  15
ATOM     14  N   UNL     1       1.446  -1.125  -4.606  0.00  0.00    -0.284 N 
ATOM     15  C   UNL     1       1.575  -1.204  -3.267  0.00  0.00    +0.220 C 
ATOM     16  O   UNL     1       2.448  -1.891  -2.781  0.00  0.00    -0.275 OA
ATOM     17  H   UNL     1       0.709  -0.628  -4.994  0.00  0.00    +0.155 HD
BRANCH  14  22
ATOM     18  C   UNL     1       5.216  -3.702  -7.975  0.00  0.00    +0.044 C 
ATOM     19  C   UNL     1       4.215  -3.017  -7.081  0.00  0.00    -0.049 A 
ATOM     20  C   UNL     1       3.856  -3.595  -5.877  0.00  0.00    +0.005 A 
ATOM     21  C   UNL     1       2.943  -2.968  -5.052  0.00  0.00    +0.025 A 
ATOM     22  C   UNL     1       2.376  -1.761  -5.438  0.00  0.00    +0.052 A 
ATOM     23  C   UNL     1       2.738  -1.181  -6.648  0.00  0.00    +0.062 A 
ATOM     24  C   UNL     1       3.657  -1.812  -7.466  0.00  0.00    +0.025 A 
ATOM     25 CL   UNL     1       2.038   0.332  -7.131  0.00  0.00    -0.082 Cl
ENDBRANCH  14  22
ENDBRANCH   1  15
TORSDOF 3
