REMARK  Name = ZINC38985212
REMARK  6 active torsions:
REMARK  status: ('A' for Active; 'I' for Inactive)
REMARK    1  A    between atoms: C_1  and  C_2
REMARK    2  A    between atoms: C_4  and  C_16
REMARK    3  A    between atoms: C_6  and  C_14
REMARK    4  A    between atoms: C_7  and  N_13
REMARK    5  A    between atoms: C_25  and  O_26
REMARK    6  A    between atoms: O_26  and  C_27
REMARK                            x       y       z     vdW  Elec       q    Type
REMARK                         _______ _______ _______ _____ _____    ______ ____
ROOT
ATOM      1  C   UNL     1      -0.018   1.503   0.010  0.00  0.00    +0.067 C 
ATOM      2  C   UNL     1       0.002  -0.004   0.002  0.00  0.00    +0.066 C 
ATOM      3  C   UNL     1      -1.064  -0.768   0.003  0.00  0.00    +0.030 C 
ATOM      4  C   UNL     1      -2.537  -0.492  -0.122  0.00  0.00    +0.102 C 
ATOM      5  C   UNL     1      -3.075  -1.565  -1.050  0.00  0.00    +0.098 C 
ATOM      6  C   UNL     1      -2.317  -2.612  -1.438  0.00  0.00    +0.195 C 
ATOM      7  O   UNL     1      -1.033  -2.841  -1.107  0.00  0.00    -0.448 OA
ATOM      8  C   UNL     1      -0.528  -2.199   0.066  0.00  0.00    +0.343 C 
ATOM      9  N   UNL     1       0.921  -1.985   0.002  0.00  0.00    -0.138 NA
ATOM     10  N   UNL     1       1.127  -0.765  -0.013  0.00  0.00    -0.155 NA
ENDROOT
BRANCH   4  11
ATOM     11  C   UNL     1      -2.762   0.875  -0.717  0.00  0.00    +0.014 A 
ATOM     12  C   UNL     1      -3.466   1.852   0.006  0.00  0.00    -0.010 A 
ATOM     13  C   UNL     1      -3.975   1.585   1.289  0.00  0.00    +0.009 A 
ATOM     14  C   UNL     1      -4.652   2.555   1.960  0.00  0.00    +0.001 A 
ATOM     15  C   UNL     1      -4.851   3.813   1.395  0.00  0.00    +0.001 A 
ATOM     16  C   UNL     1      -4.373   4.108   0.155  0.00  0.00    +0.008 A 
ATOM     17  C   UNL     1      -3.668   3.132  -0.569  0.00  0.00    -0.017 A 
ATOM     18  C   UNL     1      -3.160   3.401  -1.852  0.00  0.00    +0.012 A 
ATOM     19  C   UNL     1      -2.483   2.434  -2.526  0.00  0.00    +0.046 A 
ATOM     20  C   UNL     1      -2.278   1.172  -1.959  0.00  0.00    +0.125 A 
BRANCH  20  21
ATOM     21  O   UNL     1      -1.592   0.227  -2.654  0.00  0.00    -0.495 OA
ATOM     22  C   UNL     1      -1.110   0.597  -3.948  0.00  0.00    +0.277 C 
ENDBRANCH  20  21
ENDBRANCH   4  11
BRANCH   6  23
ATOM     23  N   UNL     1      -2.917  -3.538  -2.254  0.00  0.00    -0.329 N 
ATOM     24  H   UNL     1      -3.842  -3.421  -2.523  0.00  0.00    +0.145 HD
ATOM     25  H   UNL     1      -2.417  -4.310  -2.562  0.00  0.00    +0.145 HD
ENDBRANCH   6  23
BRANCH   5  26
ATOM     26  C   UNL     1      -4.422  -1.466  -1.525  0.00  0.00    +0.101 C 
ATOM     27  N   UNL     1      -5.491  -1.387  -1.903  0.00  0.00    -0.191 NA
ENDBRANCH   5  26
TORSDOF 4
