REMARK  Name = ZINC04532799
REMARK  9 active torsions:
REMARK  status: ('A' for Active; 'I' for Inactive)
REMARK    1  A    between atoms: C_1  and  C_2
REMARK    2  A    between atoms: C_2  and  C_4
REMARK    3  A    between atoms: C_2  and  C_10
REMARK    4  A    between atoms: C_4  and  C_5
REMARK    5  A    between atoms: C_5  and  C_6
REMARK    6  A    between atoms: C_6  and  C_7
REMARK    7  A    between atoms: C_16  and  C_35
REMARK    8  A    between atoms: C_27  and  C_34
REMARK    9  A    between atoms: C_30  and  O_33
REMARK                            x       y       z     vdW  Elec       q    Type
REMARK                         _______ _______ _______ _____ _____    ______ ____
ROOT
ATOM      1  C   UNL     1       2.232  -0.583   2.629  0.00  0.00    -0.002 C 
ATOM      2  C   UNL     1       1.612  -1.986   2.416  0.00  0.00    +0.004 C 
ATOM      3  C   UNL     1       0.387  -1.789   1.481  0.00  0.00    +0.004 C 
ATOM      4  C   UNL     1       0.600  -0.375   0.921  0.00  0.00    -0.001 C 
ATOM      5  C   UNL     1       1.127   0.386   2.154  0.00  0.00    -0.026 C 
ATOM      6  C   UNL     1       1.623   1.758   1.776  0.00  0.00    +0.007 C 
ATOM      7  C   UNL     1       0.775   2.357   0.644  0.00  0.00    +0.005 C 
ATOM      8  C   UNL     1      -0.631   1.775   0.645  0.00  0.00    -0.001 C 
ATOM      9  C   UNL     1      -0.581   0.290   0.284  0.00  0.00    -0.004 C 
ATOM     10  C   UNL     1      -1.916  -0.381   0.571  0.00  0.00    +0.004 C 
ATOM     11  C   UNL     1      -3.050   0.506   0.028  0.00  0.00    +0.004 C 
ATOM     12  C   UNL     1      -2.460   1.460  -0.999  0.00  0.00    -0.002 C 
ATOM     13  C   UNL     1      -1.559   2.498  -0.328  0.00  0.00    -0.026 C 
ATOM     14  C   UNL     1      -0.804   3.260  -1.411  0.00  0.00    +0.010 C 
ATOM     15  C   UNL     1      -1.804   3.950  -2.343  0.00  0.00    +0.032 C 
ATOM     16  C   UNL     1      -2.782   2.951  -2.952  0.00  0.00    +0.115 C 
ATOM     17  C   UNL     1      -3.506   2.149  -1.864  0.00  0.00    +0.035 C 
ATOM     18  C   UNL     1      -2.401   3.481   0.489  0.00  0.00    +0.012 C 
ATOM     19  C   UNL     1       0.095   0.466   3.282  0.00  0.00    +0.012 C 
ENDROOT
BRANCH   1  21
ATOM     20  C   UNL     1       3.509  -1.408   4.609  0.00  0.00    +0.008 C 
ATOM     21  C   UNL     1       2.528  -0.346   4.108  0.00  0.00    -0.010 C 
BRANCH  21  22
ATOM     22  C   UNL     1       3.143   1.043   4.289  0.00  0.00    +0.004 C 
BRANCH  22  23
ATOM     23  C   UNL     1       3.306   1.338   5.781  0.00  0.00    +0.009 C 
BRANCH  23  24
ATOM     24  C   UNL     1       3.921   2.727   5.962  0.00  0.00    +0.095 C 
BRANCH  24  25
ATOM     25  C   UNL     1       4.081   3.018   7.432  0.00  0.00    +0.210 C 
ATOM     26  O   UNL     1       3.737   2.196   8.254  0.00  0.00    -0.276 OA
ATOM     27  N   UNL     1       4.607   4.193   7.833  0.00  0.00    -0.329 N 
ATOM     28  H   UNL     1       4.882   4.851   7.176  0.00  0.00    +0.145 HD
ATOM     29  H   UNL     1       4.710   4.380   8.780  0.00  0.00    +0.145 HD
ENDBRANCH  24  25
ENDBRANCH  23  24
ENDBRANCH  22  23
ENDBRANCH  21  22
ENDBRANCH   1  21
BRANCH  16  30
ATOM     30  O   UNL     1      -3.749   3.655  -3.735  0.00  0.00    -0.392 OA
ATOM     31  H   UNL     1      -3.367   4.187  -4.447  0.00  0.00    +0.210 HD
ENDBRANCH  16  30
TORSDOF 6
