REMARK  Name = ZINC09641787
REMARK  7 active torsions:
REMARK  status: ('A' for Active; 'I' for Inactive)
REMARK    1  A    between atoms: C_1  and  C_2
REMARK    2  A    between atoms: C_2  and  C_3
REMARK    3  A    between atoms: C_3  and  C_31
REMARK    4  A    between atoms: N_6  and  C_10
REMARK    5  A    between atoms: C_10  and  C_11
REMARK    6  A    between atoms: C_14  and  C_26
REMARK    7  A    between atoms: C_17  and  C_19
REMARK                            x       y       z     vdW  Elec       q    Type
REMARK                         _______ _______ _______ _____ _____    ______ ____
ROOT
ATOM      1  C   UNL     1       0.527  -2.576   2.068  0.00  0.00    +0.253 C 
ATOM      2  O   UNL     1       1.082  -1.710   2.712  0.00  0.00    -0.272 OA
ATOM      3  N   UNL     1       0.787  -2.709   0.753  0.00  0.00    -0.181 N 
ATOM      4  C   UNL     1       1.717  -1.875  -0.025  0.00  0.00    +0.173 C 
ATOM      5  C   UNL     1       1.623  -2.459  -1.448  0.00  0.00    +0.090 C 
ATOM      6  C   UNL     1       0.625  -3.587  -1.314  0.00  0.00    +0.069 C 
ATOM      7  N   UNL     1       0.219  -3.659  -0.094  0.00  0.00    -0.181 NA
ENDROOT
BRANCH   6   8
ATOM      8  C   UNL     1       0.186  -4.470  -2.410  0.00  0.00    -0.002 A 
ATOM      9  C   UNL     1       0.694  -4.293  -3.700  0.00  0.00    +0.011 A 
ATOM     10  C   UNL     1       0.283  -5.125  -4.720  0.00  0.00    +0.020 A 
ATOM     11  C   UNL     1      -0.640  -6.127  -4.470  0.00  0.00    +0.041 A 
ATOM     12  C   UNL     1      -1.152  -6.304  -3.196  0.00  0.00    +0.020 A 
ATOM     13  C   UNL     1      -0.745  -5.482  -2.166  0.00  0.00    +0.011 A 
ATOM     14 CL   UNL     1      -1.157  -7.167  -5.761  0.00  0.00    -0.084 Cl
ENDBRANCH   6   8
BRANCH   4  15
ATOM     15  C   UNL     1       1.274  -0.435  -0.012  0.00  0.00    +0.128 A 
ATOM     16  C   UNL     1       2.086   0.638  -0.014  0.00  0.00    +0.046 A 
ATOM     17  C   UNL     1       1.254   1.781  -0.000  0.00  0.00    +0.041 A 
ATOM     18  C   UNL     1      -0.016   1.339   0.009  0.00  0.00    +0.195 A 
ATOM     19  O   UNL     1       0.002  -0.004   0.002  0.00  0.00    -0.466 OA
ENDBRANCH   4  15
BRANCH   1  20
ATOM     20  C   UNL     1      -0.452  -3.504   2.741  0.00  0.00    +0.215 C 
BRANCH  20  24
ATOM     21  C   UNL     1      -0.247  -3.038   6.420  0.00  0.00    +0.138 C 
ATOM     22  C   UNL     1       0.213  -3.686   5.129  0.00  0.00    +0.251 C 
ATOM     23  O   UNL     1       1.093  -4.510   4.997  0.00  0.00    -0.272 OA
ATOM     24  N   UNL     1      -0.558  -3.156   4.160  0.00  0.00    -0.215 N 
ATOM     25  C   UNL     1      -1.438  -2.277   4.654  0.00  0.00    +0.310 C 
ATOM     26  O   UNL     1      -2.243  -1.672   3.975  0.00  0.00    -0.252 OA
ATOM     27  N   UNL     1      -1.330  -2.138   5.988  0.00  0.00    -0.281 N 
ATOM     28  H   UNL     1      -1.863  -1.559   6.555  0.00  0.00    +0.152 HD
BRANCH  21  29
ATOM     29  C   UNL     1       0.874  -2.252   7.052  0.00  0.00    -0.015 A 
ATOM     30  C   UNL     1       1.657  -2.833   8.032  0.00  0.00    +0.006 A 
ATOM     31  C   UNL     1       2.688  -2.114   8.608  0.00  0.00    +0.000 A 
ATOM     32  C   UNL     1       2.929  -0.812   8.212  0.00  0.00    +0.000 A 
ATOM     33  C   UNL     1       2.142  -0.230   7.236  0.00  0.00    +0.000 A 
ATOM     34  C   UNL     1       1.115  -0.950   6.656  0.00  0.00    +0.006 A 
ENDBRANCH  21  29
BRANCH  21  36
ATOM     35  C   UNL     1      -1.876  -4.909   6.708  0.00  0.00    +0.007 C 
ATOM     36  C   UNL     1      -0.778  -4.093   7.392  0.00  0.00    +0.037 C 
ENDBRANCH  21  36
ENDBRANCH  20  24
ENDBRANCH   1  20
TORSDOF 6
