REMARK  Name = ZINC52002421
REMARK  3 active torsions:
REMARK  status: ('A' for Active; 'I' for Inactive)
REMARK    1  A    between atoms: C_12  and  N_14
REMARK    2  A    between atoms: N_14  and  C_15
REMARK    3  A    between atoms: C_21  and  O_23
REMARK                            x       y       z     vdW  Elec       q    Type
REMARK                         _______ _______ _______ _____ _____    ______ ____
ROOT
ATOM      1  C   UNL     1      -0.017   1.380   0.010  0.00  0.00    +0.022 A 
ATOM      2  C   UNL     1       1.167   2.083   0.002  0.00  0.00    -0.030 A 
ATOM      3  C   UNL     1       2.389   1.422  -0.013  0.00  0.00    +0.038 A 
ATOM      4  C   UNL     1       2.402   0.029  -0.020  0.00  0.00    +0.063 A 
ATOM      5  C   UNL     1       1.214  -0.676  -0.012  0.00  0.00    +0.139 A 
ATOM      6  C   UNL     1       0.002  -0.004   0.002  0.00  0.00    +0.053 A 
ATOM      7 BR   UNL     1      -1.621  -0.975   0.012  0.00  0.00    -0.047 Br
ATOM      8  F   UNL     1       1.234  -2.027  -0.019  0.00  0.00    -0.204 F 
ATOM      9  N   UNL     1       3.436   2.344  -0.019  0.00  0.00    -0.286 N 
ATOM     10  C   UNL     1       2.997   3.614  -0.008  0.00  0.00    +0.208 C 
ATOM     11  O   UNL     1       3.683   4.614  -0.011  0.00  0.00    -0.277 OA
ATOM     12  C   UNL     1       1.484   3.561   0.006  0.00  0.00    +0.049 C 
ATOM     13  H   UNL     1       4.374   2.097  -0.029  0.00  0.00    +0.155 HD
ENDROOT
BRANCH  12  14
ATOM     14  N   UNL     1       0.935   4.209  -1.193  0.00  0.00    +0.393 N 
ATOM     15  H   UNL     1       1.399   3.847  -2.013  0.00  0.00    -0.084 HD
ATOM     16  H   UNL     1      -0.054   4.019  -1.255  0.00  0.00    -0.084 HD
BRANCH  14  17
ATOM     17  C   UNL     1       1.150   5.659  -1.108  0.00  0.00    -0.041 C 
ATOM     18  C   UNL     1       0.345   6.227   0.063  0.00  0.00    -0.013 C 
ATOM     19  C   UNL     1       0.570   7.738   0.151  0.00  0.00    -0.001 C 
ATOM     20  C   UNL     1       0.111   8.398  -1.151  0.00  0.00    +0.002 C 
ATOM     21  C   UNL     1       0.916   7.831  -2.322  0.00  0.00    +0.030 C 
ATOM     22  C   UNL     1       0.692   6.320  -2.410  0.00  0.00    +0.101 C 
BRANCH  22  23
ATOM     23  O   UNL     1      -0.698   6.056  -2.614  0.00  0.00    -0.393 OA
ATOM     24  H   UNL     1      -1.057   6.445  -3.423  0.00  0.00    +0.210 HD
ENDBRANCH  22  23
ENDBRANCH  14  17
ENDBRANCH  12  14
TORSDOF 3
