REMARK  Name = ZINC04849451
REMARK  9 active torsions:
REMARK  status: ('A' for Active; 'I' for Inactive)
REMARK    1  A    between atoms: C_1  and  C_2
REMARK    2  A    between atoms: C_2  and  C_3
REMARK    3  A    between atoms: C_7  and  C_30
REMARK    4  A    between atoms: C_8  and  C_29
REMARK    5  A    between atoms: C_12  and  S_13
REMARK    6  A    between atoms: S_13  and  C_14
REMARK    7  A    between atoms: C_14  and  C_15
REMARK    8  A    between atoms: N_17  and  C_18
REMARK    9  A    between atoms: C_19  and  C_28
REMARK                            x       y       z     vdW  Elec       q    Type
REMARK                         _______ _______ _______ _____ _____    ______ ____
ROOT
ATOM      1  C   UNL     1      -3.097  -2.688   0.004  0.00  0.00    +0.171 C 
ENDROOT
BRANCH   1   2
ATOM      2  C   UNL     1      -4.214  -3.700   0.017  0.00  0.00    +0.228 C 
ATOM      3  O   UNL     1      -5.369  -3.329   0.028  0.00  0.00    -0.275 OA
ATOM      4  N   UNL     1      -3.929  -5.017   0.018  0.00  0.00    -0.279 N 
ATOM      5  H   UNL     1      -3.009  -5.315  -0.060  0.00  0.00    +0.155 HD
BRANCH   4   6
ATOM      6  C   UNL     1      -4.965  -5.961   0.130  0.00  0.00    +0.118 A 
ATOM      7  C   UNL     1      -4.985  -6.841   1.158  0.00  0.00    +0.044 A 
ATOM      8  N   UNL     1      -6.007  -7.751   1.252  0.00  0.00    -0.310 N 
ATOM      9  H   UNL     1      -6.027  -8.397   2.015  0.00  0.00    +0.170 HD
ATOM     10  C   UNL     1      -6.984  -7.783   0.327  0.00  0.00    +0.327 A 
ATOM     11  O   UNL     1      -7.877  -8.601   0.428  0.00  0.00    -0.247 OA
ATOM     12  N   UNL     1      -6.987  -6.923  -0.708  0.00  0.00    -0.274 N 
ATOM     13  H   UNL     1      -7.722  -6.962  -1.385  0.00  0.00    +0.173 HD
ATOM     14  C   UNL     1      -6.005  -6.009  -0.838  0.00  0.00    +0.276 A 
ATOM     15  O   UNL     1      -6.009  -5.231  -1.775  0.00  0.00    -0.266 OA
ATOM     16  C   UNL     1      -3.893  -6.819   2.196  0.00  0.00    +0.065 C 
ENDBRANCH   4   6
ENDBRANCH   1   2
BRANCH   1  17
ATOM     17  S   UNL     1      -3.797  -1.018   0.007  0.00  0.00    -0.096 S 
BRANCH  17  27
ATOM     18  C   UNL     1      -2.400   1.334  -0.013  0.00  0.00    -0.015 A 
ATOM     19  C   UNL     1      -1.263   2.084  -0.021  0.00  0.00    +0.016 A 
ATOM     20  C   UNL     1      -0.022   1.415  -0.036  0.00  0.00    +0.001 A 
ATOM     21  C   UNL     1       1.188   2.125  -0.049  0.00  0.00    +0.013 A 
ATOM     22  C   UNL     1       2.369   1.446  -0.058  0.00  0.00    -0.047 A 
ATOM     23  C   UNL     1       2.391   0.053  -0.055  0.00  0.00    -0.045 A 
ATOM     24  C   UNL     1       1.236  -0.667  -0.043  0.00  0.00    +0.032 A 
ATOM     25  C   UNL     1      -0.002  -0.002  -0.033  0.00  0.00    +0.073 A 
ATOM     26  N   UNL     1      -1.151  -0.685  -0.020  0.00  0.00    -0.240 NA
ATOM     27  C   UNL     1      -2.315  -0.066  -0.010  0.00  0.00    +0.101 A 
ATOM     28  C   UNL     1       3.715  -0.667  -0.065  0.00  0.00    +0.044 C 
ATOM     29  C   UNL     1       3.667   2.211  -0.072  0.00  0.00    +0.044 C 
BRANCH  18  31
ATOM     30  C   UNL     1      -4.246   2.128   1.441  0.00  0.00    +0.009 C 
ATOM     31  C   UNL     1      -3.748   2.008  -0.001  0.00  0.00    +0.034 C 
ENDBRANCH  18  31
ENDBRANCH  17  27
ENDBRANCH   1  17
TORSDOF 5
