REMARK  Name = ZINC32442700
REMARK  10 active torsions:
REMARK  status: ('A' for Active; 'I' for Inactive)
REMARK    1  A    between atoms: C_1  and  C_2
REMARK    2  A    between atoms: C_2  and  C_3
REMARK    3  A    between atoms: C_2  and  N_4
REMARK    4  A    between atoms: N_7  and  C_8
REMARK    5  A    between atoms: C_11  and  C_14
REMARK    6  A    between atoms: C_14  and  N_15
REMARK    7  A    between atoms: N_15  and  S_16
REMARK    8  A    between atoms: S_16  and  C_19
REMARK    9  A    between atoms: C_22  and  O_26
REMARK   10  A    between atoms: O_26  and  C_27
REMARK                            x       y       z     vdW  Elec       q    Type
REMARK                         _______ _______ _______ _____ _____    ______ ____
ROOT
ATOM      1  C   UNL     1      -5.947  -1.200  -0.353  0.00  0.00    +0.141 C 
ENDROOT
BRANCH   1   5
ATOM      2  C   UNL     1      -2.364   1.112  -0.073  0.00  0.00    +0.035 A 
ATOM      3  C   UNL     1      -2.298  -0.275  -0.079  0.00  0.00    +0.023 A 
ATOM      4  C   UNL     1      -3.458  -1.019  -0.164  0.00  0.00    +0.007 A 
ATOM      5  C   UNL     1      -4.684  -0.385  -0.254  0.00  0.00    -0.032 A 
ATOM      6  C   UNL     1      -4.752   0.996  -0.254  0.00  0.00    +0.007 A 
ATOM      7  C   UNL     1      -3.596   1.746  -0.164  0.00  0.00    +0.023 A 
BRANCH   2  11
ATOM      8  N   UNL     1       1.022   2.083   0.732  0.00  0.00    -0.297 N 
ATOM      9  C   UNL     1      -0.146   1.410   0.735  0.00  0.00    +0.304 C 
ATOM     10  O   UNL     1      -0.256   0.386   1.381  0.00  0.00    -0.253 OA
ATOM     11  N   UNL     1      -1.191   1.870   0.018  0.00  0.00    -0.269 N 
ATOM     12  H   UNL     1       1.121   3.010   0.147  0.00  0.00    +0.151 HD
ATOM     13  H   UNL     1      -1.121   2.840  -0.496  0.00  0.00    +0.156 HD
BRANCH   8  15
ATOM     14  C   UNL     1       2.922   0.544   0.678  0.00  0.00    +0.027 C 
ATOM     15  C   UNL     1       2.159   1.580   1.506  0.00  0.00    +0.068 C 
ATOM     16  C   UNL     1       3.092   2.742   1.855  0.00  0.00    +0.027 C 
ENDBRANCH   8  15
ENDBRANCH   2  11
ENDBRANCH   1   5
BRANCH   1  17
ATOM     17  N   UNL     1      -6.253  -1.459  -1.762  0.00  0.00    -0.186 NA
ATOM     18  H   UNL     1      -5.880  -0.776  -2.540  0.00  0.00    +0.148 HD
BRANCH  17  19
ATOM     19  S   UNL     1      -7.355  -2.626  -2.170  0.00  0.00    +0.059 S 
ATOM     20  O   UNL     1      -7.449  -2.617  -3.587  0.00  0.00    -0.153 OA
ATOM     21  O   UNL     1      -7.002  -3.791  -1.437  0.00  0.00    -0.153 OA
BRANCH  19  22
ATOM     22  C   UNL     1      -8.921  -2.100  -1.557  0.00  0.00    +0.107 A 
ATOM     23  C   UNL     1      -9.322  -2.463  -0.284  0.00  0.00    +0.032 A 
ATOM     24  C   UNL     1     -10.547  -2.049   0.201  0.00  0.00    +0.049 A 
ATOM     25  C   UNL     1     -11.381  -1.276  -0.594  0.00  0.00    +0.145 A 
ATOM     26  C   UNL     1     -10.979  -0.916  -1.873  0.00  0.00    +0.085 A 
ATOM     27  C   UNL     1      -9.749  -1.330  -2.352  0.00  0.00    +0.052 A 
ATOM     28 CL   UNL     1     -12.019   0.052  -2.871  0.00  0.00    -0.080 Cl
BRANCH  25  29
ATOM     29  O   UNL     1     -12.589  -0.871  -0.121  0.00  0.00    -0.433 OA
BRANCH  29  30
ATOM     30  C   UNL     1     -12.937  -1.278   1.204  0.00  0.00    +0.541 C 
ATOM     31  F   UNL     1     -12.954  -2.676   1.273  0.00  0.00    -0.166 F 
ATOM     32  F   UNL     1     -11.993  -0.779   2.108  0.00  0.00    -0.166 F 
ENDBRANCH  29  30
ENDBRANCH  25  29
ENDBRANCH  19  22
ENDBRANCH  17  19
ENDBRANCH   1  17
TORSDOF 8
