REMARK  Name = ZINC66361630
REMARK  6 active torsions:
REMARK  status: ('A' for Active; 'I' for Inactive)
REMARK    1  A    between atoms: C_1  and  C_2
REMARK    2  A    between atoms: C_5  and  C_8
REMARK    3  A    between atoms: C_8  and  C_10
REMARK    4  A    between atoms: C_8  and  N_18
REMARK    5  A    between atoms: C_13  and  O_16
REMARK    6  A    between atoms: O_16  and  C_17
REMARK                            x       y       z     vdW  Elec       q    Type
REMARK                         _______ _______ _______ _____ _____    ______ ____
ROOT
ATOM      1  C   UNL     1       0.060  -4.279  -0.024  0.00  0.00    +0.135 C 
ENDROOT
BRANCH   1   2
ATOM      2  N   UNL     1      -0.815  -4.785   1.037  0.00  0.00    -0.288 N 
ATOM      3  C   UNL     1      -2.136  -4.925   0.810  0.00  0.00    +0.303 C 
ATOM      4  O   UNL     1      -2.617  -4.548  -0.241  0.00  0.00    -0.253 OA
ATOM      5  N   UNL     1      -2.925  -5.484   1.750  0.00  0.00    -0.285 N 
ATOM      6  C   UNL     1      -4.343  -5.754   1.473  0.00  0.00    +0.114 C 
ATOM      7  C   UNL     1      -5.192  -5.098   2.566  0.00  0.00    +0.084 C 
ATOM      8  C   UNL     1      -4.713  -5.580   3.937  0.00  0.00    +0.173 C 
ATOM      9  C   UNL     1      -3.252  -5.179   4.149  0.00  0.00    +0.084 C 
ATOM     10  C   UNL     1      -2.383  -5.840   3.068  0.00  0.00    +0.114 C 
ATOM     11  O   UNL     1      -5.526  -4.995   4.962  0.00  0.00    -0.346 OA
ATOM     12  C   UNL     1      -6.144  -6.078   5.688  0.00  0.00    +0.191 C 
ATOM     13  C   UNL     1      -5.218  -7.281   5.378  0.00  0.00    +0.191 C 
ATOM     14  O   UNL     1      -4.832  -7.010   4.009  0.00  0.00    -0.346 OA
ATOM     15  H   UNL     1      -0.444  -5.019   1.902  0.00  0.00    +0.151 HD
ENDBRANCH   1   2
BRANCH   1  20
ATOM     16  C   UNL     1      -0.002   1.499   0.024  0.00  0.00    +0.044 C 
ATOM     17  C   UNL     1       0.014  -0.008   0.011  0.00  0.00    -0.050 A 
ATOM     18  C   UNL     1       0.014  -0.689  -1.191  0.00  0.00    +0.004 A 
ATOM     19  C   UNL     1       0.029  -2.071  -1.203  0.00  0.00    +0.006 A 
ATOM     20  C   UNL     1       0.044  -2.772  -0.011  0.00  0.00    -0.023 A 
ATOM     21  C   UNL     1       0.046  -2.091   1.192  0.00  0.00    +0.006 A 
ATOM     22  C   UNL     1       0.035  -0.709   1.203  0.00  0.00    +0.004 A 
ENDBRANCH   1  20
BRANCH   1  23
ATOM     23  C   UNL     1       1.466  -4.769   0.209  0.00  0.00    -0.023 A 
ATOM     24  C   UNL     1       1.978  -4.814   1.493  0.00  0.00    +0.009 A 
ATOM     25  C   UNL     1       3.266  -5.262   1.709  0.00  0.00    +0.046 A 
ATOM     26  C   UNL     1       4.047  -5.668   0.636  0.00  0.00    +0.120 A 
ATOM     27  C   UNL     1       3.531  -5.623  -0.651  0.00  0.00    +0.046 A 
ATOM     28  C   UNL     1       2.240  -5.179  -0.861  0.00  0.00    +0.009 A 
BRANCH  26  29
ATOM     29  O   UNL     1       5.315  -6.109   0.846  0.00  0.00    -0.495 OA
ATOM     30  C   UNL     1       6.061  -6.511  -0.305  0.00  0.00    +0.277 C 
ENDBRANCH  26  29
ENDBRANCH   1  23
TORSDOF 4
