REMARK  Name = ZINC67513210
REMARK  4 active torsions:
REMARK  status: ('A' for Active; 'I' for Inactive)
REMARK    1  A    between atoms: C_1  and  C_2
REMARK    2  A    between atoms: C_4  and  C_14
REMARK    3  A    between atoms: N_16  and  C_17
REMARK    4  A    between atoms: C_20  and  C_22
REMARK                            x       y       z     vdW  Elec       q    Type
REMARK                         _______ _______ _______ _____ _____    ______ ____
ROOT
ATOM      1  C   UNL     1       2.028   0.017  -1.441  0.00  0.00    +0.258 C 
ATOM      2  O   UNL     1       2.957  -0.758  -1.527  0.00  0.00    -0.272 OA
ATOM      3  N   UNL     1       2.253   1.345  -1.466  0.00  0.00    -0.309 N 
ATOM      4  H   UNL     1       1.520   1.965  -1.327  0.00  0.00    +0.149 HD
ENDROOT
BRANCH   1   7
ATOM      5  C   UNL     1       0.146   1.206   0.461  0.00  0.00    +0.056 C 
ATOM      6  C   UNL     1       0.122  -0.287   0.128  0.00  0.00    +0.220 C 
ATOM      7  C   UNL     1       0.621  -0.506  -1.307  0.00  0.00    +0.299 C 
ATOM      8  O   UNL     1       0.599  -1.911  -1.579  0.00  0.00    -0.472 OA
ATOM      9  C   UNL     1       1.122  -2.728  -0.624  0.00  0.00    +0.163 A 
ATOM     10  C   UNL     1       1.465  -4.030  -0.956  0.00  0.00    +0.049 A 
ATOM     11  C   UNL     1       1.994  -4.872   0.004  0.00  0.00    +0.004 A 
ATOM     12  C   UNL     1       2.182  -4.419   1.297  0.00  0.00    +0.004 A 
ATOM     13  C   UNL     1       1.843  -3.122   1.633  0.00  0.00    +0.049 A 
ATOM     14  C   UNL     1       1.314  -2.271   0.674  0.00  0.00    +0.163 A 
ATOM     15  O   UNL     1       0.993  -0.994   1.019  0.00  0.00    -0.481 OA
ENDBRANCH   1   7
BRANCH   3  16
ATOM     16  C   UNL     1       3.606   1.854  -1.704  0.00  0.00    +0.081 C 
ATOM     17  C   UNL     1       4.092   3.008  -0.824  0.00  0.00    +0.033 C 
ATOM     18  C   UNL     1       3.739   3.260  -2.292  0.00  0.00    +0.041 C 
BRANCH  18  19
ATOM     19  C   UNL     1       2.468   4.016  -2.583  0.00  0.00    -0.042 A 
ATOM     20  C   UNL     1       1.584   4.302  -1.560  0.00  0.00    +0.004 A 
ATOM     21  C   UNL     1       0.418   4.995  -1.826  0.00  0.00    +0.000 A 
ATOM     22  C   UNL     1       0.136   5.402  -3.117  0.00  0.00    +0.000 A 
ATOM     23  C   UNL     1       1.021   5.117  -4.141  0.00  0.00    +0.000 A 
ATOM     24  C   UNL     1       2.189   4.428  -3.873  0.00  0.00    +0.004 A 
ENDBRANCH  18  19
ENDBRANCH   3  16
TORSDOF 3
