REMARK  Name = ZINC61863882
REMARK  9 active torsions:
REMARK  status: ('A' for Active; 'I' for Inactive)
REMARK    1  A    between atoms: C_1  and  C_2
REMARK    2  A    between atoms: C_2  and  C_3
REMARK    3  A    between atoms: C_2  and  N_10
REMARK    4  A    between atoms: C_3  and  N_4
REMARK    5  A    between atoms: C_17  and  C_18
REMARK    6  A    between atoms: C_18  and  C_19
REMARK    7  A    between atoms: C_19  and  C_20
REMARK    8  A    between atoms: C_19  and  C_21
REMARK    9  A    between atoms: C_19  and  C_22
REMARK                            x       y       z     vdW  Elec       q    Type
REMARK                         _______ _______ _______ _____ _____    ______ ____
ROOT
ATOM      1  N   UNL     1      -1.601   0.987  -0.104  0.00  0.00    -0.295 N 
ATOM      2  C   UNL     1      -2.263   0.493  -1.169  0.00  0.00    +0.303 C 
ATOM      3  O   UNL     1      -1.675   0.305  -2.217  0.00  0.00    -0.253 OA
ATOM      4  N   UNL     1      -3.577   0.207  -1.073  0.00  0.00    -0.283 N 
ATOM      5  C   UNL     1      -4.386   0.288   0.157  0.00  0.00    +0.109 C 
ATOM      6  C   UNL     1      -5.569  -0.682  -0.083  0.00  0.00    +0.021 C 
ATOM      7  C   UNL     1      -5.850  -0.464  -1.593  0.00  0.00    +0.024 C 
ATOM      8  C   UNL     1      -4.442  -0.230  -2.179  0.00  0.00    +0.078 C 
ATOM      9  H   UNL     1      -2.070   1.137   0.731  0.00  0.00    +0.151 HD
ENDROOT
BRANCH   1  11
ATOM     10  C   UNL     1       0.002   2.727  -0.725  0.00  0.00    +0.029 C 
ATOM     11  C   UNL     1      -0.173   1.297  -0.209  0.00  0.00    +0.085 C 
BRANCH  11  12
ATOM     12  C   UNL     1       0.479   1.169   1.169  0.00  0.00    +0.106 C 
BRANCH  12  13
ATOM     13  N   UNL     1       0.201  -0.165   1.720  0.00  0.00    -0.296 NA
ATOM     14  C   UNL     1       0.402  -0.185   3.176  0.00  0.00    +0.112 C 
ATOM     15  C   UNL     1       0.045  -1.573   3.715  0.00  0.00    +0.175 C 
ATOM     16  O   UNL     1       0.838  -2.557   3.046  0.00  0.00    -0.377 OA
ATOM     17  C   UNL     1       0.667  -2.565   1.626  0.00  0.00    +0.175 C 
ATOM     18  C   UNL     1       1.030  -1.188   1.066  0.00  0.00    +0.112 C 
ENDBRANCH  12  13
ENDBRANCH  11  12
ENDBRANCH   1  11
BRANCH   8  19
ATOM     19  C   UNL     1      -4.497   0.855  -3.256  0.00  0.00    +0.028 C 
BRANCH  19  20
ATOM     20  C   UNL     1      -5.244   0.320  -4.480  0.00  0.00    -0.036 C 
ATOM     21  C   UNL     1      -6.703   0.050  -4.110  0.00  0.00    +0.010 C 
ATOM     22  C   UNL     1      -5.186   1.355  -5.606  0.00  0.00    +0.010 C 
ATOM     23  C   UNL     1      -4.588  -0.981  -4.949  0.00  0.00    +0.010 C 
ENDBRANCH  19  20
ENDBRANCH   8  19
TORSDOF 5
