REMARK  Name = ZINC62526074
REMARK  8 active torsions:
REMARK  status: ('A' for Active; 'I' for Inactive)
REMARK    1  A    between atoms: C_1  and  C_2
REMARK    2  A    between atoms: C_2  and  C_3
REMARK    3  A    between atoms: C_3  and  C_4
REMARK    4  A    between atoms: C_3  and  N_5
REMARK    5  A    between atoms: C_6  and  C_8
REMARK    6  A    between atoms: C_8  and  C_9
REMARK    7  A    between atoms: C_8  and  N_10
REMARK    8  A    between atoms: C_17  and  C_18
REMARK                            x       y       z     vdW  Elec       q    Type
REMARK                         _______ _______ _______ _____ _____    ______ ____
ROOT
ATOM      1  N   UNL     1      -5.587   0.404  -2.322  0.00  0.00    -0.288 N 
ATOM      2  C   UNL     1      -6.363   1.184  -3.101  0.00  0.00    +0.303 C 
ATOM      3  O   UNL     1      -5.862   1.848  -3.987  0.00  0.00    -0.253 OA
ATOM      4  N   UNL     1      -7.694   1.228  -2.897  0.00  0.00    -0.279 N 
ATOM      5  C   UNL     1      -8.430   0.483  -1.859  0.00  0.00    +0.110 C 
ATOM      6  C   UNL     1      -9.875   0.366  -2.403  0.00  0.00    +0.021 C 
ATOM      7  C   UNL     1     -10.058   1.740  -3.099  0.00  0.00    +0.029 C 
ATOM      8  C   UNL     1      -8.653   2.031  -3.669  0.00  0.00    +0.108 C 
ATOM      9  H   UNL     1      -5.987  -0.126  -1.615  0.00  0.00    +0.151 HD
ENDROOT
BRANCH   8  10
ATOM     10  C   UNL     1      -8.331   3.496  -3.521  0.00  0.00    -0.027 A 
ATOM     11  C   UNL     1      -7.903   3.990  -2.303  0.00  0.00    +0.008 A 
ATOM     12  C   UNL     1      -7.606   5.332  -2.166  0.00  0.00    +0.038 A 
ATOM     13  C   UNL     1      -7.738   6.184  -3.250  0.00  0.00    +0.123 A 
ATOM     14  C   UNL     1      -8.167   5.688  -4.470  0.00  0.00    +0.038 A 
ATOM     15  C   UNL     1      -8.458   4.344  -4.605  0.00  0.00    +0.008 A 
ATOM     16  F   UNL     1      -7.449   7.497  -3.118  0.00  0.00    -0.205 F 
ENDBRANCH   8  10
BRANCH   1  17
ATOM     17  C   UNL     1      -4.140   0.357  -2.544  0.00  0.00    +0.157 C 
ATOM     18  C   UNL     1      -3.824  -0.670  -3.634  0.00  0.00    +0.038 C 
BRANCH  17  20
ATOM     19  N   UNL     1      -2.105  -0.148  -1.230  0.00  0.00    -0.311 N 
ATOM     20  C   UNL     1      -3.448  -0.040  -1.265  0.00  0.00    +0.233 C 
ATOM     21  O   UNL     1      -4.100  -0.261  -0.267  0.00  0.00    -0.274 OA
ATOM     22  H   UNL     1      -1.584   0.029  -2.029  0.00  0.00    +0.149 HD
BRANCH  19  23
ATOM     23  C   UNL     1      -1.433  -0.534   0.013  0.00  0.00    +0.070 C 
ATOM     24  C   UNL     1      -1.413  -2.059   0.130  0.00  0.00    +0.028 C 
BRANCH  23  26
ATOM     25  C   UNL     1      -0.019   1.526   0.010  0.00  0.00    +0.005 C 
ATOM     26  C   UNL     1       0.002  -0.004   0.002  0.00  0.00    +0.018 C 
ENDBRANCH  23  26
ENDBRANCH  19  23
ENDBRANCH  17  20
ENDBRANCH   1  17
TORSDOF 5
