REMARK  Name = ZINC55647478
REMARK  8 active torsions:
REMARK  status: ('A' for Active; 'I' for Inactive)
REMARK    1  A    between atoms: C_1  and  C_2
REMARK    2  A    between atoms: C_5  and  C_8
REMARK    3  A    between atoms: C_9  and  S_10
REMARK    4  A    between atoms: S_10  and  N_13
REMARK    5  A    between atoms: N_13  and  N_14
REMARK    6  A    between atoms: C_15  and  C_17
REMARK    7  A    between atoms: C_20  and  C_24
REMARK    8  A    between atoms: C_22  and  O_23
REMARK                            x       y       z     vdW  Elec       q    Type
REMARK                         _______ _______ _______ _____ _____    ______ ____
ROOT
ATOM      1  N   UNL     1      -1.113  -4.617   3.531  0.00  0.00    -0.108 NA
ATOM      2  H   UNL     1      -1.814  -4.008   3.812  0.00  0.00    +0.172 HD
ENDROOT
BRANCH   1   3
ATOM      3  N   UNL     1      -1.185  -5.974   3.871  0.00  0.00    -0.228 N 
ATOM      4  C   UNL     1      -1.323  -6.339   5.161  0.00  0.00    +0.262 C 
ATOM      5  O   UNL     1      -1.384  -5.491   6.030  0.00  0.00    -0.269 OA
ATOM      6  H   UNL     1      -1.137  -6.651   3.178  0.00  0.00    +0.171 HD
BRANCH   4   7
ATOM      7  C   UNL     1      -1.399  -7.768   5.519  0.00  0.00    +0.079 A 
ATOM      8  C   UNL     1      -1.324  -8.746   4.525  0.00  0.00    +0.017 A 
ATOM      9  C   UNL     1      -1.396 -10.080   4.865  0.00  0.00    +0.004 A 
ATOM     10  C   UNL     1      -1.543 -10.455   6.191  0.00  0.00    -0.047 A 
ATOM     11  C   UNL     1      -1.618  -9.499   7.184  0.00  0.00    +0.049 A 
ATOM     12  C   UNL     1      -1.542  -8.153   6.859  0.00  0.00    +0.129 A 
ATOM     13  C   UNL     1      -1.620 -11.917   6.551  0.00  0.00    +0.044 C 
BRANCH  12  14
ATOM     14  O   UNL     1      -1.611  -7.212   7.834  0.00  0.00    -0.506 OA
ATOM     15  H   UNL     1      -2.510  -6.914   8.030  0.00  0.00    +0.292 HD
ENDBRANCH  12  14
ENDBRANCH   4   7
ENDBRANCH   1   3
BRANCH   1  16
ATOM     16  S   UNL     1       0.171  -4.051   2.652  0.00  0.00    +0.067 S 
ATOM     17  O   UNL     1       1.346  -4.449   3.346  0.00  0.00    -0.152 OA
ATOM     18  O   UNL     1      -0.111  -2.692   2.349  0.00  0.00    -0.152 OA
BRANCH  16  20
ATOM     19  C   UNL     1       0.017  -4.255  -0.019  0.00  0.00    +0.028 C 
ATOM     20  C   UNL     1       0.174  -4.918   1.118  0.00  0.00    +0.155 C 
BRANCH  19  25
ATOM     21  C   UNL     1       0.794   1.444  -0.156  0.00  0.00    +0.044 C 
ATOM     22  C   UNL     1       0.590  -0.048  -0.120  0.00  0.00    -0.050 A 
ATOM     23  C   UNL     1      -0.490  -0.612  -0.775  0.00  0.00    +0.004 A 
ATOM     24  C   UNL     1      -0.682  -1.978  -0.746  0.00  0.00    +0.008 A 
ATOM     25  C   UNL     1       0.217  -2.791  -0.054  0.00  0.00    -0.024 A 
ATOM     26  C   UNL     1       1.304  -2.216   0.604  0.00  0.00    +0.008 A 
ATOM     27  C   UNL     1       1.488  -0.850   0.563  0.00  0.00    +0.004 A 
ENDBRANCH  19  25
ENDBRANCH  16  20
ENDBRANCH   1  16
TORSDOF 6
