REMARK  Name = ZINC06601787
REMARK  6 active torsions:
REMARK  status: ('A' for Active; 'I' for Inactive)
REMARK    1  A    between atoms: C_1  and  C_2
REMARK    2  A    between atoms: C_2  and  O_3
REMARK    3  A    between atoms: O_3  and  C_4
REMARK    4  A    between atoms: C_7  and  N_10
REMARK    5  A    between atoms: C_11  and  O_29
REMARK    6  A    between atoms: C_12  and  C_19
REMARK                            x       y       z     vdW  Elec       q    Type
REMARK                         _______ _______ _______ _____ _____    ______ ____
ROOT
ATOM      1  N   UNL     1      -2.460   1.223  -0.437  0.00  0.00    -0.232 N 
ATOM      2  C   UNL     1      -3.668   1.835  -0.272  0.00  0.00    +0.214 A 
ATOM      3  C   UNL     1      -4.786   1.053   0.065  0.00  0.00    +0.100 A 
ATOM      4  C   UNL     1      -4.589  -0.397   0.222  0.00  0.00    +0.265 A 
ATOM      5  O   UNL     1      -5.521  -1.123   0.513  0.00  0.00    -0.267 OA
ATOM      6  N   UNL     1      -3.352  -0.903   0.037  0.00  0.00    -0.274 N 
ATOM      7  H   UNL     1      -3.199  -1.885   0.143  0.00  0.00    +0.173 HD
ATOM      8  C   UNL     1      -2.323  -0.103  -0.289  0.00  0.00    +0.337 A 
ATOM      9  O   UNL     1      -1.226  -0.600  -0.452  0.00  0.00    -0.246 OA
ENDROOT
BRANCH   3  10
ATOM     10  C   UNL     1      -6.053   1.638   0.245  0.00  0.00    +0.028 C 
ATOM     11  C   UNL     1      -6.227   2.642   1.190  0.00  0.00    +0.003 C 
ATOM     12  C   UNL     1      -5.248   3.197   2.050  0.00  0.00    +0.120 C 
ATOM     13  N   UNL     1      -5.795   4.121   2.795  0.00  0.00    -0.254 NA
ATOM     14  C   UNL     1      -7.116   4.272   2.538  0.00  0.00    +0.072 A 
ATOM     15  C   UNL     1      -7.473   3.359   1.521  0.00  0.00    +0.009 A 
ATOM     16  C   UNL     1      -8.782   3.300   1.060  0.00  0.00    +0.010 A 
ATOM     17  C   UNL     1      -9.735   4.137   1.602  0.00  0.00    +0.001 A 
ATOM     18  C   UNL     1      -9.392   5.037   2.602  0.00  0.00    +0.002 A 
ATOM     19  C   UNL     1      -8.101   5.111   3.071  0.00  0.00    +0.028 A 
ENDBRANCH   3  10
BRANCH   1  23
ATOM     20  C   UNL     1       0.878   3.516  -1.436  0.00  0.00    +0.121 A 
ATOM     21  C   UNL     1       0.455   3.445  -0.116  0.00  0.00    +0.047 A 
ATOM     22  C   UNL     1      -0.652   2.689   0.214  0.00  0.00    +0.030 A 
ATOM     23  C   UNL     1      -1.339   1.996  -0.773  0.00  0.00    +0.054 A 
ATOM     24  C   UNL     1      -0.920   2.073  -2.094  0.00  0.00    +0.030 A 
ATOM     25  C   UNL     1       0.188   2.829  -2.424  0.00  0.00    +0.047 A 
BRANCH  20  26
ATOM     26  O   UNL     1       1.968   4.261  -1.761  0.00  0.00    -0.492 OA
BRANCH  26  28
ATOM     27  C   UNL     1       3.585   5.171  -3.309  0.00  0.00    +0.048 C 
ATOM     28  C   UNL     1       2.346   4.289  -3.139  0.00  0.00    +0.225 C 
ENDBRANCH  26  28
ENDBRANCH  20  26
ENDBRANCH   1  23
BRANCH   2  29
ATOM     29  O   UNL     1      -3.787   3.166  -0.428  0.00  0.00    -0.493 OA
ATOM     30  H   UNL     1      -4.666   3.546  -0.299  0.00  0.00    +0.294 HD
ENDBRANCH   2  29
TORSDOF 5
