REMARK  Name = ZINC01103814
REMARK  7 active torsions:
REMARK  status: ('A' for Active; 'I' for Inactive)
REMARK    1  A    between atoms: C_1  and  C_2
REMARK    2  A    between atoms: C_3  and  C_21
REMARK    3  A    between atoms: C_4  and  C_10
REMARK    4  A    between atoms: C_19  and  O_20
REMARK    5  A    between atoms: C_21  and  O_23
REMARK    6  A    between atoms: O_23  and  C_24
REMARK    7  A    between atoms: C_24  and  C_25
REMARK                            x       y       z     vdW  Elec       q    Type
REMARK                         _______ _______ _______ _____ _____    ______ ____
ROOT
ATOM      1  C   UNL     1      -2.243   8.165  -3.033  0.00  0.00    +0.061 C 
ATOM      2  C   UNL     1      -1.919   7.717  -1.630  0.00  0.00    +0.021 C 
ATOM      3  C   UNL     1      -1.748   6.402  -1.376  0.00  0.00    +0.078 C 
ATOM      4  C   UNL     1      -1.423   5.995   0.047  0.00  0.00    +0.148 C 
ATOM      5  N   UNL     1      -1.321   7.075   1.043  0.00  0.00    -0.288 N 
ATOM      6  C   UNL     1      -1.519   8.345   0.635  0.00  0.00    +0.304 C 
ATOM      7  O   UNL     1      -1.438   9.243   1.449  0.00  0.00    -0.252 OA
ATOM      8  N   UNL     1      -1.804   8.648  -0.638  0.00  0.00    -0.273 N 
ATOM      9  H   UNL     1      -1.116   6.878   1.970  0.00  0.00    +0.151 HD
ATOM     10  H   UNL     1      -1.936   9.581  -0.868  0.00  0.00    +0.156 HD
ENDROOT
BRANCH   4  11
ATOM     11  C   UNL     1      -0.112   5.253   0.031  0.00  0.00    +0.027 A 
ATOM     12  C   UNL     1      -0.095   3.849   0.024  0.00  0.00    -0.009 A 
ATOM     13  C   UNL     1      -1.288   3.105   0.031  0.00  0.00    +0.009 A 
ATOM     14  C   UNL     1      -1.235   1.746   0.018  0.00  0.00    +0.001 A 
ATOM     15  C   UNL     1      -0.013   1.076   0.008  0.00  0.00    +0.001 A 
ATOM     16  C   UNL     1       1.163   1.762   0.000  0.00  0.00    +0.008 A 
ATOM     17  C   UNL     1       1.148   3.167   0.008  0.00  0.00    -0.017 A 
ATOM     18  C   UNL     1       2.342   3.909   0.000  0.00  0.00    +0.012 A 
ATOM     19  C   UNL     1       2.292   5.268   0.007  0.00  0.00    +0.046 A 
ATOM     20  C   UNL     1       1.067   5.942   0.023  0.00  0.00    +0.123 A 
BRANCH  20  21
ATOM     21  O   UNL     1       1.050   7.301   0.030  0.00  0.00    -0.506 OA
ATOM     22  H   UNL     1       1.036   7.699  -0.851  0.00  0.00    +0.292 HD
ENDBRANCH  20  21
ENDBRANCH   4  11
BRANCH   3  23
ATOM     23  C   UNL     1      -1.867   5.436  -2.403  0.00  0.00    +0.339 C 
ATOM     24  O   UNL     1      -2.128   5.786  -3.539  0.00  0.00    -0.245 OA
BRANCH  23  25
ATOM     25  O   UNL     1      -1.690   4.128  -2.123  0.00  0.00    -0.457 OA
BRANCH  25  26
ATOM     26  C   UNL     1      -1.825   3.209  -3.209  0.00  0.00    +0.268 C 
BRANCH  26  27
ATOM     27  C   UNL     1      -1.595   1.805  -2.710  0.00  0.00    -0.010 A 
ATOM     28  C   UNL     1      -0.322   1.267  -2.723  0.00  0.00    +0.007 A 
ATOM     29  C   UNL     1      -0.111  -0.018  -2.260  0.00  0.00    +0.000 A 
ATOM     30  C   UNL     1      -1.174  -0.769  -1.795  0.00  0.00    +0.000 A 
ATOM     31  C   UNL     1      -2.448  -0.233  -1.788  0.00  0.00    +0.000 A 
ATOM     32  C   UNL     1      -2.659   1.054  -2.245  0.00  0.00    +0.007 A 
ENDBRANCH  26  27
ENDBRANCH  25  26
ENDBRANCH  23  25
ENDBRANCH   3  23
TORSDOF 6
