REMARK  Name = ZINC64683468
REMARK  7 active torsions:
REMARK  status: ('A' for Active; 'I' for Inactive)
REMARK    1  A    between atoms: C_1  and  C_2
REMARK    2  A    between atoms: C_12  and  C_14
REMARK    3  A    between atoms: C_14  and  N_15
REMARK    4  A    between atoms: N_18  and  CA_19
REMARK    5  A    between atoms: CA_19  and  CB_21
REMARK    6  A    between atoms: CA_19  and  C_31
REMARK    7  A    between atoms: CB_21  and  CG_22
REMARK                            x       y       z     vdW  Elec       q    Type
REMARK                         _______ _______ _______ _____ _____    ______ ____
ROOT
ATOM      1  N   UNK A   0       3.948  -0.428   2.911  0.00  0.00    -0.291 N 
ATOM      2  C   UNK A   0       4.677  -0.831   3.970  0.00  0.00    +0.301 C 
ATOM      3  O   UNK A   0       4.173  -1.536   4.823  0.00  0.00    -0.253 OA
ATOM      4  N   TRP A   1       5.965  -0.451   4.085  0.00  0.00    -0.286 N 
ATOM      5  H   UNK A   0       4.350   0.134   2.231  0.00  0.00    +0.151 HD
ATOM      6  H   TRP A   1       6.367   0.111   3.405  0.00  0.00    +0.151 HD
ENDROOT
BRANCH   1   7
ATOM      7  C   UNK A   0       2.547  -0.841   2.786  0.00  0.00    +0.202 C 
BRANCH   7  18
ATOM      8  C   UNK A   0      -0.019   1.526   0.010  0.00  0.00    +0.029 C 
ATOM      9  C   UNK A   0       0.002  -0.004   0.002  0.00  0.00    +0.083 C 
ATOM     10  C   UNK A   0      -1.430  -0.557   0.082  0.00  0.00    +0.059 C 
ATOM     11  C   UNK A   0      -1.457  -1.361   1.363  0.00  0.00    -0.024 A 
ATOM     12  C   UNK A   0      -2.472  -2.086   1.957  0.00  0.00    +0.005 A 
ATOM     13  C   UNK A   0      -2.247  -2.747   3.150  0.00  0.00    +0.000 A 
ATOM     14  C   UNK A   0      -1.003  -2.681   3.749  0.00  0.00    +0.002 A 
ATOM     15  C   UNK A   0       0.013  -1.959   3.160  0.00  0.00    +0.024 A 
ATOM     16  C   UNK A   0      -0.206  -1.288   1.955  0.00  0.00    +0.040 A 
ATOM     17  N   UNK A   0       0.679  -0.510   1.199  0.00  0.00    -0.267 N 
ATOM     18  C   UNK A   0       1.964  -0.262   1.523  0.00  0.00    +0.237 C 
ATOM     19  O   UNK A   0       2.650   0.428   0.799  0.00  0.00    -0.274 OA
ENDBRANCH   7  18
ENDBRANCH   1   7
BRANCH   4  20
ATOM     20  CA  TRP A   1       6.758  -0.889   5.237  0.00  0.00    +0.191 C 
BRANCH  20  21
ATOM     21  C   TRP A   1       7.335  -2.253   4.961  0.00  0.00    +0.376 C 
ATOM     22  O   TRP A   1       7.596  -2.584   3.817  0.00  0.00    -0.244 OA
ATOM     23  OXT TRP A   1       7.540  -3.026   5.881  0.00  0.00    -0.244 OA
ENDBRANCH  20  21
BRANCH  20  24
ATOM     24  CB  TRP A   1       7.894   0.106   5.481  0.00  0.00    +0.067 C 
BRANCH  24  25
ATOM     25  CG  TRP A   1       7.318   1.441   5.877  0.00  0.00    -0.039 C 
ATOM     26  CD2 TRP A   1       7.133   1.906   7.134  0.00  0.00    -0.001 A 
ATOM     27  CE3 TRP A   1       7.401   1.329   8.457  0.00  0.00    +0.010 A 
ATOM     28  CZ3 TRP A   1       7.101   2.052   9.560  0.00  0.00    +0.001 A 
ATOM     29  CH2 TRP A   1       6.541   3.333   9.472  0.00  0.00    +0.002 A 
ATOM     30  CZ2 TRP A   1       6.265   3.929   8.293  0.00  0.00    +0.026 A 
ATOM     31  CE2 TRP A   1       6.541   3.261   7.068  0.00  0.00    +0.043 A 
ATOM     32  NE1 TRP A   1       6.367   3.620   5.819  0.00  0.00    -0.380 N 
ATOM     33  CD1 TRP A   1       6.835   2.534   4.951  0.00  0.00    +0.144 C 
ATOM     34  HE1 TRP A   1       5.995   4.464   5.519  0.00  0.00    +0.160 HD
ENDBRANCH  24  25
ENDBRANCH  20  24
ENDBRANCH   4  20
TORSDOF 6
