REMARK  Name = ZINC12502899
REMARK  12 active torsions:
REMARK  status: ('A' for Active; 'I' for Inactive)
REMARK    1  A    between atoms: C_1  and  C_2
REMARK    2  A    between atoms: C_5  and  N_9
REMARK    3  A    between atoms: C_7  and  C_8
REMARK    4  A    between atoms: C_10  and  C_12
REMARK    5  A    between atoms: C_12  and  C_13
REMARK    6  A    between atoms: C_13  and  C_14
REMARK    7  A    between atoms: N_16  and  N_17
REMARK    8  A    between atoms: N_17  and  C_18
REMARK    9  A    between atoms: C_18  and  N_20
REMARK   10  A    between atoms: C_21  and  C_23
REMARK   11  A    between atoms: C_23  and  O_24
REMARK   12  A    between atoms: O_24  and  C_25
REMARK                            x       y       z     vdW  Elec       q    Type
REMARK                         _______ _______ _______ _____ _____    ______ ____
ROOT
ATOM      1  C   UNL     1       3.740   1.737   0.337  0.00  0.00    +0.230 C 
ATOM      2  O   UNL     1       3.742   2.941   0.190  0.00  0.00    -0.274 OA
ATOM      3  N   UNL     1       4.904   1.075   0.488  0.00  0.00    -0.235 N 
ATOM      4  H   UNL     1       4.903   0.112   0.606  0.00  0.00    +0.173 HD
ENDROOT
BRANCH   3   5
ATOM      5  N   UNL     1       6.117   1.777   0.476  0.00  0.00    -0.246 N 
ATOM      6  H   UNL     1       6.118   2.740   0.358  0.00  0.00    +0.172 HD
BRANCH   5   7
ATOM      7  C   UNL     1       7.281   1.115   0.627  0.00  0.00    +0.153 C 
ATOM      8  S   UNL     1       8.762   1.974   0.611  0.00  0.00    -0.017 S 
BRANCH   7   9
ATOM      9  N   UNL     1       7.279  -0.223   0.790  0.00  0.00    -0.264 N 
ATOM     10  C   UNL     1       8.443  -0.885   0.941  0.00  0.00    +0.256 C 
ATOM     11  O   UNL     1       9.492  -0.277   0.930  0.00  0.00    -0.272 OA
ATOM     12  H   UNL     1       6.440  -0.709   0.799  0.00  0.00    +0.157 HD
BRANCH  10  13
ATOM     13  C   UNL     1       8.441  -2.381   1.124  0.00  0.00    +0.324 C 
BRANCH  13  14
ATOM     14  O   UNL     1       9.786  -2.845   1.262  0.00  0.00    -0.483 OA
BRANCH  14  15
ATOM     15  C   UNL     1       9.961  -4.182   1.436  0.00  0.00    +0.121 A 
ATOM     16  C   UNL     1       8.862  -5.027   1.478  0.00  0.00    +0.047 A 
ATOM     17  C   UNL     1       9.044  -6.386   1.651  0.00  0.00    +0.023 A 
ATOM     18  C   UNL     1      10.320  -6.902   1.791  0.00  0.00    +0.041 A 
ATOM     19  C   UNL     1      11.417  -6.060   1.754  0.00  0.00    +0.023 A 
ATOM     20  C   UNL     1      11.240  -4.701   1.576  0.00  0.00    +0.047 A 
ATOM     21 CL   UNL     1      10.544  -8.609   2.013  0.00  0.00    -0.084 Cl
ENDBRANCH  14  15
ENDBRANCH  13  14
ENDBRANCH  10  13
ENDBRANCH   7   9
ENDBRANCH   5   7
ENDBRANCH   3   5
BRANCH   1  22
ATOM     22  C   UNL     1       2.437   0.981   0.351  0.00  0.00    +0.106 C 
BRANCH  22  23
ATOM     23  C   UNL     1       1.277   1.961   0.161  0.00  0.00    +0.105 C 
BRANCH  23  25
ATOM     24  N   UNL     1      -1.191   1.867   0.018  0.00  0.00    -0.285 N 
ATOM     25  C   UNL     1      -0.027   1.205   0.175  0.00  0.00    +0.218 C 
ATOM     26  O   UNL     1      -0.028   0.001   0.322  0.00  0.00    -0.275 OA
ATOM     27  H   UNL     1      -1.196   2.836  -0.023  0.00  0.00    +0.155 HD
BRANCH  24  32
ATOM     28  C   UNL     1      -6.058  -1.018  -0.403  0.00  0.00    +0.044 C 
ATOM     29  C   UNL     1      -4.765  -0.251  -0.292  0.00  0.00    -0.047 A 
ATOM     30  C   UNL     1      -3.597  -0.790  -0.800  0.00  0.00    +0.005 A 
ATOM     31  C   UNL     1      -2.412  -0.089  -0.704  0.00  0.00    +0.023 A 
ATOM     32  C   UNL     1      -2.391   1.155  -0.086  0.00  0.00    +0.034 A 
ATOM     33  C   UNL     1      -3.565   1.694   0.423  0.00  0.00    +0.027 A 
ATOM     34  C   UNL     1      -4.749   0.989   0.319  0.00  0.00    -0.046 A 
ATOM     35  C   UNL     1      -6.023   1.573   0.872  0.00  0.00    +0.044 C 
ENDBRANCH  24  32
ENDBRANCH  23  25
ENDBRANCH  22  23
ENDBRANCH   1  22
TORSDOF 10
