REMARK  Name = ZINC04676823
REMARK  6 active torsions:
REMARK  status: ('A' for Active; 'I' for Inactive)
REMARK    1  A    between atoms: C_1  and  C_2
REMARK    2  A    between atoms: C_5  and  N_8
REMARK    3  A    between atoms: C_10  and  C_19
REMARK    4  A    between atoms: N_21  and  C_22
REMARK    5  A    between atoms: C_27  and  O_28
REMARK    6  A    between atoms: O_28  and  C_29
REMARK                            x       y       z     vdW  Elec       q    Type
REMARK                         _______ _______ _______ _____ _____    ______ ____
ROOT
ATOM      1  N   UNL     1       0.043   0.022   0.000  0.00  0.00    -0.213 NA
ATOM      2  C   UNL     1       0.020   1.337   0.002  0.00  0.00    +0.233 A 
ATOM      3  C   UNL     1      -1.258   2.075   0.015  0.00  0.00    +0.099 A 
ATOM      4  C   UNL     1      -1.246   3.348   0.577  0.00  0.00    +0.030 A 
ATOM      5  C   UNL     1       0.032   3.844   1.093  0.00  0.00    +0.018 A 
ATOM      6  C   UNL     1       0.085   4.985   1.902  0.00  0.00    +0.011 A 
ATOM      7  C   UNL     1       1.288   5.424   2.377  0.00  0.00    +0.001 A 
ATOM      8  C   UNL     1       2.459   4.748   2.065  0.00  0.00    +0.004 A 
ATOM      9  C   UNL     1       2.429   3.622   1.267  0.00  0.00    +0.047 A 
ATOM     10  C   UNL     1       1.219   3.159   0.772  0.00  0.00    +0.138 A 
ATOM     11  O   UNL     1       1.171   2.057  -0.015  0.00  0.00    -0.437 OA
ENDROOT
BRANCH   1  16
ATOM     12  C   UNL     1       4.954  -2.715  -0.503  0.00  0.00    +0.044 C 
ATOM     13  C   UNL     1       3.643  -1.984  -0.369  0.00  0.00    -0.050 A 
ATOM     14  C   UNL     1       3.116  -1.740   0.887  0.00  0.00    +0.005 A 
ATOM     15  C   UNL     1       1.917  -1.072   1.018  0.00  0.00    +0.028 A 
ATOM     16  C   UNL     1       1.233  -0.641  -0.122  0.00  0.00    +0.068 A 
ATOM     17  C   UNL     1       1.768  -0.895  -1.387  0.00  0.00    +0.028 A 
ATOM     18  C   UNL     1       2.971  -1.560  -1.502  0.00  0.00    +0.005 A 
ENDBRANCH   1  16
BRANCH   3  19
ATOM     19  C   UNL     1      -2.491   1.488  -0.537  0.00  0.00    +0.254 C 
ATOM     20  O   UNL     1      -2.469   0.371  -1.018  0.00  0.00    -0.270 OA
ATOM     21  N   UNL     1      -3.642   2.188  -0.510  0.00  0.00    -0.278 N 
ATOM     22  H   UNL     1      -3.646   3.102  -0.186  0.00  0.00    +0.155 HD
BRANCH  21  23
ATOM     23  C   UNL     1      -4.832   1.595  -0.949  0.00  0.00    +0.076 A 
ATOM     24  C   UNL     1      -4.813   0.692  -2.002  0.00  0.00    +0.027 A 
ATOM     25  C   UNL     1      -5.988   0.105  -2.430  0.00  0.00    +0.002 A 
ATOM     26  C   UNL     1      -7.187   0.423  -1.819  0.00  0.00    +0.004 A 
ATOM     27  C   UNL     1      -7.215   1.326  -0.773  0.00  0.00    +0.047 A 
ATOM     28  C   UNL     1      -6.041   1.915  -0.334  0.00  0.00    +0.141 A 
BRANCH  28  29
ATOM     29  O   UNL     1      -6.067   2.804   0.695  0.00  0.00    -0.493 OA
ATOM     30  C   UNL     1      -7.341   3.084   1.278  0.00  0.00    +0.277 C 
ENDBRANCH  28  29
ENDBRANCH  21  23
ENDBRANCH   3  19
TORSDOF 4
