REMARK  Name = ZINC35775639
REMARK  3 active torsions:
REMARK  status: ('A' for Active; 'I' for Inactive)
REMARK    1  A    between atoms: C_1  and  C_2
REMARK    2  A    between atoms: N_8  and  C_9
REMARK    3  A    between atoms: C_16  and  N_18
REMARK                            x       y       z     vdW  Elec       q    Type
REMARK                         _______ _______ _______ _____ _____    ______ ____
ROOT
ATOM      1  C   UNL     1       2.300   0.176   1.204  0.00  0.00    +0.074 C 
ATOM      2  C   UNL     1       3.314  -0.388   0.189  0.00  0.00    +0.020 C 
ATOM      3  C   UNL     1       4.545   0.389   0.144  0.00  0.00    +0.002 C 
ATOM      4  C   UNL     1       5.291   0.385   1.494  0.00  0.00    +0.000 C 
ATOM      5  C   UNL     1       4.636   1.388   2.405  0.00  0.00    +0.002 C 
ATOM      6  C   UNL     1       3.573   0.748   3.317  0.00  0.00    +0.020 C 
ATOM      7  C   UNL     1       2.694  -0.279   2.583  0.00  0.00    +0.068 C 
ENDROOT
BRANCH   1  14
ATOM      8  C   UNL     1       0.484   1.756  -0.325  0.00  0.00    +0.026 C 
ATOM      9  C   UNL     1       0.479   0.227  -0.392  0.00  0.00    +0.080 C 
ATOM     10  C   UNL     1      -0.946  -0.268  -0.656  0.00  0.00    +0.178 C 
ATOM     11  O   UNL     1      -0.958  -1.698  -0.643  0.00  0.00    -0.377 OA
ATOM     12  C   UNL     1      -0.502  -2.266   0.588  0.00  0.00    +0.175 C 
ATOM     13  C   UNL     1       0.927  -1.791   0.865  0.00  0.00    +0.113 C 
ATOM     14  N   UNL     1       0.955  -0.321   0.886  0.00  0.00    -0.291 NA
ENDBRANCH   1  14
BRANCH   7  15
ATOM     15  N   UNL     1       3.438  -1.541   2.473  0.00  0.00    -0.326 NA
ATOM     16  H   UNL     1       3.796  -1.829   3.371  0.00  0.00    +0.119 HD
ATOM     17  H   UNL     1       2.865  -2.264   2.063  0.00  0.00    +0.119 HD
ENDBRANCH   7  15
TORSDOF 2
