REMARK  Name = ZINC64305278
REMARK  3 active torsions:
REMARK  status: ('A' for Active; 'I' for Inactive)
REMARK    1  A    between atoms: C_6  and  N_7
REMARK    2  A    between atoms: C_8  and  C_10
REMARK    3  A    between atoms: N_16  and  C_19
REMARK                            x       y       z     vdW  Elec       q    Type
REMARK                         _______ _______ _______ _____ _____    ______ ____
ROOT
ATOM      1  N   UNL     1      -1.195  -0.709   0.070  0.00  0.00    -0.278 N 
ATOM      2  C   UNL     1      -2.369  -0.062   0.207  0.00  0.00    +0.303 C 
ATOM      3  O   UNL     1      -2.389   1.148   0.300  0.00  0.00    -0.265 OA
ATOM      4  H   UNL     1      -1.184  -1.667  -0.082  0.00  0.00    +0.155 HD
ENDROOT
BRANCH   1  10
ATOM      5  C   UNL     1       0.071   1.181   0.878  0.00  0.00    +0.027 A 
ATOM      6  C   UNL     1       1.258   1.885   0.956  0.00  0.00    +0.051 A 
ATOM      7  C   UNL     1       2.386   1.415   0.307  0.00  0.00    +0.167 A 
ATOM      8  C   UNL     1       2.326   0.229  -0.426  0.00  0.00    +0.169 A 
ATOM      9  C   UNL     1       1.139  -0.474  -0.505  0.00  0.00    +0.073 A 
ATOM     10  C   UNL     1       0.007   0.001   0.148  0.00  0.00    +0.038 A 
ATOM     11  O   UNL     1       3.566  -0.011  -0.960  0.00  0.00    -0.447 OA
ATOM     12  C   UNL     1       4.197   1.278  -0.952  0.00  0.00    +0.254 C 
ATOM     13  O   UNL     1       3.663   1.908   0.221  0.00  0.00    -0.448 OA
ATOM     14  C   UNL     1       3.853   2.072  -2.216  0.00  0.00    +0.093 C 
ATOM     15  C   UNL     1       5.145   2.878  -2.514  0.00  0.00    +0.008 C 
ATOM     16  C   UNL     1       6.269   1.884  -2.126  0.00  0.00    +0.008 C 
ATOM     17  C   UNL     1       5.719   1.156  -0.879  0.00  0.00    +0.093 C 
ENDBRANCH   1  10
BRANCH   2  18
ATOM     18  C   UNL     1      -3.647  -0.835   0.246  0.00  0.00    +0.302 C 
ATOM     19  O   UNL     1      -3.622  -2.048   0.263  0.00  0.00    -0.265 OA
ATOM     20  N   UNL     1      -4.827  -0.184   0.260  0.00  0.00    -0.296 N 
ATOM     21  C   UNL     1      -6.075  -0.974   0.273  0.00  0.00    +0.106 C 
ATOM     22  C   UNL     1      -7.108  -0.362   1.237  0.00  0.00    +0.000 C 
ATOM     23  C   UNL     1      -6.405   0.121   2.487  0.00  0.00    -0.077 C 
ATOM     24  N   UNL     1      -6.067   1.535   2.333  0.00  0.00    +0.383 N 
ATOM     25  C   UNL     1      -4.820   1.786   1.719  0.00  0.00    -0.059 C 
ATOM     26  C   UNL     1      -4.827   1.264   0.268  0.00  0.00    +0.090 C 
ATOM     27  H   UNL     1      -6.788   1.976   1.783  0.00  0.00    -0.081 HD
BRANCH  24  28
ATOM     28  C   UNL     1      -6.062   2.157   3.664  0.00  0.00    -0.069 C 
ATOM     29  C   UNL     1      -7.165   3.170   3.975  0.00  0.00    -0.017 C 
ATOM     30  C   UNL     1      -5.730   3.648   3.745  0.00  0.00    -0.017 C 
ENDBRANCH  24  28
ENDBRANCH   2  18
TORSDOF 3
