REMARK  Name = ZINC48310511
REMARK  8 active torsions:
REMARK  status: ('A' for Active; 'I' for Inactive)
REMARK    1  A    between atoms: C_1  and  C_2
REMARK    2  A    between atoms: C_3  and  C_14
REMARK    3  A    between atoms: C_4  and  C_13
REMARK    4  A    between atoms: N_5  and  C_7
REMARK    5  A    between atoms: C_14  and  C_16
REMARK    6  A    between atoms: N_18  and  C_19
REMARK    7  A    between atoms: C_19  and  C_25
REMARK    8  A    between atoms: C_27  and  C_30
REMARK                            x       y       z     vdW  Elec       q    Type
REMARK                         _______ _______ _______ _____ _____    ______ ____
ROOT
ATOM      1  C   UNL     1       0.252   0.650  -3.151  0.00  0.00    +0.285 C 
ATOM      2  O   UNL     1       0.565   1.538  -2.385  0.00  0.00    -0.267 OA
ATOM      3  N   UNL     1       0.138   0.907  -4.469  0.00  0.00    -0.296 N 
ATOM      4  H   UNL     1      -0.113   0.198  -5.082  0.00  0.00    +0.150 HD
ENDROOT
BRANCH   3   5
ATOM      5  C   UNL     1       0.393   2.257  -4.977  0.00  0.00    +0.098 C 
ATOM      6  C   UNL     1       1.830   2.664  -4.644  0.00  0.00    +0.034 C 
ATOM      7  C   UNL     1       2.803   1.681  -5.297  0.00  0.00    +0.003 C 
ATOM      8  C   UNL     1       2.607   1.701  -6.814  0.00  0.00    +0.000 C 
ATOM      9  C   UNL     1       1.170   1.294  -7.148  0.00  0.00    +0.003 C 
ATOM     10  C   UNL     1       0.197   2.277  -6.494  0.00  0.00    +0.034 C 
BRANCH   5  11
ATOM     11  C   UNL     1      -0.565   3.226  -4.334  0.00  0.00    +0.195 A 
ATOM     12  N   UNL     1      -0.663   3.467  -3.022  0.00  0.00    -0.194 NA
ATOM     13  C   UNL     1      -1.590   4.358  -2.798  0.00  0.00    +0.224 A 
ATOM     14  O   UNL     1      -2.118   4.717  -3.975  0.00  0.00    -0.338 OA
ATOM     15  N   UNL     1      -1.429   3.968  -4.965  0.00  0.00    -0.059 NA
ATOM     16  C   UNL     1      -1.995   4.891  -1.448  0.00  0.00    +0.112 C 
ENDBRANCH   5  11
ENDBRANCH   3   5
BRANCH   1  17
ATOM     17  C   UNL     1      -0.009  -0.726  -2.634  0.00  0.00    +0.251 C 
ATOM     18  O   UNL     1      -0.228  -1.634  -3.409  0.00  0.00    -0.282 OA
BRANCH  17  21
ATOM     19  C   UNL     1      -2.494  -0.425  -0.680  0.00  0.00    +0.068 C 
ATOM     20  C   UNL     1      -1.098  -0.851  -0.302  0.00  0.00    +0.072 A 
ATOM     21  C   UNL     1       0.000  -0.980  -1.187  0.00  0.00    +0.071 A 
ATOM     22  C   UNL     1       1.085  -1.392  -0.429  0.00  0.00    +0.053 A 
ATOM     23  N   UNL     1       0.665  -1.506   0.842  0.00  0.00    -0.236 N 
ATOM     24  N   UNL     1      -0.690  -1.160   0.896  0.00  0.00    -0.171 NA
ATOM     25  C   UNL     1       2.478  -1.663  -0.937  0.00  0.00    +0.066 C 
BRANCH  23  26
ATOM     26  C   UNL     1       1.453  -1.899   1.932  0.00  0.00    +0.066 A 
ATOM     27  C   UNL     1       2.744  -1.407   2.071  0.00  0.00    +0.028 A 
ATOM     28  C   UNL     1       3.518  -1.796   3.147  0.00  0.00    +0.002 A 
ATOM     29  C   UNL     1       3.008  -2.676   4.085  0.00  0.00    +0.000 A 
ATOM     30  C   UNL     1       1.723  -3.168   3.949  0.00  0.00    +0.002 A 
ATOM     31  C   UNL     1       0.943  -2.778   2.878  0.00  0.00    +0.028 A 
ENDBRANCH  23  26
ENDBRANCH  17  21
ENDBRANCH   1  17
TORSDOF 5
