REMARK  Name = ZINC15945373
REMARK  6 active torsions:
REMARK  status: ('A' for Active; 'I' for Inactive)
REMARK    1  A    between atoms: C_1  and  C_2
REMARK    2  A    between atoms: C_2  and  C_3
REMARK    3  A    between atoms: C_12  and  O_26
REMARK    4  A    between atoms: C_14  and  C_17
REMARK    5  A    between atoms: C_22  and  O_23
REMARK    6  A    between atoms: O_23  and  C_24
REMARK                            x       y       z     vdW  Elec       q    Type
REMARK                         _______ _______ _______ _____ _____    ______ ____
ROOT
ATOM      1  C   UNL     1       0.718  -0.497  -1.257  0.00  0.00    -0.006 C 
ATOM      2  C   UNL     1       0.637  -2.025  -1.328  0.00  0.00    +0.008 C 
ATOM      3  C   UNL     1       1.128  -2.510  -2.693  0.00  0.00    +0.037 C 
ATOM      4  C   UNL     1       2.498  -1.903  -2.964  0.00  0.00    -0.023 A 
ATOM      5  C   UNL     1       2.932  -0.822  -2.277  0.00  0.00    -0.004 A 
ATOM      6  S   UNL     1       4.546  -0.490  -2.928  0.00  0.00    -0.078 S 
ATOM      7  C   UNL     1       4.644  -1.708  -4.050  0.00  0.00    +0.080 A 
ATOM      8  C   UNL     1       3.437  -2.409  -3.949  0.00  0.00    +0.068 A 
ATOM      9  C   UNL     1       3.249  -3.582  -4.840  0.00  0.00    +0.220 C 
ATOM     10  N   UNL     1       4.095  -3.738  -5.822  0.00  0.00    -0.223 NA
ATOM     11  C   UNL     1       5.170  -2.808  -6.143  0.00  0.00    +0.227 C 
ATOM     12  N   UNL     1       5.622  -2.068  -4.950  0.00  0.00    -0.313 N 
ATOM     13  C   UNL     1       2.195  -0.078  -1.206  0.00  0.00    +0.046 C 
ATOM     14  H   UNL     1       6.556  -1.847  -4.808  0.00  0.00    +0.149 HD
ENDROOT
BRANCH  11  15
ATOM     15  C   UNL     1       4.679  -1.824  -7.173  0.00  0.00    +0.037 A 
ATOM     16  C   UNL     1       5.120  -0.515  -7.145  0.00  0.00    +0.026 A 
ATOM     17  C   UNL     1       4.669   0.388  -8.091  0.00  0.00    +0.018 A 
ATOM     18  C   UNL     1       3.776  -0.017  -9.067  0.00  0.00    +0.019 A 
ATOM     19  C   UNL     1       3.333  -1.325  -9.098  0.00  0.00    +0.047 A 
ATOM     20  C   UNL     1       3.788  -2.234  -8.154  0.00  0.00    +0.127 A 
ATOM     21 BR   UNL     1       5.274   2.179  -8.050  0.00  0.00    -0.050 Br
BRANCH  20  22
ATOM     22  O   UNL     1       3.356  -3.522  -8.186  0.00  0.00    -0.495 OA
ATOM     23  C   UNL     1       2.439  -3.874  -9.224  0.00  0.00    +0.277 C 
ENDBRANCH  20  22
ENDBRANCH  11  15
BRANCH   1  25
ATOM     24  C   UNL     1      -0.019   1.526   0.010  0.00  0.00    +0.004 C 
ATOM     25  C   UNL     1       0.002  -0.004   0.002  0.00  0.00    +0.000 C 
ENDBRANCH   1  25
BRANCH   9  26
ATOM     26  O   UNL     1       2.237  -4.458  -4.641  0.00  0.00    -0.492 OA
ATOM     27  H   UNL     1       2.212  -5.182  -5.281  0.00  0.00    +0.294 HD
ENDBRANCH   9  26
TORSDOF 4
