REMARK  Name = ZINC00613933
REMARK  2 active torsions:
REMARK  status: ('A' for Active; 'I' for Inactive)
REMARK    1  A    between atoms: C_1  and  C_2
REMARK    2  A    between atoms: C_5  and  C_9
REMARK                            x       y       z     vdW  Elec       q    Type
REMARK                         _______ _______ _______ _____ _____    ______ ____
ROOT
ATOM      1  C   UNL     1      -1.303   2.118   0.020  0.00  0.00    +0.268 C 
ATOM      2  O   UNL     1      -1.661   2.732  -0.965  0.00  0.00    -0.267 OA
ATOM      3  N   UNL     1      -2.078   2.099   1.122  0.00  0.00    -0.236 N 
ATOM      4  C   UNL     1      -1.778   1.540   2.340  0.00  0.00    +0.233 A 
ATOM      5  N   UNL     1      -2.798   1.747   3.121  0.00  0.00    -0.136 NA
ATOM      6  N   UNL     1      -3.716   2.390   2.494  0.00  0.00    -0.113 NA
ATOM      7  C   UNL     1      -3.331   2.640   1.265  0.00  0.00    +0.221 A 
ATOM      8  N   UNL     1      -4.051   3.317   0.297  0.00  0.00    -0.327 N 
ATOM      9  H   UNL     1      -3.673   3.446  -0.587  0.00  0.00    +0.145 HD
ATOM     10  H   UNL     1      -4.934   3.661   0.502  0.00  0.00    +0.145 HD
ENDROOT
BRANCH   1  15
ATOM     11  C   UNL     1       3.707  -0.711  -0.042  0.00  0.00    +0.044 C 
ATOM     12  C   UNL     1       2.394   0.029  -0.024  0.00  0.00    -0.049 A 
ATOM     13  C   UNL     1       2.382   1.407   0.106  0.00  0.00    +0.004 A 
ATOM     14  C   UNL     1       1.185   2.092   0.123  0.00  0.00    +0.015 A 
ATOM     15  C   UNL     1      -0.018   1.391   0.009  0.00  0.00    +0.058 A 
ATOM     16  C   UNL     1       0.001  -0.000  -0.122  0.00  0.00    +0.054 A 
ATOM     17  C   UNL     1       1.208  -0.672  -0.137  0.00  0.00    +0.024 A 
ATOM     18 CL   UNL     1      -1.488  -0.881  -0.265  0.00  0.00    -0.083 Cl
ENDBRANCH   1  15
TORSDOF 1
