REMARK  Name = ZINC00982332
REMARK  5 active torsions:
REMARK  status: ('A' for Active; 'I' for Inactive)
REMARK    1  A    between atoms: C_1  and  C_2
REMARK    2  A    between atoms: C_5  and  C_7
REMARK    3  A    between atoms: C_5  and  O_14
REMARK    4  A    between atoms: C_15  and  C_17
REMARK    5  A    between atoms: C_22  and  O_23
REMARK                            x       y       z     vdW  Elec       q    Type
REMARK                         _______ _______ _______ _____ _____    ______ ____
ROOT
ATOM      1  C   UNL     1       1.907   4.932  -1.799  0.00  0.00    +0.062 C 
ATOM      2  C   UNL     1       1.776   3.511  -1.313  0.00  0.00    +0.039 C 
ATOM      3  N   UNL     1       2.197   2.486  -1.932  0.00  0.00    -0.183 NA
ATOM      4  N   UNL     1       1.958   1.278  -1.279  0.00  0.00    -0.153 N 
ATOM      5  C   UNL     1       1.260   1.557  -0.013  0.00  0.00    +0.187 C 
ATOM      6  C   UNL     1       1.124   3.093  -0.015  0.00  0.00    +0.114 C 
ATOM      7  C   UNL     1       2.308   0.058  -1.732  0.00  0.00    +0.272 C 
ATOM      8  O   UNL     1       2.133  -0.922  -1.034  0.00  0.00    -0.268 OA
ENDROOT
BRANCH   5   9
ATOM      9  C   UNL     1       2.082   1.097   1.163  0.00  0.00    +0.005 A 
ATOM     10  C   UNL     1       1.460   0.759   2.351  0.00  0.00    +0.011 A 
ATOM     11  C   UNL     1       2.212   0.333   3.429  0.00  0.00    +0.039 A 
ATOM     12  C   UNL     1       3.591   0.254   3.323  0.00  0.00    +0.123 A 
ATOM     13  C   UNL     1       4.213   0.599   2.135  0.00  0.00    +0.039 A 
ATOM     14  C   UNL     1       3.458   1.020   1.057  0.00  0.00    +0.011 A 
ATOM     15  F   UNL     1       4.328  -0.158   4.377  0.00  0.00    -0.205 F 
ENDBRANCH   5   9
BRANCH   7  16
ATOM     16  C   UNL     1       2.904  -0.088  -3.073  0.00  0.00    +0.080 A 
ATOM     17  C   UNL     1       3.226   1.044  -3.826  0.00  0.00    +0.017 A 
ATOM     18  C   UNL     1       3.788   0.900  -5.076  0.00  0.00    +0.001 A 
ATOM     19  C   UNL     1       4.025  -0.363  -5.595  0.00  0.00    +0.004 A 
ATOM     20  C   UNL     1       3.707  -1.490  -4.864  0.00  0.00    +0.046 A 
ATOM     21  C   UNL     1       3.146  -1.364  -3.601  0.00  0.00    +0.129 A 
BRANCH  21  22
ATOM     22  O   UNL     1       2.833  -2.470  -2.881  0.00  0.00    -0.506 OA
ATOM     23  H   UNL     1       1.935  -2.796  -3.031  0.00  0.00    +0.292 HD
ENDBRANCH  21  22
ENDBRANCH   7  16
BRANCH   5  24
ATOM     24  O   UNL     1      -0.027   0.936   0.000  0.00  0.00    -0.366 OA
ATOM     25  H   UNL     1       0.003  -0.030   0.002  0.00  0.00    +0.212 HD
ENDBRANCH   5  24
TORSDOF 4
