REMARK  Name = ZINC25760486
REMARK  9 active torsions:
REMARK  status: ('A' for Active; 'I' for Inactive)
REMARK    1  A    between atoms: C_1  and  C_2
REMARK    2  A    between atoms: C_2  and  N_3
REMARK    3  A    between atoms: N_3  and  C_4
REMARK    4  A    between atoms: N_3  and  C_6
REMARK    5  A    between atoms: C_4  and  C_5
REMARK    6  A    between atoms: C_6  and  C_7
REMARK    7  A    between atoms: C_8  and  C_18
REMARK    8  A    between atoms: N_20  and  N_21
REMARK    9  A    between atoms: C_22  and  C_23
REMARK                            x       y       z     vdW  Elec       q    Type
REMARK                         _______ _______ _______ _____ _____    ______ ____
ROOT
ATOM      1  C   UNL     1       7.371   0.410  -0.068  0.00  0.00    +0.079 A 
ATOM      2  C   UNL     1       6.184   1.087   0.037  0.00  0.00    +0.154 A 
ATOM      3  N   UNL     1       6.524   2.416   0.106  0.00  0.00    -0.183 N 
ATOM      4  N   UNL     1       7.807   2.500   0.054  0.00  0.00    -0.058 NA
ATOM      5  N   UNL     1       8.334   1.333  -0.051  0.00  0.00    -0.135 NA
ATOM      6  C   UNL     1       5.633   3.488   0.216  0.00  0.00    +0.241 A 
ATOM      7  C   UNL     1       5.991   4.909   0.180  0.00  0.00    +0.206 A 
ATOM      8  N   UNL     1       4.900   5.611   0.312  0.00  0.00    -0.032 NA
ATOM      9  O   UNL     1       3.815   4.708   0.437  0.00  0.00    -0.239 OA
ATOM     10  N   UNL     1       4.341   3.395   0.364  0.00  0.00    -0.027 NA
ATOM     11  N   UNL     1       7.275   5.421   0.030  0.00  0.00    -0.337 N 
ATOM     12  H   UNL     1       7.435   6.509   0.015  0.00  0.00    +0.144 HD
ATOM     13  H   UNL     1       8.131   4.738  -0.074  0.00  0.00    +0.144 HD
ENDROOT
BRANCH   2  14
ATOM     14  C   UNL     1       4.831   0.512   0.062  0.00  0.00    +0.284 C 
ATOM     15  O   UNL     1       4.283   0.198  -0.978  0.00  0.00    -0.267 OA
ATOM     16  N   UNL     1       4.197   0.333   1.238  0.00  0.00    -0.202 N 
ATOM     17  H   UNL     1       4.722   0.537   2.183  0.00  0.00    +0.178 HD
BRANCH  16  18
ATOM     18  N   UNL     1       2.869  -0.114   1.257  0.00  0.00    -0.192 NA
ATOM     19  C   UNL     1       2.267  -0.284   2.374  0.00  0.00    +0.106 C 
BRANCH  19  20
ATOM     20  C   UNL     1       0.839  -0.764   2.395  0.00  0.00    +0.032 C 
ATOM     21  C   UNL     1       0.757  -2.088   3.157  0.00  0.00    +0.009 C 
ATOM     22  C   UNL     1      -0.693  -2.576   3.178  0.00  0.00    +0.001 C 
ATOM     23  C   UNL     1      -1.572  -1.533   3.872  0.00  0.00    +0.000 C 
ATOM     24  C   UNL     1      -1.490  -0.209   3.109  0.00  0.00    +0.001 C 
ATOM     25  C   UNL     1      -0.040   0.279   3.088  0.00  0.00    +0.009 C 
ENDBRANCH  19  20
ENDBRANCH  16  18
ENDBRANCH   2  14
BRANCH   1  26
ATOM     26  C   UNL     1       7.553  -1.082  -0.179  0.00  0.00    -0.018 C 
BRANCH  26  27
ATOM     27  N   UNL     1       7.545  -1.472  -1.595  0.00  0.00    +0.383 N 
ATOM     28  H   UNL     1       6.641  -1.047  -2.058  0.00  0.00    -0.081 HD
BRANCH  27  30
ATOM     29  C   UNL     1       9.989  -1.541  -1.724  0.00  0.00    -0.017 C 
ATOM     30  C   UNL     1       8.712  -0.924  -2.299  0.00  0.00    -0.082 C 
ENDBRANCH  27  30
BRANCH  27  31
ATOM     31  C   UNL     1       7.481  -2.933  -1.739  0.00  0.00    -0.082 C 
ATOM     32  C   UNL     1       7.097  -3.287  -3.177  0.00  0.00    -0.017 C 
ENDBRANCH  27  31
ENDBRANCH  26  27
ENDBRANCH   1  26
TORSDOF 7
