REMARK  Name = ZINC09659987
REMARK  12 active torsions:
REMARK  status: ('A' for Active; 'I' for Inactive)
REMARK    1  A    between atoms: N_9  and  C1*_19
REMARK    2  A    between atoms: N_12  and  C_13
REMARK    3  A    between atoms: C_13  and  C_14
REMARK    4  A    between atoms: C_14  and  C_15
REMARK    5  A    between atoms: C_15  and  C_16
REMARK    6  A    between atoms: C_16  and  C_17
REMARK    7  A    between atoms: C_17  and  C_18
REMARK    8  A    between atoms: C_18  and  N_53
REMARK    9  A    between atoms: C2*_21  and  O2*_31
REMARK   10  A    between atoms: C3*_23  and  O3*_30
REMARK   11  A    between atoms: C4*_25  and  C5*_28
REMARK   12  A    between atoms: C5*_28  and  O5*_29
REMARK                            x       y       z     vdW  Elec       q    Type
REMARK                         _______ _______ _______ _____ _____    ______ ____
ROOT
ATOM      1  C   UNL     1      -1.190   3.251   0.030  0.00  0.00    +0.201 A 
ATOM      2  N   UNL     1      -1.184   1.893   0.018  0.00  0.00    -0.312 N 
ATOM      3  H   UNL     1      -2.023   1.407   0.019  0.00  0.00    +0.170 HD
ATOM      4  C   UNL     1      -0.015   1.215   0.009  0.00  0.00    +0.279 A 
ATOM      5  O   UNL     1       0.002  -0.004   0.002  0.00  0.00    -0.265 OA
ATOM      6  C   UNL     1       1.191   1.959   0.001  0.00  0.00    +0.174 A 
ATOM      7  C   UNL     1       1.112   3.353   0.009  0.00  0.00    +0.171 A 
ATOM      8  N   UNL     1      -0.088   3.949   0.024  0.00  0.00    -0.218 NA
ATOM      9  N   UNL     1       2.406   3.811   0.000  0.00  0.00    -0.267 N 
ATOM     10  C   UNL     1       3.228   2.719  -0.013  0.00  0.00    +0.200 A 
ATOM     11  N   UNL     1       2.506   1.626  -0.012  0.00  0.00    -0.207 NA
ATOM     12  N   UNL     1       4.609   2.761  -0.025  0.00  0.00    -0.315 N 
ATOM     13  H   UNL     1       5.068   3.616  -0.024  0.00  0.00    +0.149 HD
ENDROOT
BRANCH   9  14
ATOM     14  C1* UNL     1       2.829   5.214   0.005  0.00  0.00    +0.255 C 
ATOM     15  C2* UNL     1       2.564   5.851   1.387  0.00  0.00    +0.195 C 
ATOM     16  C3* UNL     1       2.116   7.292   1.056  0.00  0.00    +0.178 C 
ATOM     17  C4* UNL     1       2.164   7.356  -0.486  0.00  0.00    +0.177 C 
ATOM     18  O4* UNL     1       2.026   5.984  -0.916  0.00  0.00    -0.346 OA
BRANCH  16  19
ATOM     19  O3* UNL     1       0.788   7.527   1.526  0.00  0.00    -0.386 OA
ATOM     20  H3* UNL     1       0.436   8.398   1.294  0.00  0.00    +0.210 HD
ENDBRANCH  16  19
BRANCH  15  21
ATOM     21  O2* UNL     1       1.524   5.149   2.071  0.00  0.00    -0.385 OA
ATOM     22  H2* UNL     1       1.317   5.507   2.945  0.00  0.00    +0.210 HD
ENDBRANCH  15  21
BRANCH  17  23
ATOM     23  C5* UNL     1       1.007   8.201  -1.023  0.00  0.00    +0.190 C 
BRANCH  23  24
ATOM     24  O5* UNL     1       1.097   8.282  -2.447  0.00  0.00    -0.392 OA
ATOM     25  H5* UNL     1       0.393   8.804  -2.856  0.00  0.00    +0.210 HD
ENDBRANCH  23  24
ENDBRANCH  17  23
ENDBRANCH   9  14
BRANCH  12  26
ATOM     26  C   UNL     1       5.379   1.516  -0.038  0.00  0.00    +0.104 C 
BRANCH  26  27
ATOM     27  C   UNL     1       6.874   1.841  -0.049  0.00  0.00    +0.019 C 
BRANCH  27  28
ATOM     28  C   UNL     1       7.679   0.540  -0.064  0.00  0.00    +0.001 C 
BRANCH  28  29
ATOM     29  C   UNL     1       9.174   0.865  -0.074  0.00  0.00    -0.002 C 
BRANCH  29  30
ATOM     30  C   UNL     1       9.979  -0.436  -0.089  0.00  0.00    -0.020 C 
BRANCH  30  31
ATOM     31  C   UNL     1      11.474  -0.110  -0.100  0.00  0.00    -0.086 C 
BRANCH  31  34
ATOM     32  H   UNL     1      11.984  -1.939  -0.896  0.00  0.00    -0.090 HD
ATOM     33  H   UNL     1      13.239  -1.171  -0.121  0.00  0.00    -0.090 HD
ATOM     34  N   UNL     1      12.240  -1.369  -0.091  0.00  0.00    +0.378 N 
ATOM     35  H   UNL     1      12.027  -1.888   0.768  0.00  0.00    -0.090 HD
ENDBRANCH  31  34
ENDBRANCH  30  31
ENDBRANCH  29  30
ENDBRANCH  28  29
ENDBRANCH  27  28
ENDBRANCH  26  27
ENDBRANCH  12  26
TORSDOF 12
