REMARK  Name = ZINC02879555
REMARK  5 active torsions:
REMARK  status: ('A' for Active; 'I' for Inactive)
REMARK    1  A    between atoms: C_4  and  C_7
REMARK    2  A    between atoms: C_7  and  N_8
REMARK    3  A    between atoms: C_17  and  C_21
REMARK    4  A    between atoms: C_17  and  N_25
REMARK    5  A    between atoms: C_26  and  C_28
REMARK                            x       y       z     vdW  Elec       q    Type
REMARK                         _______ _______ _______ _____ _____    ______ ____
ROOT
ATOM      1  N   UNL     1      -0.566   1.541  -1.375  0.00  0.00    -0.304 N 
ATOM      2  C   UNL     1      -1.620   0.793  -1.853  0.00  0.00    +0.119 A 
ATOM      3  C   UNL     1      -2.323   1.271  -2.920  0.00  0.00    +0.096 A 
ATOM      4  C   UNL     1      -1.963   2.488  -3.512  0.00  0.00    +0.260 A 
ATOM      5  O   UNL     1      -2.587   2.915  -4.469  0.00  0.00    -0.267 OA
ATOM      6  N   UNL     1      -0.920   3.183  -3.013  0.00  0.00    -0.302 N 
ATOM      7  H   UNL     1      -0.663   4.027  -3.416  0.00  0.00    +0.171 HD
ATOM      8  C   UNL     1      -0.235   2.707  -1.957  0.00  0.00    +0.162 A 
ATOM      9  S   UNL     1       1.085   3.607  -1.340  0.00  0.00    -0.013 S 
ATOM     10  C   UNL     1      -3.406   0.259  -3.212  0.00  0.00    +0.240 C 
ATOM     11  C   UNL     1      -3.187  -0.808  -2.158  0.00  0.00    +0.256 C 
ATOM     12  O   UNL     1      -3.832  -1.824  -2.008  0.00  0.00    -0.272 OA
ATOM     13  N   UNL     1      -2.136  -0.405  -1.422  0.00  0.00    -0.269 N 
ATOM     14  H   UNL     1      -1.778  -0.907  -0.673  0.00  0.00    +0.156 HD
ENDROOT
BRANCH  10  15
ATOM     15  C   UNL     1      -3.233  -0.326  -4.615  0.00  0.00    +0.424 C 
ATOM     16  F   UNL     1      -1.939  -0.840  -4.750  0.00  0.00    -0.167 F 
ATOM     17  F   UNL     1      -4.165  -1.351  -4.811  0.00  0.00    -0.167 F 
ATOM     18  F   UNL     1      -3.438   0.679  -5.567  0.00  0.00    -0.167 F 
ENDBRANCH  10  15
BRANCH  10  19
ATOM     19  N   UNL     1      -4.731   0.867  -3.067  0.00  0.00    -0.287 N 
ATOM     20  C   UNL     1      -5.088   1.437  -1.899  0.00  0.00    +0.245 C 
ATOM     21  O   UNL     1      -4.280   1.526  -0.995  0.00  0.00    -0.270 OA
ATOM     22  H   UNL     1      -5.352   0.859  -3.812  0.00  0.00    +0.151 HD
BRANCH  20  23
ATOM     23  C   UNL     1      -6.461   1.953  -1.717  0.00  0.00    +0.037 A 
ATOM     24  C   UNL     1      -7.389   1.857  -2.755  0.00  0.00    +0.013 A 
ATOM     25  C   UNL     1      -8.671   2.336  -2.577  0.00  0.00    +0.001 A 
ATOM     26  C   UNL     1      -9.034   2.920  -1.376  0.00  0.00    +0.000 A 
ATOM     27  C   UNL     1      -8.117   3.024  -0.345  0.00  0.00    +0.001 A 
ATOM     28  C   UNL     1      -6.834   2.544  -0.508  0.00  0.00    +0.013 A 
ENDBRANCH  20  23
ENDBRANCH  10  19
BRANCH   1  29
ATOM     29  C   UNL     1       0.206   1.059  -0.227  0.00  0.00    +0.160 C 
BRANCH  29  33
ATOM     30  C   UNL     1      -1.536   2.539   3.382  0.00  0.00    +0.000 A 
ATOM     31  C   UNL     1      -1.952   1.329   2.859  0.00  0.00    +0.000 A 
ATOM     32  C   UNL     1      -1.389   0.850   1.691  0.00  0.00    +0.005 A 
ATOM     33  C   UNL     1      -0.409   1.581   1.046  0.00  0.00    -0.028 A 
ATOM     34  C   UNL     1       0.012   2.788   1.572  0.00  0.00    +0.005 A 
ATOM     35  C   UNL     1      -0.555   3.269   2.737  0.00  0.00    +0.000 A 
ENDBRANCH  29  33
ENDBRANCH   1  29
TORSDOF 5
