REMARK  Name = ZINC39590227
REMARK  3 active torsions:
REMARK  status: ('A' for Active; 'I' for Inactive)
REMARK    1  A    between atoms: C_10  and  C_12
REMARK    2  A    between atoms: C_16  and  N_19
REMARK    3  A    between atoms: C_20  and  C_22
REMARK                            x       y       z     vdW  Elec       q    Type
REMARK                         _______ _______ _______ _____ _____    ______ ____
ROOT
ATOM      1  C   UNL     1       5.126   0.839  -0.136  0.00  0.00    +0.087 C 
ATOM      2  C   UNL     1       6.409   1.241  -0.252  0.00  0.00    +0.021 C 
ATOM      3  C   UNL     1       6.783   2.715  -0.251  0.00  0.00    +0.123 C 
ATOM      4  S   UNL     1       8.600   2.626  -0.551  0.00  0.00    -0.114 S 
ATOM      5  C   UNL     1       8.660   0.842  -1.018  0.00  0.00    +0.219 C 
ATOM      6  N   UNL     1       7.419   0.355  -0.370  0.00  0.00    -0.320 N 
ATOM      7  H   UNL     1       7.336  -0.556  -0.048  0.00  0.00    +0.148 HD
ENDROOT
BRANCH   1  17
ATOM      8  C   UNL     1       1.899  -4.777  -0.092  0.00  0.00    +0.000 A 
ATOM      9  C   UNL     1       3.279  -4.684  -0.106  0.00  0.00    +0.002 A 
ATOM     10  C   UNL     1       3.891  -3.449  -0.090  0.00  0.00    +0.024 A 
ATOM     11  C   UNL     1       3.123  -2.283  -0.060  0.00  0.00    +0.040 A 
ATOM     12  C   UNL     1       1.741  -2.387  -0.048  0.00  0.00    -0.024 A 
ATOM     13  C   UNL     1       1.132  -3.627  -0.063  0.00  0.00    +0.005 A 
ATOM     14  C   UNL     1       1.154  -0.994  -0.016  0.00  0.00    +0.056 C 
ATOM     15  C   UNL     1       2.375  -0.059  -0.012  0.00  0.00    +0.118 C 
ATOM     16  N   UNL     1       3.539  -0.949  -0.041  0.00  0.00    -0.267 N 
ATOM     17  C   UNL     1       4.824  -0.540  -0.046  0.00  0.00    +0.245 C 
ATOM     18  O   UNL     1       5.723  -1.357   0.026  0.00  0.00    -0.270 OA
ENDBRANCH   1  17
BRANCH   5  19
ATOM     19  N   UNL     1       8.607   0.672  -2.473  0.00  0.00    -0.284 N 
ATOM     20  C   UNL     1       9.701   0.916  -3.220  0.00  0.00    +0.251 C 
ATOM     21  O   UNL     1      10.705   1.365  -2.700  0.00  0.00    -0.270 OA
ATOM     22  H   UNL     1       7.784   0.384  -2.897  0.00  0.00    +0.152 HD
BRANCH  20  23
ATOM     23  C   UNL     1       9.682   0.638  -4.664  0.00  0.00    +0.101 A 
ATOM     24  C   UNL     1      10.842   0.768  -5.426  0.00  0.00    +0.020 A 
ATOM     25  C   UNL     1      10.785   0.497  -6.793  0.00  0.00    +0.018 A 
ATOM     26  C   UNL     1       9.615   0.112  -7.364  0.00  0.00    +0.086 A 
ATOM     27  N   UNL     1       8.484  -0.016  -6.629  0.00  0.00    -0.328 N 
ATOM     28  C   UNL     1       8.485   0.228  -5.305  0.00  0.00    +0.261 A 
ATOM     29  O   UNL     1       7.459   0.102  -4.660  0.00  0.00    -0.267 OA
ATOM     30  H   UNL     1       7.662  -0.291  -7.063  0.00  0.00    +0.168 HD
ENDBRANCH  20  23
ENDBRANCH   5  19
TORSDOF 3
