REMARK  Name = ZINC19970280
REMARK  4 active torsions:
REMARK  status: ('A' for Active; 'I' for Inactive)
REMARK    1  A    between atoms: C_6  and  C_7
REMARK    2  A    between atoms: C_7  and  C_9
REMARK    3  A    between atoms: C_7  and  N_19
REMARK    4  A    between atoms: C_11  and  N_16
REMARK                            x       y       z     vdW  Elec       q    Type
REMARK                         _______ _______ _______ _____ _____    ______ ____
ROOT
ATOM      1  C   UNL     1       1.228  -2.186  -0.023  0.00  0.00    -0.013 C 
ENDROOT
BRANCH   1   7
ATOM      2  C   UNL     1       2.749  -2.686  -1.947  0.00  0.00    +0.003 A 
ATOM      3  C   UNL     1       2.970  -3.141  -3.233  0.00  0.00    +0.015 A 
ATOM      4  C   UNL     1       1.908  -3.576  -4.005  0.00  0.00    +0.018 A 
ATOM      5  C   UNL     1       0.625  -3.562  -3.486  0.00  0.00    +0.015 A 
ATOM      6  C   UNL     1       0.406  -3.112  -2.198  0.00  0.00    +0.003 A 
ATOM      7  C   UNL     1       1.468  -2.677  -1.427  0.00  0.00    -0.058 A 
ATOM      8 BR   UNL     1       2.209  -4.192  -5.767  0.00  0.00    -0.050 Br
ENDBRANCH   1   7
BRANCH   1   9
ATOM      9  C   UNL     1       1.208  -0.680  -0.014  0.00  0.00    -0.054 A 
ATOM     10  C   UNL     1       0.002  -0.004   0.002  0.00  0.00    +0.035 A 
ATOM     11  C   UNL     1      -0.017   1.378   0.010  0.00  0.00    +0.128 A 
ATOM     12  C   UNL     1       1.171   2.086   0.002  0.00  0.00    +0.052 A 
ATOM     13  C   UNL     1       2.378   1.410  -0.013  0.00  0.00    +0.043 A 
ATOM     14  C   UNL     1       2.396   0.027  -0.021  0.00  0.00    +0.022 A 
ATOM     15 CL   UNL     1       3.870   2.298  -0.022  0.00  0.00    -0.083 Cl
BRANCH  11  16
ATOM     16  N   UNL     1      -1.308   2.100   0.020  0.00  0.00    +0.056 N 
ATOM     17  O   UNL     1      -2.355   1.477   0.021  0.00  0.00    -0.126 OA
ATOM     18  O   UNL     1      -1.325   3.318   0.026  0.00  0.00    -0.126 OA
ENDBRANCH  11  16
ENDBRANCH   1   9
BRANCH   1  19
ATOM     19  N   UNL     1       2.304  -2.668   0.854  0.00  0.00    +0.385 N 
ATOM     20  H   UNL     1       2.128  -2.309   1.879  0.00  0.00    -0.089 HD
ATOM     21  H   UNL     1       3.270  -2.286   0.493  0.00  0.00    -0.089 HD
ATOM     22  H   UNL     1       2.318  -3.768   0.848  0.00  0.00    -0.089 HD
ENDBRANCH   1  19
TORSDOF 4
