REMARK  Name = ZINC16020777
REMARK  4 active torsions:
REMARK  status: ('A' for Active; 'I' for Inactive)
REMARK    1  A    between atoms: C_1  and  C_2
REMARK    2  A    between atoms: C_22  and  C_30
REMARK    3  A    between atoms: C_30  and  C_32
REMARK    4  A    between atoms: C_36  and  N_38
REMARK                            x       y       z     vdW  Elec       q    Type
REMARK                         _______ _______ _______ _____ _____    ______ ____
ROOT
ATOM      1  C   UNL     1       0.189   1.627   0.149  0.00  0.00    +0.044 C 
ATOM      2  C   UNL     1       0.173   0.121   0.095  0.00  0.00    -0.050 A 
ATOM      3  C   UNL     1       0.190  -0.528  -1.126  0.00  0.00    +0.005 A 
ATOM      4  C   UNL     1       0.175  -1.907  -1.183  0.00  0.00    +0.024 A 
ATOM      5  C   UNL     1       0.144  -2.655  -0.009  0.00  0.00    +0.039 A 
ATOM      6  C   UNL     1       0.128  -1.991   1.213  0.00  0.00    +0.004 A 
ATOM      7  C   UNL     1       0.148  -0.615   1.266  0.00  0.00    +0.011 A 
ATOM      8  C   UNL     1       0.096  -3.064   2.269  0.00  0.00    +0.145 C 
ATOM      9  C   UNL     1       0.098  -4.360   1.499  0.00  0.00    +0.244 C 
ATOM     10  O   UNL     1       0.078  -5.479   1.967  0.00  0.00    -0.273 OA
ATOM     11  N   UNL     1       0.126  -4.037   0.193  0.00  0.00    -0.283 N 
ATOM     12  C   UNL     1      -1.144  -2.943   3.148  0.00  0.00    +0.116 C 
ATOM     13  C   UNL     1      -2.030  -4.152   3.040  0.00  0.00    -0.008 A 
ATOM     14  C   UNL     1      -1.834  -5.495   3.273  0.00  0.00    +0.006 A 
ATOM     15  C   UNL     1      -2.871  -6.390   3.080  0.00  0.00    +0.000 A 
ATOM     16  C   UNL     1      -4.104  -5.933   2.653  0.00  0.00    +0.002 A 
ATOM     17  C   UNL     1      -4.306  -4.588   2.418  0.00  0.00    +0.023 A 
ATOM     18  C   UNL     1      -3.267  -3.680   2.610  0.00  0.00    +0.038 A 
ATOM     19  N   UNL     1      -3.223  -2.295   2.442  0.00  0.00    -0.284 N 
ATOM     20  C   UNL     1      -2.012  -1.785   2.736  0.00  0.00    +0.231 C 
ATOM     21  O   UNL     1      -1.684  -0.618   2.681  0.00  0.00    -0.274 OA
ATOM     22  C   UNL     1      -0.624  -2.761   4.584  0.00  0.00    +0.099 C 
ATOM     23  C   UNL     1       0.819  -2.245   4.368  0.00  0.00    +0.070 C 
ATOM     24  N   UNL     1       1.277  -2.974   3.146  0.00  0.00    -0.281 NA
ATOM     25  C   UNL     1       1.641  -4.328   3.629  0.00  0.00    +0.086 C 
ATOM     26  C   UNL     1       2.273  -4.110   5.018  0.00  0.00    +0.017 C 
ATOM     27  C   UNL     1       1.712  -2.747   5.516  0.00  0.00    +0.021 C 
ATOM     28  H   UNL     1       0.132  -4.689  -0.526  0.00  0.00    +0.155 HD
ATOM     29  H   UNL     1      -3.978  -1.761   2.147  0.00  0.00    +0.155 HD
ENDROOT
BRANCH  22  30
ATOM     30  C   UNL     1      -1.452  -1.743   5.325  0.00  0.00    +0.169 C 
ATOM     31  O   UNL     1      -1.116  -0.578   5.335  0.00  0.00    -0.292 OA
BRANCH  30  32
ATOM     32  C   UNL     1      -2.670  -2.163   6.038  0.00  0.00    +0.020 A 
ATOM     33  C   UNL     1      -2.996  -3.520   6.133  0.00  0.00    +0.011 A 
ATOM     34  C   UNL     1      -4.138  -3.905   6.802  0.00  0.00    +0.003 A 
ATOM     35  C   UNL     1      -4.962  -2.953   7.378  0.00  0.00    +0.033 A 
ATOM     36  C   UNL     1      -4.646  -1.609   7.288  0.00  0.00    +0.127 A 
ATOM     37  C   UNL     1      -3.504  -1.208   6.627  0.00  0.00    +0.044 A 
BRANCH  36  38
ATOM     38  N   UNL     1      -5.534  -0.599   7.907  0.00  0.00    +0.056 N 
ATOM     39  O   UNL     1      -6.533  -0.949   8.490  0.00  0.00    -0.126 OA
ATOM     40  O   UNL     1      -5.260   0.576   7.829  0.00  0.00    -0.126 OA
ENDBRANCH  36  38
ENDBRANCH  30  32
ENDBRANCH  22  30
TORSDOF 3
