REMARK  Name = ZINC20727860
REMARK  1 active torsions:
REMARK  status: ('A' for Active; 'I' for Inactive)
REMARK    1  A    between atoms: N_20  and  C_21
REMARK                            x       y       z     vdW  Elec       q    Type
REMARK                         _______ _______ _______ _____ _____    ______ ____
ROOT
ATOM      1  C   UNL     1      -0.017   1.375   0.010  0.00  0.00    +0.002 A 
ATOM      2  C   UNL     1       1.161   2.116   0.002  0.00  0.00    +0.007 A 
ATOM      3  C   UNL     1       2.345   1.411  -0.013  0.00  0.00    -0.005 A 
ATOM      4  C   UNL     1       2.378   0.011  -0.021  0.00  0.00    +0.056 A 
ATOM      5  C   UNL     1       1.190  -0.722  -0.013  0.00  0.00    +0.062 A 
ATOM      6  C   UNL     1       0.002  -0.004   0.002  0.00  0.00    +0.022 A 
ATOM      7 CL   UNL     1       1.197  -2.458  -0.022  0.00  0.00    -0.082 Cl
ATOM      8  N   UNL     1       3.687  -0.439  -0.036  0.00  0.00    -0.283 N 
ATOM      9  C   UNL     1       4.572   0.580  -0.041  0.00  0.00    +0.233 C 
ATOM     10  O   UNL     1       5.781   0.486  -0.056  0.00  0.00    -0.274 OA
ATOM     11  C   UNL     1       3.769   1.863  -0.026  0.00  0.00    +0.111 C 
ATOM     12  C   UNL     1       4.077   2.691  -1.272  0.00  0.00    +0.122 C 
ATOM     13  C   UNL     1       3.619   4.113  -1.108  0.00  0.00    +0.220 C 
ATOM     14  O   UNL     1       3.149   4.693  -2.064  0.00  0.00    -0.275 OA
ATOM     15  N   UNL     1       3.716   4.767   0.069  0.00  0.00    -0.270 N 
ATOM     16  C   UNL     1       4.065   4.039   1.205  0.00  0.00    +0.133 A 
ATOM     17  C   UNL     1       4.102   2.667   1.200  0.00  0.00    +0.032 A 
ATOM     18  C   UNL     1       4.480   2.246   2.466  0.00  0.00    +0.141 A 
ATOM     19  N   UNL     1       4.657   3.307   3.219  0.00  0.00    -0.173 NA
ATOM     20  N   UNL     1       4.394   4.450   2.446  0.00  0.00    -0.218 N 
ATOM     21  H   UNL     1       3.939  -1.376  -0.042  0.00  0.00    +0.155 HD
ATOM     22  H   UNL     1       3.547   5.721   0.123  0.00  0.00    +0.156 HD
ENDROOT
BRANCH  20  23
ATOM     23  C   UNL     1       4.461   5.780   2.886  0.00  0.00    +0.068 A 
ATOM     24  C   UNL     1       4.888   6.778   2.021  0.00  0.00    +0.029 A 
ATOM     25  C   UNL     1       4.953   8.087   2.457  0.00  0.00    +0.022 A 
ATOM     26  C   UNL     1       4.592   8.404   3.754  0.00  0.00    +0.041 A 
ATOM     27  C   UNL     1       4.166   7.411   4.619  0.00  0.00    +0.022 A 
ATOM     28  C   UNL     1       4.094   6.101   4.186  0.00  0.00    +0.029 A 
ATOM     29 CL   UNL     1       4.675  10.050   4.299  0.00  0.00    -0.084 Cl
ENDBRANCH  20  23
TORSDOF 1
