REMARK  Name = ZINC07057382
REMARK  11 active torsions:
REMARK  status: ('A' for Active; 'I' for Inactive)
REMARK    1  A    between atoms: C_1  and  C_2
REMARK    2  A    between atoms: C_3  and  C_27
REMARK    3  A    between atoms: C_4  and  C_26
REMARK    4  A    between atoms: C_7  and  C_8
REMARK    5  A    between atoms: C_8  and  C_10
REMARK    6  A    between atoms: C_10  and  C_12
REMARK    7  A    between atoms: C_10  and  O_13
REMARK    8  A    between atoms: O_13  and  C_14
REMARK    9  A    between atoms: C_14  and  C_16
REMARK   10  A    between atoms: C_27  and  O_29
REMARK   11  A    between atoms: O_29  and  C_30
REMARK                            x       y       z     vdW  Elec       q    Type
REMARK                         _______ _______ _______ _____ _____    ______ ____
ROOT
ATOM      1  C   UNL     1      -6.053   2.366   0.078  0.00  0.00    +0.246 C 
ATOM      2  C   UNL     1      -6.462   2.642   1.526  0.00  0.00    +0.061 C 
ENDROOT
BRANCH   1   3
ATOM      3  C   UNL     1      -7.162   1.627  -0.625  0.00  0.00    +0.219 C 
ATOM      4  O   UNL     1      -7.092   0.424  -0.772  0.00  0.00    -0.287 OA
BRANCH   3  11
ATOM      5  C   UNL     1      -9.570   0.330  -2.104  0.00  0.00    +0.047 C 
ATOM      6  C   UNL     1      -9.365   1.786  -1.772  0.00  0.00    -0.008 A 
ATOM      7  C   UNL     1     -10.243   2.849  -2.075  0.00  0.00    +0.083 A 
ATOM      8  C   UNL     1      -9.664   4.009  -1.589  0.00  0.00    +0.028 A 
ATOM      9  N   UNL     1      -8.495   3.695  -1.010  0.00  0.00    -0.355 N 
ATOM     10  H   UNL     1      -7.879   4.483  -0.553  0.00  0.00    +0.166 HD
ATOM     11  C   UNL     1      -8.286   2.335  -1.114  0.00  0.00    +0.090 A 
ATOM     12  C   UNL     1     -10.252   5.393  -1.688  0.00  0.00    +0.064 C 
BRANCH   7  13
ATOM     13  C   UNL     1     -11.534   2.744  -2.776  0.00  0.00    +0.341 C 
ATOM     14  O   UNL     1     -12.555   2.560  -2.145  0.00  0.00    -0.245 OA
BRANCH  13  15
ATOM     15  O   UNL     1     -11.582   2.854  -4.119  0.00  0.00    -0.464 OA
ATOM     16  C   UNL     1     -12.888   2.740  -4.743  0.00  0.00    +0.280 C 
ENDBRANCH  13  15
ENDBRANCH   7  13
ENDBRANCH   3  11
ENDBRANCH   1   3
BRANCH   1  17
ATOM     17  O   UNL     1      -4.846   1.559   0.061  0.00  0.00    -0.450 OA
BRANCH  17  18
ATOM     18  C   UNL     1      -3.670   2.217   0.052  0.00  0.00    +0.340 C 
ATOM     19  O   UNL     1      -3.654   3.432   0.059  0.00  0.00    -0.245 OA
BRANCH  18  20
ATOM     20  C   UNL     1      -2.405   1.463   0.035  0.00  0.00    +0.060 A 
ATOM     21  C   UNL     1      -2.411   0.061   0.027  0.00  0.00    +0.017 A 
ATOM     22  C   UNL     1      -1.258  -0.652   0.011  0.00  0.00    +0.030 A 
ATOM     23  C   UNL     1       0.002  -0.004   0.002  0.00  0.00    +0.080 A 
ATOM     24  C   UNL     1      -0.017   1.412   0.010  0.00  0.00    +0.042 A 
ATOM     25  C   UNL     1      -1.177   2.136   0.030  0.00  0.00    +0.032 A 
ATOM     26  S   UNL     1       1.714   1.815  -0.005  0.00  0.00    -0.053 S 
ATOM     27  C   UNL     1       2.333   0.138  -0.019  0.00  0.00    +0.157 A 
ATOM     28  N   UNL     1       1.224  -0.570  -0.013  0.00  0.00    -0.225 NA
ATOM     29  N   UNL     1       3.639  -0.300  -0.035  0.00  0.00    -0.337 N 
ATOM     30  H   UNL     1       3.857  -1.379  -0.043  0.00  0.00    +0.144 HD
ATOM     31  H   UNL     1       4.464   0.427  -0.040  0.00  0.00    +0.144 HD
ENDBRANCH  18  20
ENDBRANCH  17  18
ENDBRANCH   1  17
TORSDOF 7
