REMARK  Name = ZINC04097843
REMARK  10 active torsions:
REMARK  status: ('A' for Active; 'I' for Inactive)
REMARK    1  A    between atoms: C_1  and  O_2
REMARK    2  A    between atoms: O_2  and  C_3
REMARK    3  A    between atoms: C_15  and  C_17
REMARK    4  A    between atoms: C_17  and  O_18
REMARK    5  A    between atoms: O_18  and  C_19
REMARK    6  A    between atoms: C_21  and  O_34
REMARK    7  A    between atoms: C_23  and  O_33
REMARK    8  A    between atoms: C_25  and  O_32
REMARK    9  A    between atoms: C_27  and  C_30
REMARK   10  A    between atoms: C_30  and  O_31
REMARK                            x       y       z     vdW  Elec       q    Type
REMARK                         _______ _______ _______ _____ _____    ______ ____
ROOT
ATOM      1  C   UNL     1       0.981   3.581   0.012  0.00  0.00    +0.237 C 
ENDROOT
BRANCH   1  14
ATOM      2  C   UNL     1       1.281  -2.076  -0.022  0.00  0.00    +0.145 A 
ATOM      3  C   UNL     1       0.083  -2.791  -0.015  0.00  0.00    +0.063 A 
ATOM      4  C   UNL     1      -0.254  -4.221  -0.020  0.00  0.00    +0.053 A 
ATOM      5  C   UNL     1      -1.591  -4.289  -0.009  0.00  0.00    +0.196 A 
ATOM      6  O   UNL     1      -2.119  -3.052   0.004  0.00  0.00    -0.463 OA
ATOM      7  C   UNL     1      -1.150  -2.114   0.001  0.00  0.00    +0.142 A 
ATOM      8  C   UNL     1      -1.179  -0.725   0.009  0.00  0.00    +0.094 A 
ATOM      9  C   UNL     1       0.002  -0.004   0.002  0.00  0.00    +0.146 A 
ATOM     10  C   UNL     1       1.239  -0.681  -0.013  0.00  0.00    +0.106 A 
ATOM     11  C   UNL     1       2.474   0.121  -0.021  0.00  0.00    +0.196 A 
ATOM     12  O   UNL     1       3.574  -0.407  -0.034  0.00  0.00    -0.287 OA
ATOM     13  C   UNL     1       2.332   1.535  -0.012  0.00  0.00    +0.095 A 
ATOM     14  C   UNL     1       1.103   2.079   0.003  0.00  0.00    +0.135 A 
ATOM     15  O   UNL     1      -0.016   1.347   0.009  0.00  0.00    -0.457 OA
BRANCH   2  17
ATOM     16  C   UNL     1       3.052  -3.047   1.229  0.00  0.00    +0.277 C 
ATOM     17  O   UNL     1       2.470  -2.728  -0.037  0.00  0.00    -0.494 OA
ENDBRANCH   2  17
ENDBRANCH   1  14
BRANCH   1  18
ATOM     18  O   UNL     1       0.929   4.063  -1.332  0.00  0.00    -0.341 OA
BRANCH  18  19
ATOM     19  C   UNL     1       0.812   5.484  -1.437  0.00  0.00    +0.282 C 
ATOM     20  C   UNL     1       0.890   5.896  -2.909  0.00  0.00    +0.201 C 
ATOM     21  C   UNL     1       0.704   7.412  -3.017  0.00  0.00    +0.179 C 
ATOM     22  C   UNL     1      -0.632   7.799  -2.375  0.00  0.00    +0.177 C 
ATOM     23  C   UNL     1      -0.651   7.313  -0.923  0.00  0.00    +0.178 C 
ATOM     24  O   UNL     1      -0.442   5.900  -0.892  0.00  0.00    -0.341 OA
BRANCH  22  25
ATOM     25  O   UNL     1      -0.783   9.219  -2.405  0.00  0.00    -0.386 OA
ATOM     26  H   UNL     1      -0.780   9.596  -3.296  0.00  0.00    +0.210 HD
ENDBRANCH  22  25
BRANCH  21  27
ATOM     27  O   UNL     1       0.702   7.797  -4.393  0.00  0.00    -0.386 OA
ATOM     28  H   UNL     1       1.519   7.582  -4.863  0.00  0.00    +0.210 HD
ENDBRANCH  21  27
BRANCH  20  29
ATOM     29  O   UNL     1       2.166   5.532  -3.440  0.00  0.00    -0.384 OA
ATOM     30  H   UNL     1       2.353   4.584  -3.399  0.00  0.00    +0.210 HD
ENDBRANCH  20  29
BRANCH  23  31
ATOM     31  C   UNL     1      -2.006   7.642  -0.293  0.00  0.00    +0.190 C 
BRANCH  31  32
ATOM     32  O   UNL     1      -1.984   7.294   1.093  0.00  0.00    -0.392 OA
ATOM     33  H   UNL     1      -2.812   7.476   1.558  0.00  0.00    +0.210 HD
ENDBRANCH  31  32
ENDBRANCH  23  31
ENDBRANCH  18  19
ENDBRANCH   1  18
TORSDOF 9
