REMARK  Name = ZINC11341460
REMARK  6 active torsions:
REMARK  status: ('A' for Active; 'I' for Inactive)
REMARK    1  A    between atoms: C_1  and  C_2
REMARK    2  A    between atoms: C_5  and  N_8
REMARK    3  A    between atoms: C_9  and  C_11
REMARK    4  A    between atoms: C_11  and  O_12
REMARK    5  A    between atoms: O_12  and  C_13
REMARK    6  A    between atoms: C_13  and  C_15
REMARK                            x       y       z     vdW  Elec       q    Type
REMARK                         _______ _______ _______ _____ _____    ______ ____
ROOT
ATOM      1  O   UNL     1       0.417  -6.833   2.462  0.00  0.00    -0.452 OA
ENDROOT
BRANCH   1   2
ATOM      2  C   UNL     1       0.544  -8.165   2.624  0.00  0.00    +0.347 C 
ATOM      3  O   UNL     1       0.562  -8.896   1.653  0.00  0.00    -0.245 OA
BRANCH   2   4
ATOM      4  C   UNL     1       0.660  -8.734   3.975  0.00  0.00    +0.144 A 
ATOM      5  C   UNL     1       0.798 -10.102   4.174  0.00  0.00    +0.033 A 
ATOM      6  C   UNL     1       0.872 -10.578   5.508  0.00  0.00    +0.018 A 
ATOM      7  C   UNL     1       1.210 -11.915   5.768  0.00  0.00    +0.011 A 
ATOM      8  C   UNL     1       1.318 -12.347   7.059  0.00  0.00    +0.001 A 
ATOM      9  C   UNL     1       1.089 -11.478   8.117  0.00  0.00    +0.004 A 
ATOM     10  C   UNL     1       0.736 -10.165   7.883  0.00  0.00    +0.047 A 
ATOM     11  C   UNL     1       0.613  -9.704   6.580  0.00  0.00    +0.139 A 
ATOM     12  O   UNL     1       0.225  -8.429   6.338  0.00  0.00    -0.422 OA
ATOM     13  C   UNL     1       0.641  -7.874   5.173  0.00  0.00    +0.351 A 
ATOM     14  O   UNL     1       0.984  -6.708   5.116  0.00  0.00    -0.244 OA
ENDBRANCH   2   4
ENDBRANCH   1   2
BRANCH   1  15
ATOM     15  C   UNL     1       0.309  -6.349   1.121  0.00  0.00    +0.328 C 
BRANCH  15  17
ATOM     16  N   UNL     1       0.059  -4.170  -0.021  0.00  0.00    -0.283 N 
ATOM     17  C   UNL     1       0.175  -4.848   1.138  0.00  0.00    +0.255 C 
ATOM     18  O   UNL     1       0.173  -4.251   2.193  0.00  0.00    -0.272 OA
ATOM     19  H   UNL     1      -0.017  -4.651  -0.860  0.00  0.00    +0.155 HD
BRANCH  16  24
ATOM     20  C   UNL     1       0.008   1.503   0.007  0.00  0.00    +0.044 C 
ATOM     21  C   UNL     1       0.022  -0.004  -0.001  0.00  0.00    -0.050 A 
ATOM     22  C   UNL     1       0.777  -0.692   0.931  0.00  0.00    +0.005 A 
ATOM     23  C   UNL     1       0.791  -2.073   0.927  0.00  0.00    +0.023 A 
ATOM     24  C   UNL     1       0.046  -2.771  -0.014  0.00  0.00    +0.034 A 
ATOM     25  C   UNL     1      -0.712  -2.077  -0.948  0.00  0.00    +0.023 A 
ATOM     26  C   UNL     1      -0.726  -0.696  -0.936  0.00  0.00    +0.005 A 
ENDBRANCH  16  24
ENDBRANCH  15  17
ENDBRANCH   1  15
TORSDOF 5
