REMARK  Name = ZINC21866487
REMARK  7 active torsions:
REMARK  status: ('A' for Active; 'I' for Inactive)
REMARK    1  A    between atoms: C_1  and  C_2
REMARK    2  A    between atoms: C_5  and  N_8
REMARK    3  A    between atoms: C_12  and  N_32
REMARK    4  A    between atoms: C_21  and  C_22
REMARK    5  A    between atoms: C_21  and  C_23
REMARK    6  A    between atoms: N_25  and  C_26
REMARK    7  A    between atoms: C_33  and  C_35
REMARK                            x       y       z     vdW  Elec       q    Type
REMARK                         _______ _______ _______ _____ _____    ______ ____
ROOT
ATOM      1  N   UNL     1      -1.920   0.344  -2.009  0.00  0.00    -0.278 N 
ATOM      2  C   UNL     1      -1.853   1.571  -2.576  0.00  0.00    +0.266 C 
ATOM      3  O   UNL     1      -1.876   2.588  -1.907  0.00  0.00    -0.268 OA
ATOM      4  C   UNL     1      -1.748   1.614  -4.037  0.00  0.00    +0.127 A 
ATOM      5  C   UNL     1      -1.470   2.668  -4.864  0.00  0.00    +0.072 A 
ATOM      6  C   UNL     1      -1.469   2.136  -6.219  0.00  0.00    +0.025 A 
ATOM      7  C   UNL     1      -1.242   2.746  -7.459  0.00  0.00    +0.050 A 
ATOM      8  C   UNL     1      -1.311   1.932  -8.576  0.00  0.00    +0.124 A 
ATOM      9  C   UNL     1      -1.591   0.576  -8.477  0.00  0.00    +0.040 A 
ATOM     10  C   UNL     1      -1.819  -0.045  -7.264  0.00  0.00    +0.029 A 
ATOM     11  C   UNL     1      -1.758   0.750  -6.117  0.00  0.00    +0.052 A 
ATOM     12  N   UNL     1      -1.933   0.454  -4.804  0.00  0.00    -0.332 N 
ATOM     13  C   UNL     1      -2.269  -0.829  -4.171  0.00  0.00    +0.157 C 
ATOM     14  C   UNL     1      -1.660  -0.872  -2.770  0.00  0.00    +0.129 C 
ATOM     15  C   UNL     1      -0.148  -1.064  -2.894  0.00  0.00    +0.043 C 
ATOM     16  F   UNL     1      -1.101   2.473  -9.796  0.00  0.00    -0.205 F 
ENDROOT
BRANCH   1  21
ATOM     17  C   UNL     1      -6.090   2.103  -1.385  0.00  0.00    +0.007 C 
ATOM     18  C   UNL     1      -4.938   1.442  -0.626  0.00  0.00    -0.014 C 
ATOM     19  C   UNL     1      -4.684   0.046  -1.198  0.00  0.00    +0.005 C 
ATOM     20  C   UNL     1      -3.532  -0.615  -0.440  0.00  0.00    +0.023 C 
ATOM     21  C   UNL     1      -2.269   0.235  -0.590  0.00  0.00    +0.078 C 
ATOM     22  C   UNL     1      -2.522   1.631  -0.018  0.00  0.00    +0.023 C 
ATOM     23  C   UNL     1      -3.674   2.292  -0.777  0.00  0.00    +0.005 C 
ENDBRANCH   1  21
BRANCH   5  24
ATOM     24  N   UNL     1      -1.236   3.987  -4.486  0.00  0.00    -0.283 N 
ATOM     25  C   UNL     1      -1.812   4.997  -5.168  0.00  0.00    +0.214 C 
ATOM     26  O   UNL     1      -2.449   4.764  -6.173  0.00  0.00    -0.276 OA
ATOM     27  C   UNL     1      -1.665   6.415  -4.681  0.00  0.00    +0.109 C 
ATOM     28  H   UNL     1      -0.580   4.205  -3.629  0.00  0.00    +0.155 HD
ENDBRANCH   5  24
BRANCH  14  29
ATOM     29  C   UNL     1      -2.239  -2.046  -2.024  0.00  0.00    +0.238 C 
ATOM     30  O   UNL     1      -1.651  -2.507  -1.069  0.00  0.00    -0.273 OA
ATOM     31  N   UNL     1      -3.410  -2.585  -2.418  0.00  0.00    -0.311 N 
ATOM     32  H   UNL     1      -3.925  -2.191  -3.307  0.00  0.00    +0.149 HD
BRANCH  31  33
ATOM     33  C   UNL     1      -3.997  -3.694  -1.663  0.00  0.00    +0.073 C 
ATOM     34  C   UNL     1      -3.438  -5.037  -2.176  0.00  0.00    +0.022 C 
ATOM     35  C   UNL     1      -4.646  -6.005  -2.101  0.00  0.00    +0.002 C 
ATOM     36  C   UNL     1      -5.832  -5.104  -2.528  0.00  0.00    +0.002 C 
ATOM     37  C   UNL     1      -5.519  -3.737  -1.886  0.00  0.00    +0.022 C 
ENDBRANCH  31  33
ENDBRANCH  14  29
TORSDOF 4
