REMARK  Name = ZINC64870102
REMARK  6 active torsions:
REMARK  status: ('A' for Active; 'I' for Inactive)
REMARK    1  A    between atoms: C_1  and  C_2
REMARK    2  A    between atoms: C_6  and  C_8
REMARK    3  A    between atoms: C_11  and  C_15
REMARK    4  A    between atoms: N_25  and  C_28
REMARK    5  A    between atoms: C_31  and  O_34
REMARK    6  A    between atoms: O_34  and  C_35
REMARK                            x       y       z     vdW  Elec       q    Type
REMARK                         _______ _______ _______ _____ _____    ______ ____
ROOT
ATOM      1  C   UNL     1      -2.262  -5.649   3.372  0.00  0.00    -0.000 A 
ATOM      2  C   UNL     1      -1.503  -6.718   2.921  0.00  0.00    +0.008 A 
ATOM      3  C   UNL     1      -1.702  -7.982   3.436  0.00  0.00    +0.016 A 
ATOM      4  C   UNL     1      -2.673  -8.179   4.415  0.00  0.00    +0.063 A 
ATOM      5  C   UNL     1      -3.442  -7.094   4.872  0.00  0.00    +0.056 A 
ATOM      6  C   UNL     1      -3.224  -5.830   4.346  0.00  0.00    +0.034 A 
ATOM      7  N   UNL     1      -4.401  -7.320   5.848  0.00  0.00    -0.307 N 
ATOM      8  H   UNL     1      -4.940  -6.581   6.172  0.00  0.00    +0.170 HD
ATOM      9  C   UNL     1      -4.593  -8.553   6.348  0.00  0.00    +0.334 A 
ATOM     10  O   UNL     1      -5.444  -8.709   7.202  0.00  0.00    -0.246 OA
ATOM     11  N   UNL     1      -3.885  -9.620   5.944  0.00  0.00    -0.229 N 
ATOM     12  C   UNL     1      -2.926  -9.508   4.999  0.00  0.00    +0.269 A 
ATOM     13  O   UNL     1      -2.289 -10.479   4.639  0.00  0.00    -0.266 OA
ENDROOT
BRANCH   1  16
ATOM     14  C   UNL     1      -0.570  -3.296   1.213  0.00  0.00    +0.180 C 
ATOM     15  N   UNL     1      -1.567  -4.373   1.396  0.00  0.00    -0.265 NA
ATOM     16  C   UNL     1      -2.030  -4.275   2.798  0.00  0.00    +0.242 C 
ATOM     17  O   UNL     1      -0.953  -3.610   3.497  0.00  0.00    -0.274 OA
ATOM     18  N   UNL     1      -0.479  -2.603   2.520  0.00  0.00    -0.177 NA
ATOM     19  H   UNL     1      -2.336  -4.267   0.752  0.00  0.00    +0.127 HD
ATOM     20  H   UNL     1      -1.064  -1.781   2.535  0.00  0.00    +0.156 HD
BRANCH  14  26
ATOM     21  C   UNL     1      -0.722   1.334  -0.679  0.00  0.00    +0.044 C 
ATOM     22  C   UNL     1      -1.105  -0.121  -0.758  0.00  0.00    -0.050 A 
ATOM     23  C   UNL     1      -1.880  -0.576  -1.809  0.00  0.00    +0.003 A 
ATOM     24  C   UNL     1      -2.231  -1.911  -1.881  0.00  0.00    +0.001 A 
ATOM     25  C   UNL     1      -1.807  -2.791  -0.903  0.00  0.00    +0.006 A 
ATOM     26  C   UNL     1      -1.032  -2.336   0.147  0.00  0.00    -0.014 A 
ATOM     27  C   UNL     1      -0.677  -1.002   0.217  0.00  0.00    +0.010 A 
ENDBRANCH  14  26
ENDBRANCH   1  16
BRANCH  11  28
ATOM     28  C   UNL     1      -4.145 -10.874   6.515  0.00  0.00    +0.055 A 
ATOM     29  C   UNL     1      -5.088 -11.716   5.942  0.00  0.00    +0.030 A 
ATOM     30  C   UNL     1      -5.344 -12.951   6.505  0.00  0.00    +0.047 A 
ATOM     31  C   UNL     1      -4.658 -13.350   7.643  0.00  0.00    +0.120 A 
ATOM     32  C   UNL     1      -3.715 -12.509   8.216  0.00  0.00    +0.047 A 
ATOM     33  C   UNL     1      -3.454 -11.277   7.651  0.00  0.00    +0.030 A 
BRANCH  31  34
ATOM     34  O   UNL     1      -4.910 -14.566   8.197  0.00  0.00    -0.495 OA
ATOM     35  C   UNL     1      -4.167 -14.912   9.367  0.00  0.00    +0.277 C 
ENDBRANCH  31  34
ENDBRANCH  11  28
TORSDOF 4
