REMARK  Name = ZINC09762730
REMARK  16 active torsions:
REMARK  status: ('A' for Active; 'I' for Inactive)
REMARK    1  A    between atoms: C_1  and  C_2
REMARK    2  A    between atoms: C_2  and  O_3
REMARK    3  A    between atoms: O_3  and  C_4
REMARK    4  A    between atoms: C_4  and  C_6
REMARK    5  A    between atoms: C_7  and  C_30
REMARK    6  A    between atoms: C_8  and  C_19
REMARK    7  A    between atoms: C_10  and  N_11
REMARK    8  A    between atoms: C_12  and  C_14
REMARK    9  A    between atoms: C_14  and  N_61
REMARK   10  A    between atoms: C_15  and  C_16
REMARK   11  A    between atoms: C_15  and  C_17
REMARK   12  A    between atoms: C_15  and  C_18
REMARK   13  A    between atoms: C_15  and  N_61
REMARK   14  A    between atoms: N_21  and  C_22
REMARK   15  A    between atoms: C_25  and  C_29
REMARK   16  A    between atoms: C_27  and  C_28
REMARK                            x       y       z     vdW  Elec       q    Type
REMARK                         _______ _______ _______ _____ _____    ______ ____
ROOT
ATOM      1  C   UNL     1      -0.571   1.438   4.941  0.00  0.00    +0.091 A 
ATOM      2  C   UNL     1      -1.379   2.009   5.913  0.00  0.00    -0.015 A 
ATOM      3  C   UNL     1      -2.450   2.750   5.495  0.00  0.00    +0.080 A 
ATOM      4  S   UNL     1      -2.324   2.656   3.720  0.00  0.00    -0.068 S 
ATOM      5  C   UNL     1      -0.909   1.662   3.601  0.00  0.00    +0.087 A 
ATOM      6  C   UNL     1      -1.086   1.818   7.379  0.00  0.00    +0.046 C 
ENDROOT
BRANCH   5   7
ATOM      7  N   UNL     1      -0.269   1.207   2.465  0.00  0.00    -0.281 N 
ATOM      8  C   UNL     1      -0.748   1.530   1.247  0.00  0.00    +0.201 C 
ATOM      9  O   UNL     1      -1.741   2.219   1.149  0.00  0.00    -0.278 OA
ATOM     10  H   UNL     1       0.525   0.656   2.543  0.00  0.00    +0.155 HD
BRANCH   8  11
ATOM     11  C   UNL     1      -0.050   1.034   0.007  0.00  0.00    +0.016 C 
BRANCH  11  12
ATOM     12  N   UNL     1      -0.771   1.525  -1.182  0.00  0.00    +0.388 N 
ATOM     13  H   UNL     1      -0.779   2.552  -1.174  0.00  0.00    -0.084 HD
ATOM     14  H   UNL     1      -1.736   1.175  -1.162  0.00  0.00    -0.084 HD
BRANCH  12  15
ATOM     15  C   UNL     1      -0.108   1.054  -2.413  0.00  0.00    -0.076 C 
ATOM     16  C   UNL     1      -0.096  -0.476  -2.438  0.00  0.00    -0.011 C 
ATOM     17  C   UNL     1      -0.877   1.577  -3.628  0.00  0.00    -0.011 C 
ATOM     18  C   UNL     1       1.329   1.576  -2.455  0.00  0.00    -0.011 C 
ENDBRANCH  12  15
ENDBRANCH  11  12
ENDBRANCH   8  11
ENDBRANCH   5   7
BRANCH   3  19
ATOM     19  C   UNL     1      -3.448   3.451   6.305  0.00  0.00    +0.255 C 
ATOM     20  O   UNL     1      -3.381   3.415   7.520  0.00  0.00    -0.269 OA
ATOM     21  N   UNL     1      -4.441   4.137   5.706  0.00  0.00    -0.281 N 
ATOM     22  H   UNL     1      -4.450   4.233   4.740  0.00  0.00    +0.155 HD
BRANCH  21  23
ATOM     23  C   UNL     1      -5.459   4.710   6.475  0.00  0.00    +0.037 A 
ATOM     24  C   UNL     1      -5.765   4.186   7.725  0.00  0.00    +0.024 A 
ATOM     25  C   UNL     1      -6.771   4.754   8.482  0.00  0.00    +0.005 A 
ATOM     26  C   UNL     1      -7.473   5.843   7.997  0.00  0.00    -0.050 A 
ATOM     27  C   UNL     1      -7.171   6.366   6.753  0.00  0.00    +0.008 A 
ATOM     28  C   UNL     1      -6.162   5.806   5.993  0.00  0.00    -0.029 A 
ATOM     29  C   UNL     1      -5.829   6.381   4.641  0.00  0.00    +0.045 C 
ATOM     30  C   UNL     1      -8.570   6.460   8.826  0.00  0.00    +0.044 C 
ENDBRANCH  21  23
ENDBRANCH   3  19
BRANCH   1  31
ATOM     31  C   UNL     1       0.597   0.628   5.303  0.00  0.00    +0.342 C 
ATOM     32  O   UNL     1       1.683   1.157   5.446  0.00  0.00    -0.245 OA
BRANCH  31  33
ATOM     33  O   UNL     1       0.467  -0.702   5.478  0.00  0.00    -0.461 OA
BRANCH  33  35
ATOM     34  C   UNL     1       1.323  -2.924   5.990  0.00  0.00    +0.048 C 
ATOM     35  C   UNL     1       1.665  -1.440   5.836  0.00  0.00    +0.229 C 
ENDBRANCH  33  35
ENDBRANCH  31  33
ENDBRANCH   1  31
TORSDOF 9
