REMARK  Name = ZINC45048947
REMARK  2 active torsions:
REMARK  status: ('A' for Active; 'I' for Inactive)
REMARK    1  A    between atoms: C_5  and  N_20
REMARK    2  A    between atoms: C_6  and  C_7
REMARK                            x       y       z     vdW  Elec       q    Type
REMARK                         _______ _______ _______ _____ _____    ______ ____
ROOT
ATOM      1  C   UNL     1      -1.042  -1.047   0.352  0.00  0.00    +0.172 A 
ATOM      2  N   UNL     1      -0.999  -2.362   0.424  0.00  0.00    -0.128 NA
ATOM      3  N   UNL     1      -2.184  -2.837   0.588  0.00  0.00    -0.127 NA
ATOM      4  C   UNL     1      -3.060  -1.852   0.630  0.00  0.00    +0.190 A 
ATOM      5  N   UNL     1      -2.354  -0.676   0.486  0.00  0.00    -0.264 N 
ATOM      6  C   UNL     1      -3.007   0.518   0.497  0.00  0.00    +0.209 A 
ATOM      7  N   UNL     1      -4.298   0.594   0.644  0.00  0.00    -0.216 NA
ATOM      8  C   UNL     1      -5.062  -0.514   0.795  0.00  0.00    +0.183 A 
ATOM      9  C   UNL     1      -4.459  -1.774   0.786  0.00  0.00    +0.130 A 
ATOM     10  N   UNL     1      -5.471  -2.688   0.955  0.00  0.00    -0.340 N 
ATOM     11  H   UNL     1      -5.374  -3.652   1.000  0.00  0.00    +0.167 HD
ATOM     12  C   UNL     1      -6.628  -1.992   1.046  0.00  0.00    +0.199 A 
ATOM     13  N   UNL     1      -6.383  -0.714   0.961  0.00  0.00    -0.216 NA
ENDROOT
BRANCH   1  19
ATOM     14  C   UNL     1       0.257   0.981   0.984  0.00  0.00    +0.033 A 
ATOM     15  C   UNL     1       1.337   1.823   0.808  0.00  0.00    +0.043 A 
ATOM     16  C   UNL     1       2.275   1.560  -0.176  0.00  0.00    +0.042 A 
ATOM     17  C   UNL     1       2.140   0.451  -0.992  0.00  0.00    +0.064 A 
ATOM     18  C   UNL     1       1.061  -0.405  -0.828  0.00  0.00    +0.054 A 
ATOM     19  C   UNL     1       0.110  -0.142   0.168  0.00  0.00    +0.043 A 
ATOM     20 CL   UNL     1       3.322   0.131  -2.223  0.00  0.00    -0.082 Cl
ATOM     21 CL   UNL     1       1.518   3.219   1.824  0.00  0.00    -0.083 Cl
BRANCH  18  22
ATOM     22  N   UNL     1       0.923  -1.525  -1.651  0.00  0.00    -0.356 N 
ATOM     23  H   UNL     1       1.628  -1.757  -2.275  0.00  0.00    +0.142 HD
ATOM     24  H   UNL     1       0.123  -2.070  -1.597  0.00  0.00    +0.142 HD
ENDBRANCH  18  22
ENDBRANCH   1  19
TORSDOF 2
