REMARK  Name = ZINC40537836
REMARK  2 active torsions:
REMARK  status: ('A' for Active; 'I' for Inactive)
REMARK    1  A    between atoms: C_6  and  C_7
REMARK    2  A    between atoms: C_12  and  N_16
REMARK                            x       y       z     vdW  Elec       q    Type
REMARK                         _______ _______ _______ _____ _____    ______ ____
ROOT
ATOM      1  C   UNL     1      -1.270  -0.765   0.011  0.00  0.00    +0.033 A 
ATOM      2  C   UNL     1      -2.321  -0.590   0.845  0.00  0.00    +0.207 A 
ATOM      3  O   UNL     1      -3.294  -1.469   0.546  0.00  0.00    -0.444 OA
ATOM      4  C   UNL     1      -2.939  -2.255  -0.484  0.00  0.00    +0.232 A 
ATOM      5  C   UNL     1      -1.653  -1.863  -0.890  0.00  0.00    +0.087 A 
ATOM      6  C   UNL     1      -1.050  -2.529  -1.963  0.00  0.00    +0.131 A 
ATOM      7  N   UNL     1      -1.725  -3.510  -2.558  0.00  0.00    -0.220 NA
ATOM      8  C   UNL     1      -2.934  -3.846  -2.147  0.00  0.00    +0.227 A 
ATOM      9  N   UNL     1      -3.533  -3.251  -1.138  0.00  0.00    -0.200 NA
ENDROOT
BRANCH   1  15
ATOM     10  C   UNL     1      -0.017   1.390   0.010  0.00  0.00    +0.010 A 
ATOM     11  C   UNL     1       1.170   2.094   0.002  0.00  0.00    +0.020 A 
ATOM     12  C   UNL     1       2.378   1.418  -0.013  0.00  0.00    +0.041 A 
ATOM     13  C   UNL     1       2.402   0.033  -0.021  0.00  0.00    +0.020 A 
ATOM     14  C   UNL     1       1.221  -0.680  -0.014  0.00  0.00    +0.010 A 
ATOM     15  C   UNL     1       0.002  -0.004   0.002  0.00  0.00    -0.014 A 
ATOM     16 CL   UNL     1       3.868   2.309  -0.024  0.00  0.00    -0.084 Cl
ENDBRANCH   1  15
BRANCH   6  17
ATOM     17  N   UNL     1       0.217  -2.177  -2.394  0.00  0.00    -0.342 N 
ATOM     18  H   UNL     1       0.698  -1.460  -1.952  0.00  0.00    +0.144 HD
ATOM     19  H   UNL     1       0.624  -2.647  -3.139  0.00  0.00    +0.144 HD
ENDBRANCH   6  17
TORSDOF 2
