REMARK  Name = ZINC66635502
REMARK  11 active torsions:
REMARK  status: ('A' for Active; 'I' for Inactive)
REMARK    1  A    between atoms: C_1  and  C_2
REMARK    2  A    between atoms: C_4  and  C_14
REMARK    3  A    between atoms: C_6  and  S_9
REMARK    4  A    between atoms: C_7  and  C_8
REMARK    5  A    between atoms: S_9  and  N_12
REMARK    6  A    between atoms: N_12  and  C_13
REMARK    7  A    between atoms: N_16  and  C_17
REMARK    8  A    between atoms: C_21  and  C_24
REMARK    9  A    between atoms: C_22  and  O_23
REMARK   10  A    between atoms: C_24  and  O_26
REMARK   11  A    between atoms: O_26  and  C_27
REMARK                            x       y       z     vdW  Elec       q    Type
REMARK                         _______ _______ _______ _____ _____    ______ ____
ROOT
ATOM      1  C   UNL     1       0.762  -3.402  -2.349  0.00  0.00    +0.248 C 
ATOM      2  O   UNL     1       0.692  -4.610  -2.237  0.00  0.00    -0.270 OA
ATOM      3  N   UNL     1       0.990  -2.849  -3.557  0.00  0.00    -0.279 N 
ATOM      4  H   UNL     1       1.115  -1.890  -3.636  0.00  0.00    +0.155 HD
ENDROOT
BRANCH   1   8
ATOM      5  C   UNL     1       0.609   1.148  -0.305  0.00  0.00    +0.044 C 
ATOM      6  C   UNL     1       0.522  -0.351  -0.172  0.00  0.00    -0.045 A 
ATOM      7  C   UNL     1       0.677  -1.151  -1.285  0.00  0.00    +0.016 A 
ATOM      8  C   UNL     1       0.597  -2.539  -1.161  0.00  0.00    +0.039 A 
ATOM      9  C   UNL     1       0.361  -3.108   0.092  0.00  0.00    +0.042 A 
ATOM     10  C   UNL     1       0.208  -2.297   1.197  0.00  0.00    +0.109 A 
ATOM     11  C   UNL     1       0.294  -0.922   1.067  0.00  0.00    -0.021 A 
ATOM     12  C   UNL     1       0.132  -0.042   2.280  0.00  0.00    +0.046 C 
BRANCH  10  13
ATOM     13  S   UNL     1      -0.092  -3.014   2.779  0.00  0.00    +0.058 S 
ATOM     14  O   UNL     1      -0.179  -4.418   2.579  0.00  0.00    -0.153 OA
ATOM     15  O   UNL     1       0.845  -2.429   3.673  0.00  0.00    -0.153 OA
BRANCH  13  16
ATOM     16  N   UNL     1      -1.591  -2.511   3.268  0.00  0.00    -0.193 NA
ATOM     17  C   UNL     1      -2.784  -2.940   2.534  0.00  0.00    +0.127 C 
ATOM     18  H   UNL     1      -1.681  -1.932   4.042  0.00  0.00    +0.148 HD
ENDBRANCH  13  16
ENDBRANCH  10  13
ENDBRANCH   1   8
BRANCH   3  19
ATOM     19  C   UNL     1       1.046  -3.658  -4.699  0.00  0.00    +0.076 A 
ATOM     20  C   UNL     1       0.250  -4.791  -4.785  0.00  0.00    +0.027 A 
ATOM     21  C   UNL     1       0.300  -5.595  -5.911  0.00  0.00    +0.003 A 
ATOM     22  C   UNL     1       1.141  -5.280  -6.957  0.00  0.00    +0.019 A 
ATOM     23  C   UNL     1       1.950  -4.142  -6.885  0.00  0.00    +0.102 A 
ATOM     24  C   UNL     1       1.896  -3.323  -5.750  0.00  0.00    +0.152 A 
BRANCH  24  25
ATOM     25  O   UNL     1       2.672  -2.213  -5.672  0.00  0.00    -0.504 OA
ATOM     26  H   UNL     1       3.542  -2.368  -5.279  0.00  0.00    +0.292 HD
ENDBRANCH  24  25
BRANCH  23  27
ATOM     27  C   UNL     1       2.851  -3.802  -8.001  0.00  0.00    +0.343 C 
ATOM     28  O   UNL     1       3.553  -2.812  -7.936  0.00  0.00    -0.245 OA
BRANCH  27  29
ATOM     29  O   UNL     1       2.896  -4.589  -9.094  0.00  0.00    -0.464 OA
ATOM     30  C   UNL     1       3.792  -4.200 -10.137  0.00  0.00    +0.280 C 
ENDBRANCH  27  29
ENDBRANCH  23  27
ENDBRANCH   3  19
TORSDOF 7
