REMARK  Name = ZINC12705260
REMARK  11 active torsions:
REMARK  status: ('A' for Active; 'I' for Inactive)
REMARK    1  A    between atoms: C_1  and  C_2
REMARK    2  A    between atoms: C_4  and  C_7
REMARK    3  A    between atoms: C_7  and  N_57
REMARK    4  A    between atoms: C_8  and  C_9
REMARK    5  A    between atoms: C_8  and  N_57
REMARK    6  A    between atoms: C_13  and  O_15
REMARK    7  A    between atoms: O_15  and  C_16
REMARK    8  A    between atoms: C_16  and  C_17
REMARK    9  A    between atoms: C_17  and  C_19
REMARK   10  A    between atoms: C_17  and  O_29
REMARK   11  A    between atoms: C_19  and  N_60
REMARK                            x       y       z     vdW  Elec       q    Type
REMARK                         _______ _______ _______ _____ _____    ______ ____
ROOT
ATOM      1  C   UNL     1      -1.220   1.750   0.017  0.00  0.00    -0.061 A 
ATOM      2  C   UNL     1      -0.013   1.076   0.008  0.00  0.00    +0.002 A 
ATOM      3  C   UNL     1       1.176   1.782   0.000  0.00  0.00    +0.004 A 
ATOM      4  C   UNL     1       1.160   3.164   0.007  0.00  0.00    +0.045 A 
ATOM      5  C   UNL     1      -0.050   3.842   0.023  0.00  0.00    +0.121 A 
ATOM      6  C   UNL     1      -1.242   3.131   0.031  0.00  0.00    +0.047 A 
ENDROOT
BRANCH   1   7
ATOM      7  C   UNL     1      -2.514   0.977   0.019  0.00  0.00    -0.046 C 
BRANCH   7   8
ATOM      8  N   UNL     1      -2.922   0.721   1.413  0.00  0.00    +0.386 N 
ATOM      9  H   UNL     1      -2.191   0.177   1.886  0.00  0.00    -0.085 HD
ATOM     10  H   UNL     1      -3.051   1.616   1.898  0.00  0.00    -0.085 HD
BRANCH   8  11
ATOM     11  C   UNL     1      -4.188  -0.036   1.445  0.00  0.00    -0.004 C 
BRANCH  11  15
ATOM     12  C   UNL     1      -6.136   0.275   6.137  0.00  0.00    +0.069 C 
ATOM     13  C   UNL     1      -5.406  -0.167   4.895  0.00  0.00    +0.081 A 
ATOM     14  C   UNL     1      -5.348   0.516   3.659  0.00  0.00    +0.068 A 
ATOM     15  C   UNL     1      -4.580  -0.282   2.879  0.00  0.00    +0.121 A 
ATOM     16  O   UNL     1      -4.243  -1.338   3.633  0.00  0.00    -0.361 OA
ATOM     17  N   UNL     1      -4.705  -1.254   4.747  0.00  0.00    -0.083 NA
ENDBRANCH  11  15
ENDBRANCH   8  11
ENDBRANCH   7   8
ENDBRANCH   1   7
BRANCH   5  18
ATOM     18  O   UNL     1      -0.069   5.201   0.029  0.00  0.00    -0.489 OA
BRANCH  18  19
ATOM     19  C   UNL     1       1.196   5.867   0.020  0.00  0.00    +0.258 C 
BRANCH  19  20
ATOM     20  C   UNL     1       0.975   7.381   0.029  0.00  0.00    +0.135 C 
BRANCH  20  21
ATOM     21  O   UNL     1       0.330   7.776  -1.184  0.00  0.00    -0.390 OA
ATOM     22  H   UNL     1       0.833   7.566  -1.982  0.00  0.00    +0.210 HD
ENDBRANCH  20  21
BRANCH  20  23
ATOM     23  C   UNL     1       2.324   8.092   0.145  0.00  0.00    -0.043 C 
BRANCH  23  33
ATOM     24  C   UNL     1       3.375  10.276   0.172  0.00  0.00    -0.074 C 
ATOM     25  C   UNL     1       3.061  11.755  -0.056  0.00  0.00    +0.017 C 
ATOM     26  C   UNL     1       2.063  12.232   0.967  0.00  0.00    -0.048 A 
ATOM     27  C   UNL     1       1.914  13.598   1.159  0.00  0.00    +0.004 A 
ATOM     28  C   UNL     1       1.008  14.078   2.083  0.00  0.00    +0.000 A 
ATOM     29  C   UNL     1       0.245  13.193   2.821  0.00  0.00    +0.000 A 
ATOM     30  C   UNL     1       0.393  11.834   2.633  0.00  0.00    +0.002 A 
ATOM     31  C   UNL     1       1.304  11.349   1.705  0.00  0.00    -0.061 A 
ATOM     32  C   UNL     1       1.433   9.858   1.538  0.00  0.00    -0.043 C 
ATOM     33  N   UNL     1       2.092   9.550   0.257  0.00  0.00    +0.384 N 
ATOM     34  H   UNL     1       1.484   9.852  -0.513  0.00  0.00    -0.081 HD
ENDBRANCH  23  33
ENDBRANCH  20  23
ENDBRANCH  19  20
ENDBRANCH  18  19
ENDBRANCH   5  18
TORSDOF 10
