REMARK  Name = ZINC66475737
REMARK  8 active torsions:
REMARK  status: ('A' for Active; 'I' for Inactive)
REMARK    1  A    between atoms: C_1  and  C_2
REMARK    2  A    between atoms: C_2  and  C_3
REMARK    3  A    between atoms: C_2  and  N_4
REMARK    4  A    between atoms: C_5  and  C_7
REMARK    5  A    between atoms: C_11  and  C_13
REMARK    6  A    between atoms: C_13  and  N_14
REMARK    7  A    between atoms: C_15  and  C_17
REMARK    8  A    between atoms: C_17  and  N_18
REMARK                            x       y       z     vdW  Elec       q    Type
REMARK                         _______ _______ _______ _____ _____    ______ ____
ROOT
ATOM      1  N   UNL     1       6.850  -0.503  -4.053  0.00  0.00    -0.310 N 
ATOM      2  C   UNL     1       8.189  -0.386  -4.148  0.00  0.00    +0.231 C 
ATOM      3  O   UNL     1       8.901  -1.324  -3.857  0.00  0.00    -0.274 OA
ATOM      4  H   UNL     1       6.280   0.247  -4.286  0.00  0.00    +0.149 HD
ENDROOT
BRANCH   1   5
ATOM      5  C   UNL     1       6.254  -1.762  -3.600  0.00  0.00    +0.139 C 
BRANCH   5  10
ATOM      6  C   UNL     1       2.723  -1.064  -2.431  0.00  0.00    +0.037 A 
ATOM      7  C   UNL     1       1.989  -1.395  -3.571  0.00  0.00    +0.013 A 
ATOM      8  C   UNL     1       2.640  -1.839  -4.703  0.00  0.00    +0.001 A 
ATOM      9  C   UNL     1       4.019  -1.956  -4.710  0.00  0.00    +0.005 A 
ATOM     10  C   UNL     1       4.753  -1.630  -3.583  0.00  0.00    -0.030 A 
ATOM     11  C   UNL     1       4.114  -1.179  -2.447  0.00  0.00    +0.018 A 
BRANCH   6  13
ATOM     12  N   UNL     1       0.688  -0.476  -1.203  0.00  0.00    -0.309 N 
ATOM     13  C   UNL     1       2.031  -0.587  -1.215  0.00  0.00    +0.244 C 
ATOM     14  O   UNL     1       2.673  -0.295  -0.225  0.00  0.00    -0.270 OA
ATOM     15  H   UNL     1       0.175  -0.710  -1.993  0.00  0.00    +0.149 HD
BRANCH  12  17
ATOM     16  C   UNL     1      -0.019   1.526   0.010  0.00  0.00    +0.027 C 
ATOM     17  C   UNL     1       0.002  -0.004   0.002  0.00  0.00    +0.067 C 
ATOM     18  C   UNL     1      -1.433  -0.534   0.013  0.00  0.00    +0.027 C 
ENDBRANCH  12  17
ENDBRANCH   6  13
ENDBRANCH   5  10
ENDBRANCH   1   5
BRANCH   2  19
ATOM     19  C   UNL     1       8.802   0.909  -4.615  0.00  0.00    +0.213 C 
BRANCH  19  20
ATOM     20  N   UNL     1      10.261   0.781  -4.630  0.00  0.00    -0.215 N 
ATOM     21  C   UNL     1      11.060   1.070  -3.581  0.00  0.00    +0.247 C 
ATOM     22  O   UNL     1      10.722   1.469  -2.487  0.00  0.00    -0.273 OA
ATOM     23  C   UNL     1      12.462   0.789  -4.059  0.00  0.00    +0.113 C 
ATOM     24  C   UNL     1      13.133  -0.290  -3.198  0.00  0.00    +0.035 C 
ATOM     25  C   UNL     1      14.620   0.145  -3.143  0.00  0.00    +0.003 C 
ATOM     26  C   UNL     1      14.525   1.690  -3.066  0.00  0.00    +0.003 C 
ATOM     27  C   UNL     1      13.336   2.044  -3.986  0.00  0.00    +0.035 C 
ATOM     28  N   UNL     1      12.294   0.334  -5.440  0.00  0.00    -0.285 N 
ATOM     29  C   UNL     1      10.969   0.357  -5.686  0.00  0.00    +0.310 C 
ATOM     30  O   UNL     1      10.472   0.033  -6.747  0.00  0.00    -0.252 OA
ATOM     31  H   UNL     1      12.996   0.067  -6.055  0.00  0.00    +0.151 HD
ENDBRANCH  19  20
ENDBRANCH   2  19
TORSDOF 6
