REMARK  Name = ZINC65495255
REMARK  3 active torsions:
REMARK  status: ('A' for Active; 'I' for Inactive)
REMARK    1  A    between atoms: C_1  and  C_2
REMARK    2  A    between atoms: C_4  and  C_14
REMARK    3  A    between atoms: C_17  and  C_20
REMARK                            x       y       z     vdW  Elec       q    Type
REMARK                         _______ _______ _______ _____ _____    ______ ____
ROOT
ATOM      1  C   UNL     1      -0.214   1.498   0.023  0.00  0.00    +0.070 C 
ATOM      2  C   UNL     1      -0.160  -0.008   0.012  0.00  0.00    +0.091 A 
ATOM      3  C   UNL     1      -0.169  -0.867  -1.170  0.00  0.00    +0.074 A 
ATOM      4  C   UNL     1      -0.225  -0.627  -2.557  0.00  0.00    +0.038 A 
ATOM      5  C   UNL     1      -0.214  -1.731  -3.413  0.00  0.00    -0.015 A 
ATOM      6  C   UNL     1      -0.149  -3.006  -2.880  0.00  0.00    +0.049 A 
ATOM      7  N   UNL     1      -0.097  -3.194  -1.572  0.00  0.00    -0.215 NA
ATOM      8  C   UNL     1      -0.104  -2.192  -0.708  0.00  0.00    +0.259 A 
ATOM      9  O   UNL     1      -0.061  -2.134   0.638  0.00  0.00    -0.334 OA
ATOM     10  N   UNL     1      -0.090  -0.783   1.052  0.00  0.00    -0.080 NA
ATOM     11  C   UNL     1      -0.149  -4.023  -4.004  0.00  0.00    +0.056 C 
ATOM     12  C   UNL     1      -0.662  -3.259  -5.243  0.00  0.00    +0.011 C 
ATOM     13  C   UNL     1      -0.264  -1.803  -4.923  0.00  0.00    +0.038 C 
ENDROOT
BRANCH   4  14
ATOM     14  C   UNL     1      -0.293   0.749  -3.091  0.00  0.00    +0.157 A 
ATOM     15  H   UNL     1      -0.644   0.493  -5.130  0.00  0.00    +0.191 HD
ATOM     16  N   UNL     1      -0.152   1.860  -2.395  0.00  0.00    -0.211 NA
ATOM     17  C   UNL     1      -0.274   2.912  -3.197  0.00  0.00    +0.154 A 
ATOM     18  N   UNL     1      -0.494   2.499  -4.419  0.00  0.00    -0.157 NA
ATOM     19  N   UNL     1      -0.507   1.095  -4.381  0.00  0.00    -0.259 N 
BRANCH  17  20
ATOM     20  C   UNL     1      -0.173   4.353  -2.768  0.00  0.00    +0.059 C 
ATOM     21  C   UNL     1      -0.540   5.424  -3.797  0.00  0.00    +0.012 C 
ATOM     22  C   UNL     1       0.923   5.206  -3.409  0.00  0.00    +0.012 C 
ENDBRANCH  17  20
ENDBRANCH   4  14
TORSDOF 2
