REMARK  Name = ZINC44302021
REMARK  9 active torsions:
REMARK  status: ('A' for Active; 'I' for Inactive)
REMARK    1  A    between atoms: C_1  and  C_2
REMARK    2  A    between atoms: C_2  and  C_4
REMARK    3  A    between atoms: C_2  and  N_21
REMARK    4  A    between atoms: C_4  and  N_5
REMARK    5  A    between atoms: N_8  and  C_9
REMARK    6  A    between atoms: C_13  and  O_15
REMARK    7  A    between atoms: O_15  and  C_16
REMARK    8  A    between atoms: C_16  and  C_17
REMARK    9  A    between atoms: N_19  and  C_20
REMARK                            x       y       z     vdW  Elec       q    Type
REMARK                         _______ _______ _______ _____ _____    ______ ____
ROOT
ATOM      1  N   UNL     1      -1.726  -1.781  -0.097  0.00  0.00    -0.301 N 
ATOM      2  C   UNL     1      -2.972  -2.288  -0.008  0.00  0.00    +0.304 C 
ATOM      3  O   UNL     1      -3.923  -1.544   0.129  0.00  0.00    -0.253 OA
ATOM      4  N   UNL     1      -3.163  -3.621  -0.072  0.00  0.00    -0.269 N 
ATOM      5  H   UNL     1      -0.967  -2.375  -0.207  0.00  0.00    +0.150 HD
ATOM      6  H   UNL     1      -2.400  -4.219  -0.106  0.00  0.00    +0.156 HD
ENDROOT
BRANCH   4   7
ATOM      7  C   UNL     1      -4.461  -4.142  -0.088  0.00  0.00    +0.038 A 
ATOM      8  C   UNL     1      -4.734  -5.352   0.538  0.00  0.00    +0.023 A 
ATOM      9  C   UNL     1      -6.015  -5.866   0.522  0.00  0.00    +0.005 A 
ATOM     10  C   UNL     1      -7.030  -5.179  -0.117  0.00  0.00    +0.046 A 
ATOM     11  C   UNL     1      -6.764  -3.971  -0.745  0.00  0.00    +0.123 A 
ATOM     12  C   UNL     1      -5.480  -3.448  -0.726  0.00  0.00    +0.069 A 
BRANCH  11  13
ATOM     13  O   UNL     1      -7.763  -3.297  -1.374  0.00  0.00    -0.483 OA
BRANCH  13  14
ATOM     14  C   UNL     1      -9.062  -3.891  -1.349  0.00  0.00    +0.324 C 
BRANCH  14  15
ATOM     15  C   UNL     1     -10.032  -3.008  -2.091  0.00  0.00    +0.250 C 
ATOM     16  O   UNL     1      -9.649  -1.972  -2.592  0.00  0.00    -0.272 OA
ATOM     17  N   UNL     1     -11.326  -3.370  -2.198  0.00  0.00    -0.316 N 
ATOM     18  C   UNL     1     -12.270  -2.512  -2.919  0.00  0.00    +0.128 C 
ATOM     19  H   UNL     1     -11.633  -4.199  -1.798  0.00  0.00    +0.148 HD
ENDBRANCH  14  15
ENDBRANCH  13  14
ENDBRANCH  11  13
ENDBRANCH   4   7
BRANCH   1  20
ATOM     20  C   UNL     1      -1.519  -0.332  -0.028  0.00  0.00    +0.090 C 
BRANCH  20  22
ATOM     21  C   UNL     1       0.197   1.483  -0.006  0.00  0.00    -0.012 C 
ATOM     22  C   UNL     1      -0.019  -0.031  -0.030  0.00  0.00    -0.054 C 
BRANCH  22  23
ATOM     23  N   UNL     1       0.591  -0.594  -1.242  0.00  0.00    +0.385 N 
ATOM     24  C   UNL     1       2.029  -0.285  -1.258  0.00  0.00    -0.073 C 
ATOM     25  C   UNL     1       2.697  -1.127  -2.346  0.00  0.00    +0.017 C 
ATOM     26  C   UNL     1       1.948  -0.967  -3.645  0.00  0.00    -0.048 A 
ATOM     27  C   UNL     1       2.568  -1.356  -4.822  0.00  0.00    +0.004 A 
ATOM     28  C   UNL     1       1.913  -1.228  -6.030  0.00  0.00    +0.000 A 
ATOM     29  C   UNL     1       0.632  -0.709  -6.066  0.00  0.00    +0.000 A 
ATOM     30  C   UNL     1       0.014  -0.320  -4.894  0.00  0.00    +0.002 A 
ATOM     31  C   UNL     1       0.672  -0.447  -3.680  0.00  0.00    -0.061 A 
ATOM     32  C   UNL     1      -0.036  -0.002  -2.428  0.00  0.00    -0.042 C 
ATOM     33  H   UNL     1       0.459  -1.594  -1.254  0.00  0.00    -0.081 HD
ENDBRANCH  22  23
ENDBRANCH  20  22
ENDBRANCH   1  20
TORSDOF 7
