REMARK  Name = ZINC11737030
REMARK  11 active torsions:
REMARK  status: ('A' for Active; 'I' for Inactive)
REMARK    1  A    between atoms: C_1  and  C_2
REMARK    2  A    between atoms: C_2  and  C_3
REMARK    3  A    between atoms: C_2  and  C_4
REMARK    4  A    between atoms: C_2  and  N_5
REMARK    5  A    between atoms: N_5  and  S_6
REMARK    6  A    between atoms: S_6  and  C_9
REMARK    7  A    between atoms: C_11  and  O_18
REMARK    8  A    between atoms: C_13  and  N_17
REMARK    9  A    between atoms: C_14  and  O_15
REMARK   10  A    between atoms: O_15  and  C_16
REMARK   11  A    between atoms: O_18  and  C_19
REMARK                            x       y       z     vdW  Elec       q    Type
REMARK                         _______ _______ _______ _____ _____    ______ ____
ROOT
ATOM      1  C   UNL     1       2.760  -0.779  -0.390  0.00  0.00    +0.152 A 
ATOM      2  C   UNL     1       2.562   0.525  -0.806  0.00  0.00    +0.078 A 
ATOM      3  C   UNL     1       1.289   0.965  -1.137  0.00  0.00    +0.124 A 
ATOM      4  C   UNL     1       0.211   0.097  -1.052  0.00  0.00    +0.072 A 
ATOM      5  C   UNL     1       0.407  -1.211  -0.636  0.00  0.00    +0.072 A 
ATOM      6  C   UNL     1       1.687  -1.650  -0.304  0.00  0.00    +0.167 A 
ENDROOT
BRANCH   1   7
ATOM      7  S   UNL     1       4.379  -1.333   0.029  0.00  0.00    +0.063 S 
ATOM      8  O   UNL     1       4.600  -2.532  -0.701  0.00  0.00    -0.153 OA
ATOM      9  O   UNL     1       5.235  -0.205  -0.081  0.00  0.00    -0.153 OA
BRANCH   7  10
ATOM     10  N   UNL     1       4.353  -1.753   1.631  0.00  0.00    -0.185 NA
ATOM     11  H   UNL     1       4.471  -2.680   1.891  0.00  0.00    +0.149 HD
BRANCH  10  13
ATOM     12  C   UNL     1       2.777  -0.079   2.466  0.00  0.00    +0.029 C 
ATOM     13  C   UNL     1       4.151  -0.725   2.655  0.00  0.00    +0.032 C 
ATOM     14  C   UNL     1       4.227  -1.365   4.042  0.00  0.00    +0.029 C 
ATOM     15  C   UNL     1       5.239   0.343   2.526  0.00  0.00    +0.029 C 
ENDBRANCH  10  13
ENDBRANCH   7  10
ENDBRANCH   1   7
BRANCH   5  16
ATOM     16  N   UNL     1      -0.679  -2.090  -0.549  0.00  0.00    -0.355 N 
ATOM     17  H   UNL     1      -1.570  -1.784  -0.781  0.00  0.00    +0.142 HD
ATOM     18  H   UNL     1      -0.541  -3.004  -0.258  0.00  0.00    +0.142 HD
ENDBRANCH   5  16
BRANCH   6  19
ATOM     19  O   UNL     1       1.882  -2.933   0.106  0.00  0.00    -0.491 OA
ATOM     20  C   UNL     1       2.167  -3.901  -0.906  0.00  0.00    +0.277 C 
ENDBRANCH   6  19
BRANCH   3  21
ATOM     21  O   UNL     1       1.098   2.247  -1.546  0.00  0.00    -0.495 OA
ATOM     22  C   UNL     1      -0.239   2.632  -1.872  0.00  0.00    +0.277 C 
ENDBRANCH   3  21
TORSDOF 6
