REMARK  Name = ZINC61769641
REMARK  8 active torsions:
REMARK  status: ('A' for Active; 'I' for Inactive)
REMARK    1  A    between atoms: C_1  and  C_2
REMARK    2  A    between atoms: C_2  and  C_3
REMARK    3  A    between atoms: C_2  and  C_4
REMARK    4  A    between atoms: C_2  and  N_5
REMARK    5  A    between atoms: N_12  and  C_13
REMARK    6  A    between atoms: N_12  and  C_16
REMARK    7  A    between atoms: C_13  and  C_14
REMARK    8  A    between atoms: C_14  and  O_15
REMARK                            x       y       z     vdW  Elec       q    Type
REMARK                         _______ _______ _______ _____ _____    ______ ____
ROOT
ATOM      1  N   UNL     1       0.962  -1.006  -0.870  0.00  0.00    -0.306 N 
ATOM      2  C   UNL     1       0.284  -1.773  -1.772  0.00  0.00    +0.109 A 
ATOM      3  C   UNL     1       0.805  -2.034  -2.989  0.00  0.00    +0.131 A 
ATOM      4  N   UNL     1       1.994  -1.558  -3.360  0.00  0.00    -0.234 NA
ATOM      5  C   UNL     1       2.705  -0.812  -2.542  0.00  0.00    +0.187 A 
ATOM      6  C   UNL     1       2.169  -0.502  -1.211  0.00  0.00    +0.292 A 
ATOM      7  O   UNL     1       2.799   0.191  -0.430  0.00  0.00    -0.264 OA
ATOM      8  N   UNL     1       3.943  -0.320  -2.934  0.00  0.00    -0.306 N 
ENDROOT
BRANCH   8   9
ATOM      9  C   UNL     1       4.519  -0.727  -4.218  0.00  0.00    +0.075 C 
ATOM     10  C   UNL     1       3.550  -0.379  -5.366  0.00  0.00    +0.022 C 
ATOM     11  C   UNL     1       3.698  -1.560  -6.358  0.00  0.00    +0.002 C 
ATOM     12  C   UNL     1       3.849  -2.780  -5.417  0.00  0.00    +0.002 C 
ATOM     13  C   UNL     1       4.709  -2.254  -4.250  0.00  0.00    +0.022 C 
ENDBRANCH   8   9
BRANCH   1  15
ATOM     14  C   UNL     1       0.211   0.781   0.620  0.00  0.00    +0.034 C 
ATOM     15  C   UNL     1       0.387  -0.729   0.448  0.00  0.00    +0.040 C 
ATOM     16  C   UNL     1       1.324  -1.260   1.535  0.00  0.00    +0.034 C 
ATOM     17  C   UNL     1      -0.974  -1.417   0.567  0.00  0.00    +0.034 C 
ENDBRANCH   1  15
BRANCH   8  18
ATOM     18  C   UNL     1       4.672   0.606  -2.064  0.00  0.00    +0.134 C 
BRANCH  18  19
ATOM     19  C   UNL     1       5.465  -0.188  -1.024  0.00  0.00    +0.174 C 
BRANCH  19  20
ATOM     20  O   UNL     1       6.471  -0.962  -1.681  0.00  0.00    -0.393 OA
ATOM     21  H   UNL     1       7.013  -1.492  -1.081  0.00  0.00    +0.209 HD
ENDBRANCH  19  20
ENDBRANCH  18  19
ENDBRANCH   8  18
TORSDOF 5
