REMARK  Name = ZINC59645665
REMARK  8 active torsions:
REMARK  status: ('A' for Active; 'I' for Inactive)
REMARK    1  A    between atoms: C_1  and  C_2
REMARK    2  A    between atoms: C_4  and  C_19
REMARK    3  A    between atoms: C_5  and  C_18
REMARK    4  A    between atoms: N_6  and  C_7
REMARK    5  A    between atoms: C_8  and  C_16
REMARK    6  A    between atoms: N_20  and  N_21
REMARK    7  A    between atoms: C_22  and  C_24
REMARK    8  A    between atoms: C_24  and  C_25
REMARK                            x       y       z     vdW  Elec       q    Type
REMARK                         _______ _______ _______ _____ _____    ______ ____
ROOT
ATOM      1  C   UNL     1       0.231   1.495  -0.010  0.00  0.00    +0.064 C 
ATOM      2  C   UNL     1       0.112  -0.008  -0.007  0.00  0.00    +0.022 A 
ATOM      3  C   UNL     1      -0.014  -0.785  -1.098  0.00  0.00    +0.032 A 
ATOM      4  C   UNL     1      -0.095  -2.169  -0.620  0.00  0.00    +0.016 A 
ATOM      5  C   UNL     1      -0.010  -2.110   0.742  0.00  0.00    +0.030 A 
ATOM      6  N   UNL     1       0.120  -0.803   1.104  0.00  0.00    -0.310 N 
ATOM      7  C   UNL     1      -0.048  -3.287   1.681  0.00  0.00    +0.064 C 
ENDROOT
BRANCH   6   8
ATOM      8  C   UNL     1       0.241  -0.346   2.413  0.00  0.00    +0.103 A 
ATOM      9  C   UNL     1       1.179  -0.718   3.361  0.00  0.00    +0.086 A 
ATOM     10  C   UNL     1       1.090  -0.090   4.666  0.00  0.00    -0.018 A 
ATOM     11  C   UNL     1       0.077   0.797   4.784  0.00  0.00    -0.004 A 
ATOM     12  S   UNL     1      -0.713   0.788   3.202  0.00  0.00    -0.074 S 
ATOM     13  C   UNL     1      -0.277   1.602   5.996  0.00  0.00    +0.043 C 
ATOM     14  C   UNL     1       0.449   0.996   7.206  0.00  0.00    +0.005 C 
ATOM     15  C   UNL     1       1.918   0.768   6.840  0.00  0.00    +0.005 C 
ATOM     16  C   UNL     1       2.032  -0.373   5.827  0.00  0.00    +0.037 C 
BRANCH   9  17
ATOM     17  C   UNL     1       2.194  -1.683   3.066  0.00  0.00    +0.102 C 
ATOM     18  N   UNL     1       3.000  -2.449   2.832  0.00  0.00    -0.191 NA
ENDBRANCH   9  17
ENDBRANCH   6   8
BRANCH   4  19
ATOM     19  C   UNL     1      -0.240  -3.382  -1.445  0.00  0.00    +0.140 C 
ATOM     20  N   UNL     1      -0.299  -4.548  -0.878  0.00  0.00    -0.188 NA
BRANCH  20  21
ATOM     21  N   UNL     1      -0.437  -5.701  -1.662  0.00  0.00    -0.207 N 
ATOM     22  C   UNL     1      -0.498  -6.912  -1.074  0.00  0.00    +0.238 C 
ATOM     23  O   UNL     1      -0.434  -7.004   0.134  0.00  0.00    -0.274 OA
ATOM     24  H   UNL     1      -0.489  -5.628  -2.628  0.00  0.00    +0.177 HD
BRANCH  22  25
ATOM     25  C   UNL     1      -0.647  -8.153  -1.918  0.00  0.00    +0.153 C 
BRANCH  25  26
ATOM     26  C   UNL     1      -0.690  -9.365  -1.024  0.00  0.00    +0.059 A 
ATOM     27  C   UNL     1      -1.712 -10.252  -1.085  0.00  0.00    +0.072 A 
ATOM     28  S   UNL     1      -1.212 -11.423   0.167  0.00  0.00    -0.061 S 
ATOM     29  C   UNL     1       0.222 -10.673   0.629  0.00  0.00    +0.156 A 
ATOM     30  N   UNL     1       0.270  -9.614  -0.151  0.00  0.00    -0.230 NA
ATOM     31  N   UNL     1       1.133 -11.075   1.593  0.00  0.00    -0.338 N 
ATOM     32  H   UNL     1       0.977 -11.888   2.099  0.00  0.00    +0.144 HD
ATOM     33  H   UNL     1       1.927 -10.544   1.761  0.00  0.00    +0.144 HD
ENDBRANCH  25  26
ENDBRANCH  22  25
ENDBRANCH  20  21
ENDBRANCH   4  19
TORSDOF 6
