REMARK  Name = ZINC49365285
REMARK  11 active torsions:
REMARK  status: ('A' for Active; 'I' for Inactive)
REMARK    1  A    between atoms: C_1  and  C_2
REMARK    2  A    between atoms: C_5  and  S_12
REMARK    3  A    between atoms: C_6  and  C_8
REMARK    4  A    between atoms: C_9  and  C_10
REMARK    5  A    between atoms: C_10  and  N_11
REMARK    6  A    between atoms: S_12  and  N_15
REMARK    7  A    between atoms: N_15  and  C_16
REMARK    8  A    between atoms: C_16  and  C_18
REMARK    9  A    between atoms: C_16  and  C_19
REMARK   10  A    between atoms: C_19  and  O_21
REMARK   11  A    between atoms: O_21  and  C_22
REMARK                            x       y       z     vdW  Elec       q    Type
REMARK                         _______ _______ _______ _____ _____    ______ ____
ROOT
ATOM      1  C   UNL     1      -0.144   1.361  -0.905  0.00  0.00    +0.044 C 
ATOM      2  C   UNL     1      -0.090  -0.130  -0.697  0.00  0.00    -0.049 A 
ATOM      3  C   UNL     1      -0.140  -0.982  -1.787  0.00  0.00    +0.005 A 
ATOM      4  C   UNL     1      -0.091  -2.352  -1.605  0.00  0.00    +0.030 A 
ATOM      5  C   UNL     1       0.007  -2.878  -0.333  0.00  0.00    +0.121 A 
ATOM      6  C   UNL     1       0.058  -2.026   0.770  0.00  0.00    +0.051 A 
ATOM      7  C   UNL     1       0.013  -0.644   0.579  0.00  0.00    +0.022 A 
ENDROOT
BRANCH   5   8
ATOM      8  S   UNL     1       0.069  -4.624  -0.103  0.00  0.00    +0.060 S 
ATOM      9  O   UNL     1      -0.044  -5.208  -1.393  0.00  0.00    -0.153 OA
ATOM     10  O   UNL     1       1.171  -4.882   0.756  0.00  0.00    -0.153 OA
BRANCH   8  11
ATOM     11  N   UNL     1      -1.294  -5.056   0.733  0.00  0.00    -0.176 NA
ATOM     12  H   UNL     1      -1.218  -5.433   1.624  0.00  0.00    +0.149 HD
BRANCH  11  13
ATOM     13  C   UNL     1      -2.615  -4.869   0.128  0.00  0.00    +0.182 C 
ATOM     14  C   UNL     1      -3.069  -6.178  -0.521  0.00  0.00    +0.037 C 
BRANCH  13  15
ATOM     15  C   UNL     1      -3.603  -4.466   1.192  0.00  0.00    +0.325 C 
ATOM     16  O   UNL     1      -3.241  -4.348   2.339  0.00  0.00    -0.249 OA
BRANCH  15  17
ATOM     17  O   UNL     1      -4.885  -4.239   0.867  0.00  0.00    -0.467 OA
ATOM     18  C   UNL     1      -5.766  -3.862   1.926  0.00  0.00    +0.280 C 
ENDBRANCH  15  17
ENDBRANCH  13  15
ENDBRANCH  11  13
ENDBRANCH   8  11
ENDBRANCH   5   8
BRANCH   6  19
ATOM     19  C   UNL     1       0.160  -2.566   2.092  0.00  0.00    -0.066 C 
ATOM     20  C   UNL     1       0.243  -3.008   3.176  0.00  0.00    -0.117 C 
BRANCH  20  21
ATOM     21  C   UNL     1       0.348  -3.563   4.536  0.00  0.00    +0.005 C 
BRANCH  21  22
ATOM     22  N   UNL     1       0.383  -2.466   5.511  0.00  0.00    +0.385 N 
ATOM     23  H   UNL     1       1.182  -1.877   5.326  0.00  0.00    -0.089 HD
ATOM     24  H   UNL     1      -0.462  -1.920   5.435  0.00  0.00    -0.089 HD
ATOM     25  H   UNL     1       0.455  -2.846   6.443  0.00  0.00    -0.089 HD
ENDBRANCH  21  22
ENDBRANCH  20  21
ENDBRANCH   6  19
TORSDOF 8
