REMARK  Name = ZINC51585811
REMARK  2 active torsions:
REMARK  status: ('A' for Active; 'I' for Inactive)
REMARK    1  A    between atoms: C_6  and  N_7
REMARK    2  A    between atoms: C_14  and  C_17
REMARK                            x       y       z     vdW  Elec       q    Type
REMARK                         _______ _______ _______ _____ _____    ______ ____
ROOT
ATOM      1  N   UNL     1      -1.206  -0.720  -0.023  0.00  0.00    -0.269 N 
ATOM      2  C   UNL     1      -2.375  -0.067   0.126  0.00  0.00    +0.307 C 
ATOM      3  O   UNL     1      -2.392   1.148   0.163  0.00  0.00    -0.252 OA
ATOM      4  N   UNL     1      -3.525  -0.761   0.235  0.00  0.00    -0.280 N 
ATOM      5  C   UNL     1      -3.517  -2.228   0.345  0.00  0.00    +0.137 C 
ATOM      6  C   UNL     1      -4.494  -2.796  -0.692  0.00  0.00    +0.180 C 
ATOM      7  O   UNL     1      -5.763  -2.155  -0.543  0.00  0.00    -0.364 OA
ATOM      8  C   UNL     1      -5.739  -0.746  -0.784  0.00  0.00    +0.221 C 
ATOM      9  C   UNL     1      -4.826  -0.073   0.253  0.00  0.00    +0.150 C 
ATOM     10  H   UNL     1      -1.202  -1.676  -0.192  0.00  0.00    +0.156 HD
ENDROOT
BRANCH   1  16
ATOM     11  C   UNL     1       0.039   1.342  -0.200  0.00  0.00    +0.027 A 
ATOM     12  C   UNL     1       1.232   2.036  -0.113  0.00  0.00    +0.051 A 
ATOM     13  C   UNL     1       2.394   1.374   0.238  0.00  0.00    +0.167 A 
ATOM     14  C   UNL     1       2.363   0.004   0.505  0.00  0.00    +0.169 A 
ATOM     15  C   UNL     1       1.170  -0.688   0.418  0.00  0.00    +0.073 A 
ATOM     16  C   UNL     1       0.005  -0.020   0.065  0.00  0.00    +0.038 A 
ATOM     17  O   UNL     1       3.633  -0.401   0.825  0.00  0.00    -0.447 OA
ATOM     18  C   UNL     1       4.471   0.619   0.261  0.00  0.00    +0.254 C 
ATOM     19  O   UNL     1       3.685   1.812   0.393  0.00  0.00    -0.448 OA
ATOM     20  C   UNL     1       4.793   0.325  -1.207  0.00  0.00    +0.093 C 
ATOM     21  C   UNL     1       6.242   0.851  -1.385  0.00  0.00    +0.008 C 
ATOM     22  C   UNL     1       6.908   0.493  -0.032  0.00  0.00    +0.008 C 
ATOM     23  C   UNL     1       5.796   0.735   1.014  0.00  0.00    +0.093 C 
ENDBRANCH   1  16
BRANCH   8  24
ATOM     24  C   UNL     1      -7.134  -0.190  -0.662  0.00  0.00    +0.241 C 
ATOM     25  O   UNL     1      -8.044  -0.909  -0.306  0.00  0.00    -0.273 OA
ATOM     26  N   UNL     1      -7.371   1.105  -0.947  0.00  0.00    -0.327 N 
ATOM     27  H   UNL     1      -6.643   1.680  -1.232  0.00  0.00    +0.145 HD
ATOM     28  H   UNL     1      -8.269   1.463  -0.869  0.00  0.00    +0.145 HD
ENDBRANCH   8  24
TORSDOF 2
