REMARK  Name = ZINC12574038
REMARK  10 active torsions:
REMARK  status: ('A' for Active; 'I' for Inactive)
REMARK    1  A    between atoms: C_1  and  C_2
REMARK    2  A    between atoms: C_5  and  O_8
REMARK    3  A    between atoms: O_8  and  C_9
REMARK    4  A    between atoms: C_9  and  C_10
REMARK    5  A    between atoms: N_12  and  N_13
REMARK    6  A    between atoms: N_13  and  C_14
REMARK    7  A    between atoms: C_14  and  N_16
REMARK    8  A    between atoms: C_17  and  C_19
REMARK    9  A    between atoms: C_19  and  O_20
REMARK   10  A    between atoms: O_20  and  C_21
REMARK                            x       y       z     vdW  Elec       q    Type
REMARK                         _______ _______ _______ _____ _____    ______ ____
ROOT
ATOM      1  C   UNL     1      -7.206   4.028   0.092  0.00  0.00    +0.153 C 
ATOM      2  S   UNL     1      -7.041   5.732   0.099  0.00  0.00    -0.017 S 
ENDROOT
BRANCH   1   3
ATOM      3  N   UNL     1      -6.109   3.245   0.078  0.00  0.00    -0.264 N 
ATOM      4  C   UNL     1      -4.883   3.803   0.069  0.00  0.00    +0.256 C 
ATOM      5  O   UNL     1      -4.766   5.010   0.074  0.00  0.00    -0.272 OA
ATOM      6  H   UNL     1      -6.203   2.279   0.074  0.00  0.00    +0.157 HD
BRANCH   4   7
ATOM      7  C   UNL     1      -3.656   2.927   0.053  0.00  0.00    +0.325 C 
BRANCH   7   8
ATOM      8  O   UNL     1      -2.486   3.747   0.046  0.00  0.00    -0.482 OA
BRANCH   8   9
ATOM      9  C   UNL     1      -1.287   3.110   0.032  0.00  0.00    +0.129 A 
ATOM     10  C   UNL     1      -1.234   1.744   0.017  0.00  0.00    +0.046 A 
ATOM     11  C   UNL     1      -0.013   1.076   0.008  0.00  0.00    +0.004 A 
ATOM     12  C   UNL     1       1.164   1.762   0.000  0.00  0.00    +0.009 A 
ATOM     13  C   UNL     1       1.152   3.167   0.008  0.00  0.00    -0.014 A 
ATOM     14  C   UNL     1      -0.088   3.852   0.024  0.00  0.00    +0.024 A 
ATOM     15  C   UNL     1      -0.100   5.256   0.030  0.00  0.00    +0.012 A 
ATOM     16  C   UNL     1       1.077   5.940   0.022  0.00  0.00    +0.001 A 
ATOM     17  C   UNL     1       2.297   5.267   0.007  0.00  0.00    +0.001 A 
ATOM     18  C   UNL     1       2.347   3.907   0.000  0.00  0.00    +0.008 A 
ENDBRANCH   8   9
ENDBRANCH   7   8
ENDBRANCH   4   7
ENDBRANCH   1   3
BRANCH   1  19
ATOM     19  N   UNL     1      -8.433   3.470   0.101  0.00  0.00    -0.245 N 
ATOM     20  H   UNL     1      -9.222   4.033   0.111  0.00  0.00    +0.172 HD
BRANCH  19  23
ATOM     21  C   UNL     1      -9.794   1.517   0.105  0.00  0.00    +0.267 C 
ATOM     22  O   UNL     1     -10.781   2.221   0.118  0.00  0.00    -0.271 OA
ATOM     23  N   UNL     1      -8.568   2.075   0.096  0.00  0.00    -0.232 N 
ATOM     24  H   UNL     1      -7.778   1.511   0.086  0.00  0.00    +0.173 HD
BRANCH  21  25
ATOM     25  C   UNL     1      -9.939   0.017   0.099  0.00  0.00    +0.326 C 
BRANCH  25  26
ATOM     26  O   UNL     1     -11.326  -0.328   0.111  0.00  0.00    -0.483 OA
BRANCH  26  31
ATOM     27  C   UNL     1     -12.599  -5.814   0.097  0.00  0.00    +0.044 C 
ATOM     28  C   UNL     1     -12.258  -4.346   0.101  0.00  0.00    -0.050 A 
ATOM     29  C   UNL     1     -13.269  -3.404   0.115  0.00  0.00    +0.007 A 
ATOM     30  C   UNL     1     -12.960  -2.057   0.118  0.00  0.00    +0.046 A 
ATOM     31  C   UNL     1     -11.633  -1.652   0.107  0.00  0.00    +0.121 A 
ATOM     32  C   UNL     1     -10.621  -2.600   0.087  0.00  0.00    +0.046 A 
ATOM     33  C   UNL     1     -10.935  -3.945   0.090  0.00  0.00    +0.007 A 
ENDBRANCH  26  31
ENDBRANCH  25  26
ENDBRANCH  21  25
ENDBRANCH  19  23
ENDBRANCH   1  19
TORSDOF 9
