REMARK  Name = ZINC62876018
REMARK  5 active torsions:
REMARK  status: ('A' for Active; 'I' for Inactive)
REMARK    1  A    between atoms: C_1  and  C_2
REMARK    2  A    between atoms: C_2  and  C_19
REMARK    3  A    between atoms: N_10  and  C_11
REMARK    4  A    between atoms: C_11  and  C_12
REMARK    5  A    between atoms: N_15  and  C_18
REMARK                            x       y       z     vdW  Elec       q    Type
REMARK                         _______ _______ _______ _____ _____    ______ ____
ROOT
ATOM      1  C   UNL     1      -0.018   1.529   0.011  0.00  0.00    +0.024 C 
ATOM      2  C   UNL     1       0.002  -0.000   0.001  0.00  0.00    +0.085 C 
ATOM      3  C   UNL     1      -1.434  -0.530   0.016  0.00  0.00    +0.021 C 
ATOM      4  C   UNL     1      -2.159  -0.010   1.259  0.00  0.00    +0.020 C 
ATOM      5  C   UNL     1      -1.443  -0.520   2.514  0.00  0.00    +0.109 C 
ATOM      6  N   UNL     1      -0.026  -0.138   2.438  0.00  0.00    -0.285 N 
ATOM      7  C   UNL     1       0.743  -0.510   1.242  0.00  0.00    +0.127 C 
ATOM      8  C   UNL     1       0.557   0.541   3.445  0.00  0.00    +0.302 C 
ATOM      9  O   UNL     1       1.751   0.771   3.412  0.00  0.00    -0.253 OA
ATOM     10  N   UNL     1      -0.182   0.964   4.489  0.00  0.00    -0.299 N 
ATOM     11  H   UNL     1      -1.118   0.718   4.552  0.00  0.00    +0.150 HD
ENDROOT
BRANCH   2  12
ATOM     12  C   UNL     1       0.706  -0.486  -1.240  0.00  0.00    +0.363 C 
ATOM     13  O   UNL     1       1.867  -0.175  -1.443  0.00  0.00    -0.246 OA
ATOM     14  O   UNL     1       0.114  -1.190  -2.040  0.00  0.00    -0.246 OA
ENDBRANCH   2  12
BRANCH  10  15
ATOM     15  C   UNL     1       0.428   1.797   5.529  0.00  0.00    +0.109 C 
BRANCH  15  16
ATOM     16  C   UNL     1      -0.620   2.137   6.590  0.00  0.00    +0.003 C 
ATOM     17  C   UNL     1      -1.711   3.015   5.970  0.00  0.00    -0.014 C 
ATOM     18  C   UNL     1      -2.713   3.417   7.054  0.00  0.00    -0.079 C 
ATOM     19  N   UNL     1      -2.022   4.166   8.111  0.00  0.00    +0.378 N 
ATOM     20  C   UNL     1      -1.023   3.307   8.758  0.00  0.00    -0.079 C 
ATOM     21  C   UNL     1       0.044   2.901   7.740  0.00  0.00    -0.014 C 
ATOM     22  C   UNL     1      -3.000   4.616   9.110  0.00  0.00    -0.096 C 
ATOM     23  H   UNL     1      -1.562   4.968   7.707  0.00  0.00    -0.082 HD
ENDBRANCH  15  16
ENDBRANCH  10  15
TORSDOF 3
