REMARK  Name = ZINC47263299
REMARK  7 active torsions:
REMARK  status: ('A' for Active; 'I' for Inactive)
REMARK    1  A    between atoms: C_1  and  C_2
REMARK    2  A    between atoms: C_3  and  C_26
REMARK    3  A    between atoms: N_7  and  C_8
REMARK    4  A    between atoms: C_8  and  C_10
REMARK    5  A    between atoms: C_10  and  N_11
REMARK    6  A    between atoms: C_15  and  C_18
REMARK    7  A    between atoms: C_18  and  N_20
REMARK                            x       y       z     vdW  Elec       q    Type
REMARK                         _______ _______ _______ _____ _____    ______ ____
ROOT
ATOM      1  N   UNL     1       2.553  -6.567  -0.047  0.00  0.00    +0.386 N 
ATOM      2  C   UNL     1       1.819  -6.808  -1.296  0.00  0.00    -0.078 C 
ATOM      3  C   UNL     1       1.209  -8.210  -1.271  0.00  0.00    -0.018 C 
ATOM      4  C   UNL     1       2.328  -9.246  -1.127  0.00  0.00    +0.009 C 
ATOM      5  C   UNL     1       3.132  -8.941   0.140  0.00  0.00    +0.061 C 
ATOM      6  C   UNL     1       3.672  -7.511   0.063  0.00  0.00    -0.065 C 
ATOM      7  H   UNL     1       1.929  -6.693   0.736  0.00  0.00    -0.081 HD
ENDROOT
BRANCH   5   8
ATOM      8  C   UNL     1       4.282  -9.908   0.251  0.00  0.00    +0.240 C 
ATOM      9  O   UNL     1       5.426  -9.494   0.271  0.00  0.00    -0.273 OA
BRANCH   8  10
ATOM     10  N   UNL     1       4.048 -11.212   0.327  0.00  0.00    -0.156 NA
ATOM     11  C   UNL     1       5.066 -12.069   0.425  0.00  0.00    +0.163 A 
ATOM     12  N   UNL     1       6.398 -11.797   0.468  0.00  0.00    -0.342 N 
ATOM     13  C   UNL     1       7.276 -12.830   0.571  0.00  0.00    +0.092 A 
ATOM     14  C   UNL     1       6.766 -14.065   0.626  0.00  0.00    +0.066 A 
ATOM     15  S   UNL     1       5.014 -13.746   0.534  0.00  0.00    -0.061 S 
ATOM     16  H   UNL     1       6.716 -10.881   0.424  0.00  0.00    +0.167 HD
ENDBRANCH   8  10
ENDBRANCH   5   8
BRANCH   1  17
ATOM     17  C   UNL     1       3.071  -5.193  -0.042  0.00  0.00    +0.021 C 
BRANCH  17  18
ATOM     18  C   UNL     1       1.919  -4.221  -0.031  0.00  0.00    +0.222 C 
ATOM     19  O   UNL     1       0.775  -4.635  -0.028  0.00  0.00    -0.276 OA
BRANCH  18  26
ATOM     20  C   UNL     1      -0.018   1.503   0.010  0.00  0.00    +0.064 C 
ATOM     21  C   UNL     1       0.002  -0.004   0.002  0.00  0.00    +0.024 A 
ATOM     22  C   UNL     1      -1.131  -0.715   0.004  0.00  0.00    +0.009 A 
ATOM     23  S   UNL     1      -0.516  -2.389  -0.009  0.00  0.00    -0.057 S 
ATOM     24  C   UNL     1       1.132  -2.055  -0.016  0.00  0.00    +0.163 A 
ATOM     25  N   UNL     1       1.173  -0.696  -0.013  0.00  0.00    -0.339 N 
ATOM     26  N   UNL     1       2.152  -2.915  -0.025  0.00  0.00    -0.158 NA
ATOM     27  C   UNL     1      -2.557  -0.229   0.014  0.00  0.00    +0.053 C 
ATOM     28  H   UNL     1       2.022  -0.228  -0.019  0.00  0.00    +0.167 HD
ENDBRANCH  18  26
ENDBRANCH  17  18
ENDBRANCH   1  17
TORSDOF 5
