REMARK  Name = ZINC43188051
REMARK  8 active torsions:
REMARK  status: ('A' for Active; 'I' for Inactive)
REMARK    1  A    between atoms: C_1  and  C_2
REMARK    2  A    between atoms: C_5  and  N_9
REMARK    3  A    between atoms: N_12  and  C_13
REMARK    4  A    between atoms: C_13  and  C_14
REMARK    5  A    between atoms: C_14  and  C_15
REMARK    6  A    between atoms: C_15  and  N_16
REMARK    7  A    between atoms: C_18  and  C_25
REMARK    8  A    between atoms: C_21  and  C_24
REMARK                            x       y       z     vdW  Elec       q    Type
REMARK                         _______ _______ _______ _____ _____    ______ ____
ROOT
ATOM      1  N   UNL     1       0.059  -4.171  -0.023  0.00  0.00    -0.268 N 
ATOM      2  C   UNL     1      -0.040  -4.839  -1.190  0.00  0.00    +0.304 C 
ATOM      3  O   UNL     1      -0.054  -4.229  -2.241  0.00  0.00    -0.253 OA
ATOM      4  N   UNL     1      -0.124  -6.184  -1.190  0.00  0.00    -0.299 N 
ATOM      5  H   UNL     1       0.152  -4.660   0.809  0.00  0.00    +0.156 HD
ATOM      6  H   UNL     1      -0.113  -6.672  -0.352  0.00  0.00    +0.150 HD
ENDROOT
BRANCH   1  11
ATOM      7  C   UNL     1      -0.072   1.502   0.017  0.00  0.00    +0.044 C 
ATOM      8  C   UNL     1      -0.037  -0.005   0.006  0.00  0.00    -0.049 A 
ATOM      9  C   UNL     1      -0.627  -0.702  -1.032  0.00  0.00    +0.005 A 
ATOM     10  C   UNL     1      -0.597  -2.083  -1.045  0.00  0.00    +0.025 A 
ATOM     11  C   UNL     1       0.027  -2.772  -0.013  0.00  0.00    +0.053 A 
ATOM     12  C   UNL     1       0.619  -2.069   1.029  0.00  0.00    +0.062 A 
ATOM     13  C   UNL     1       0.590  -0.687   1.033  0.00  0.00    +0.025 A 
ATOM     14 CL   UNL     1       1.400  -2.925   2.321  0.00  0.00    -0.082 Cl
ENDBRANCH   1  11
BRANCH   4  15
ATOM     15  C   UNL     1      -0.232  -6.911  -2.458  0.00  0.00    +0.107 C 
BRANCH  15  16
ATOM     16  C   UNL     1      -0.311  -8.413  -2.180  0.00  0.00    +0.034 C 
BRANCH  16  17
ATOM     17  C   UNL     1      -0.424  -9.172  -3.504  0.00  0.00    +0.086 C 
BRANCH  17  18
ATOM     18  N   UNL     1      -0.500 -10.614  -3.237  0.00  0.00    -0.297 NA
ATOM     19  C   UNL     1       0.758 -11.111  -2.663  0.00  0.00    +0.115 C 
ATOM     20  C   UNL     1       0.615 -12.602  -2.345  0.00  0.00    +0.130 C 
ATOM     21  O   UNL     1       0.248 -13.305  -3.536  0.00  0.00    -0.371 OA
ATOM     22  C   UNL     1      -0.973 -12.847  -4.122  0.00  0.00    +0.130 C 
ATOM     23  C   UNL     1      -0.846 -11.358  -4.457  0.00  0.00    +0.115 C 
ATOM     24  C   UNL     1      -1.254 -13.637  -5.401  0.00  0.00    +0.039 C 
ATOM     25  C   UNL     1      -0.469 -12.796  -1.283  0.00  0.00    +0.039 C 
ENDBRANCH  17  18
ENDBRANCH  16  17
ENDBRANCH  15  16
ENDBRANCH   4  15
TORSDOF 5
