REMARK  Name = ZINC35794222
REMARK  6 active torsions:
REMARK  status: ('A' for Active; 'I' for Inactive)
REMARK    1  A    between atoms: C_1  and  C_2
REMARK    2  A    between atoms: C_2  and  C_4
REMARK    3  A    between atoms: C_2  and  N_7
REMARK    4  A    between atoms: C_8  and  C_10
REMARK    5  A    between atoms: C_10  and  C_11
REMARK    6  A    between atoms: C_11  and  C_16
REMARK                            x       y       z     vdW  Elec       q    Type
REMARK                         _______ _______ _______ _____ _____    ______ ____
ROOT
ATOM      1  N   UNL     1       0.688  -0.476  -1.203  0.00  0.00    -0.304 N 
ATOM      2  C   UNL     1       2.031  -0.587  -1.215  0.00  0.00    +0.215 C 
ATOM      3  O   UNL     1       2.672  -0.295  -0.228  0.00  0.00    -0.276 OA
ATOM      4  H   UNL     1       0.175  -0.710  -1.993  0.00  0.00    +0.149 HD
ENDROOT
BRANCH   1   6
ATOM      5  C   UNL     1      -0.019   1.526   0.010  0.00  0.00    +0.038 C 
ATOM      6  C   UNL     1       0.002  -0.004   0.002  0.00  0.00    +0.155 C 
BRANCH   6   7
ATOM      7  C   UNL     1      -1.412  -0.526   0.013  0.00  0.00    +0.231 C 
ATOM      8  O   UNL     1      -1.808  -1.223  -0.897  0.00  0.00    -0.274 OA
ATOM      9  N   UNL     1      -2.236  -0.217   1.033  0.00  0.00    -0.328 N 
ATOM     10  H   UNL     1      -1.920   0.341   1.761  0.00  0.00    +0.145 HD
ATOM     11  H   UNL     1      -3.146  -0.553   1.040  0.00  0.00    +0.145 HD
ENDBRANCH   6   7
ENDBRANCH   1   6
BRANCH   2  12
ATOM     12  C   UNL     1       2.736  -1.073  -2.455  0.00  0.00    +0.114 C 
BRANCH  12  13
ATOM     13  C   UNL     1       4.245  -1.105  -2.204  0.00  0.00    +0.080 C 
ATOM     14  C   UNL     1       4.765   0.320  -1.922  0.00  0.00    +0.019 C 
ATOM     15  C   UNL     1       6.153   0.360  -2.609  0.00  0.00    +0.001 C 
ATOM     16  C   UNL     1       5.918  -0.459  -3.902  0.00  0.00    +0.001 C 
ATOM     17  C   UNL     1       4.979  -1.600  -3.462  0.00  0.00    +0.019 C 
BRANCH  13  18
ATOM     18  C   UNL     1       4.555  -2.008  -1.037  0.00  0.00    +0.362 C 
ATOM     19  O   UNL     1       3.652  -2.590  -0.461  0.00  0.00    -0.246 OA
ATOM     20  O   UNL     1       5.708  -2.157  -0.671  0.00  0.00    -0.246 OA
ENDBRANCH  13  18
ENDBRANCH  12  13
ENDBRANCH   2  12
TORSDOF 5
