REMARK  Name = ZINC01066335
REMARK  8 active torsions:
REMARK  status: ('A' for Active; 'I' for Inactive)
REMARK    1  A    between atoms: C_1  and  C_2
REMARK    2  A    between atoms: C_2  and  O_3
REMARK    3  A    between atoms: O_3  and  C_4
REMARK    4  A    between atoms: C_4  and  C_6
REMARK    5  A    between atoms: C_7  and  C_35
REMARK    6  A    between atoms: C_11  and  C_13
REMARK    7  A    between atoms: C_16  and  N_19
REMARK    8  A    between atoms: C_25  and  C_28
REMARK                            x       y       z     vdW  Elec       q    Type
REMARK                         _______ _______ _______ _____ _____    ______ ____
ROOT
ATOM      1  C   UNL     1      -1.223   3.530  -0.394  0.00  0.00    +0.065 C 
ATOM      2  C   UNL     1      -0.031   4.151  -0.391  0.00  0.00    +0.016 C 
ATOM      3  N   UNL     1       1.097   3.483  -0.005  0.00  0.00    -0.321 N 
ATOM      4  C   UNL     1       1.130   2.114   0.003  0.00  0.00    +0.016 C 
ATOM      5  C   UNL     1      -0.017   1.402   0.010  0.00  0.00    +0.024 C 
ATOM      6  C   UNL     1      -1.355   2.097   0.033  0.00  0.00    +0.092 C 
ATOM      7  C   UNL     1       0.002  -0.004   0.002  0.00  0.00    +0.162 C 
ATOM      8  O   UNL     1      -1.048  -0.615   0.021  0.00  0.00    -0.292 OA
ATOM      9  C   UNL     1       1.299  -0.766  -0.030  0.00  0.00    +0.088 C 
ATOM     10  C   UNL     1       2.361   0.087  -0.734  0.00  0.00    +0.032 C 
ATOM     11  C   UNL     1       2.472   1.425  -0.001  0.00  0.00    +0.059 C 
ATOM     12  C   UNL     1       0.063   5.594  -0.816  0.00  0.00    +0.061 C 
ATOM     13  H   UNL     1       1.991   4.045   0.304  0.00  0.00    +0.152 HD
ENDROOT
BRANCH  10  14
ATOM     14  C   UNL     1       3.689  -0.624  -0.694  0.00  0.00    -0.043 A 
ATOM     15  C   UNL     1       4.271  -0.934   0.521  0.00  0.00    +0.005 A 
ATOM     16  C   UNL     1       5.486  -1.591   0.558  0.00  0.00    +0.020 A 
ATOM     17  C   UNL     1       6.125  -1.929  -0.622  0.00  0.00    +0.041 A 
ATOM     18  C   UNL     1       5.545  -1.613  -1.837  0.00  0.00    +0.020 A 
ATOM     19  C   UNL     1       4.327  -0.961  -1.873  0.00  0.00    +0.005 A 
ATOM     20 CL   UNL     1       7.655  -2.749  -0.576  0.00  0.00    -0.084 Cl
ENDBRANCH  10  14
BRANCH   6  21
ATOM     21  C   UNL     1      -1.917   2.043   1.430  0.00  0.00    -0.035 A 
ATOM     22  C   UNL     1      -1.217   2.611   2.478  0.00  0.00    +0.007 A 
ATOM     23  C   UNL     1      -1.735   2.566   3.759  0.00  0.00    +0.033 A 
ATOM     24  C   UNL     1      -2.947   1.944   3.994  0.00  0.00    +0.126 A 
ATOM     25  C   UNL     1      -3.644   1.371   2.946  0.00  0.00    +0.033 A 
ATOM     26  C   UNL     1      -3.129   1.421   1.664  0.00  0.00    +0.007 A 
BRANCH  24  27
ATOM     27  N   UNL     1      -3.498   1.890   5.366  0.00  0.00    +0.056 N 
ATOM     28  O   UNL     1      -4.566   1.342   5.573  0.00  0.00    -0.126 OA
ATOM     29  O   UNL     1      -2.884   2.395   6.289  0.00  0.00    -0.126 OA
ENDBRANCH  24  27
ENDBRANCH   6  21
BRANCH   1  30
ATOM     30  C   UNL     1      -2.375   4.242  -0.805  0.00  0.00    +0.338 C 
ATOM     31  O   UNL     1      -2.280   5.404  -1.150  0.00  0.00    -0.245 OA
BRANCH  30  32
ATOM     32  O   UNL     1      -3.578   3.631  -0.813  0.00  0.00    -0.462 OA
BRANCH  32  34
ATOM     33  C   UNL     1      -5.965   3.553  -1.182  0.00  0.00    +0.048 C 
ATOM     34  C   UNL     1      -4.698   4.409  -1.239  0.00  0.00    +0.229 C 
ENDBRANCH  32  34
ENDBRANCH  30  32
ENDBRANCH   1  30
TORSDOF 6
