REMARK  Name = ZINC58377478
REMARK  3 active torsions:
REMARK  status: ('A' for Active; 'I' for Inactive)
REMARK    1  A    between atoms: C_1  and  C_2
REMARK    2  A    between atoms: C_6  and  C_22
REMARK    3  A    between atoms: C_10  and  C_12
REMARK                            x       y       z     vdW  Elec       q    Type
REMARK                         _______ _______ _______ _____ _____    ______ ____
ROOT
ATOM      1  C   UNL     1       0.044   1.500  -0.053  0.00  0.00    +0.028 C 
ATOM      2  C   UNL     1      -0.180   0.001   0.160  0.00  0.00    +0.073 C 
ATOM      3  C   UNL     1      -1.660  -0.260   0.456  0.00  0.00    +0.023 C 
ATOM      4  C   UNL     1      -1.853  -1.738   0.805  0.00  0.00    +0.016 C 
ATOM      5  C   UNL     1      -1.042  -2.078   2.058  0.00  0.00    +0.092 C 
ATOM      6  C   UNL     1       0.445  -1.837   1.780  0.00  0.00    +0.121 C 
ATOM      7  N   UNL     1       0.623  -0.459   1.302  0.00  0.00    -0.294 N 
ATOM      8  C   UNL     1       1.502   0.368   1.901  0.00  0.00    +0.253 C 
ATOM      9  O   UNL     1       1.560   1.538   1.569  0.00  0.00    -0.269 OA
ENDROOT
BRANCH   8  10
ATOM     10  C   UNL     1       2.387  -0.140   2.953  0.00  0.00    +0.075 A 
ATOM     11  C   UNL     1       3.100   0.560   3.905  0.00  0.00    +0.024 A 
ATOM     12  C   UNL     1       3.872  -0.186   4.792  0.00  0.00    -0.036 A 
ATOM     13  C   UNL     1       3.848  -1.535   4.629  0.00  0.00    -0.006 A 
ATOM     14  S   UNL     1       2.819  -1.825   3.342  0.00  0.00    -0.088 S 
ATOM     15  C   UNL     1       4.582  -2.570   5.429  0.00  0.00    +0.043 C 
ATOM     16  C   UNL     1       4.807  -2.050   6.853  0.00  0.00    +0.005 C 
ATOM     17  C   UNL     1       6.130  -1.292   6.891  0.00  0.00    +0.001 C 
ATOM     18  C   UNL     1       6.094  -0.101   5.937  0.00  0.00    +0.005 C 
ATOM     19  C   UNL     1       4.692   0.496   5.883  0.00  0.00    +0.036 C 
ENDBRANCH   8  10
BRANCH   5  20
ATOM     20  C   UNL     1      -1.259  -3.525   2.420  0.00  0.00    +0.215 C 
ATOM     21  O   UNL     1      -1.990  -4.216   1.743  0.00  0.00    -0.276 OA
ATOM     22  N   UNL     1      -0.640  -4.050   3.496  0.00  0.00    -0.329 N 
ATOM     23  H   UNL     1      -0.056  -3.497   4.037  0.00  0.00    +0.145 HD
ATOM     24  H   UNL     1      -0.780  -4.981   3.729  0.00  0.00    +0.145 HD
ENDBRANCH   5  20
TORSDOF 2
