REMARK  Name = ZINC09322125
REMARK  6 active torsions:
REMARK  status: ('A' for Active; 'I' for Inactive)
REMARK    1  A    between atoms: C_1  and  C_2
REMARK    2  A    between atoms: C_4  and  S_12
REMARK    3  A    between atoms: S_12  and  C_13
REMARK    4  A    between atoms: C_13  and  C_15
REMARK    5  A    between atoms: C_13  and  C_16
REMARK    6  A    between atoms: C_21  and  C_24
REMARK                            x       y       z     vdW  Elec       q    Type
REMARK                         _______ _______ _______ _____ _____    ______ ____
ROOT
ATOM      1  S   UNL     1      -0.022   1.758   0.012  0.00  0.00    -0.093 S 
ENDROOT
BRANCH   1   5
ATOM      2  C   UNL     1      -2.501  -2.844   0.011  0.00  0.00    +0.044 C 
ATOM      3  C   UNL     1      -1.209  -2.068   0.002  0.00  0.00    -0.039 A 
ATOM      4  C   UNL     1      -1.212  -0.706   0.010  0.00  0.00    +0.038 A 
ATOM      5  C   UNL     1       0.002  -0.004   0.002  0.00  0.00    +0.099 A 
ATOM      6  N   UNL     1       1.161  -0.632  -0.018  0.00  0.00    -0.240 NA
ATOM      7  C   UNL     1       1.226  -1.968  -0.020  0.00  0.00    +0.072 A 
ATOM      8  C   UNL     1       0.034  -2.733  -0.013  0.00  0.00    +0.003 A 
ATOM      9  C   UNL     1       0.109  -4.135  -0.022  0.00  0.00    +0.010 A 
ATOM     10  C   UNL     1       1.328  -4.744  -0.037  0.00  0.00    +0.001 A 
ATOM     11  C   UNL     1       2.501  -3.993  -0.045  0.00  0.00    +0.002 A 
ATOM     12  C   UNL     1       2.464  -2.632  -0.036  0.00  0.00    +0.028 A 
ENDBRANCH   1   5
BRANCH   1  13
ATOM     13  C   UNL     1       1.756   2.096  -0.004  0.00  0.00    +0.136 C 
ATOM     14  C   UNL     1       2.359   1.600  -1.319  0.00  0.00    +0.029 C 
BRANCH  13  15
ATOM     15  C   UNL     1       1.986   3.580   0.126  0.00  0.00    +0.231 C 
ATOM     16  O   UNL     1       1.094   4.357  -0.141  0.00  0.00    -0.274 OA
ATOM     17  N   UNL     1       3.183   4.043   0.538  0.00  0.00    -0.267 N 
ATOM     18  C   UNL     1       3.396   5.416   0.658  0.00  0.00    +0.168 A 
ATOM     19  C   UNL     1       2.461   6.451   0.387  0.00  0.00    +0.091 A 
ATOM     20  C   UNL     1       3.145   7.587   0.655  0.00  0.00    +0.136 A 
ATOM     21  O   UNL     1       4.372   7.212   1.047  0.00  0.00    -0.358 OA
ATOM     22  N   UNL     1       4.494   6.009   1.049  0.00  0.00    -0.063 NA
ATOM     23  C   UNL     1       2.629   8.998   0.536  0.00  0.00    +0.089 C 
ATOM     24  H   UNL     1       3.896   3.421   0.752  0.00  0.00    +0.156 HD
ENDBRANCH  13  15
ENDBRANCH   1  13
TORSDOF 3
