REMARK  Name = ZINC20617173
REMARK  12 active torsions:
REMARK  status: ('A' for Active; 'I' for Inactive)
REMARK    1  A    between atoms: C_1  and  C_2
REMARK    2  A    between atoms: C_5  and  N_9
REMARK    3  A    between atoms: C_7  and  C_8
REMARK    4  A    between atoms: C_11  and  C_23
REMARK    5  A    between atoms: C_14  and  C_21
REMARK    6  A    between atoms: C_17  and  C_20
REMARK    7  A    between atoms: C_21  and  O_22
REMARK    8  A    between atoms: N_25  and  C_26
REMARK    9  A    between atoms: C_29  and  O_34
REMARK   10  A    between atoms: C_31  and  O_32
REMARK   11  A    between atoms: O_32  and  C_33
REMARK   12  A    between atoms: O_34  and  C_35
REMARK                            x       y       z     vdW  Elec       q    Type
REMARK                         _______ _______ _______ _____ _____    ______ ____
ROOT
ATOM      1  N   UNL     1       0.103  -4.538   0.361  0.00  0.00    -0.325 N 
ATOM      2  C   UNL     1       1.179  -4.991  -0.245  0.00  0.00    +0.212 A 
ATOM      3  C   UNL     1       2.429  -4.206  -0.257  0.00  0.00    +0.098 A 
ATOM      4  C   UNL     1       3.611  -4.904  -0.377  0.00  0.00    +0.030 A 
ATOM      5  C   UNL     1       3.522  -6.361  -0.490  0.00  0.00    +0.027 A 
ATOM      6  C   UNL     1       4.648  -7.181  -0.354  0.00  0.00    +0.007 A 
ATOM      7  C   UNL     1       4.486  -8.546  -0.470  0.00  0.00    +0.117 A 
ATOM      8  N   UNL     1       3.299  -9.076  -0.704  0.00  0.00    -0.256 NA
ATOM      9  C   UNL     1       2.210  -8.347  -0.841  0.00  0.00    +0.081 A 
ATOM     10  C   UNL     1       2.275  -6.964  -0.741  0.00  0.00    +0.159 A 
ATOM     11  O   UNL     1       1.172  -6.192  -0.883  0.00  0.00    -0.437 OA
ATOM     12  C   UNL     1       0.887  -9.018  -1.106  0.00  0.00    +0.069 C 
ATOM     13  H   UNL     1       0.150  -3.603   0.938  0.00  0.00    +0.169 HD
ENDROOT
BRANCH   1  18
ATOM     14  C   UNL     1      -4.751  -7.396   0.004  0.00  0.00    +0.044 C 
ATOM     15  C   UNL     1      -3.455  -6.633   0.099  0.00  0.00    -0.047 A 
ATOM     16  C   UNL     1      -2.617  -6.832   1.183  0.00  0.00    +0.005 A 
ATOM     17  C   UNL     1      -1.429  -6.137   1.277  0.00  0.00    +0.026 A 
ATOM     18  C   UNL     1      -1.073  -5.231   0.275  0.00  0.00    +0.042 A 
ATOM     19  C   UNL     1      -1.926  -5.031  -0.813  0.00  0.00    +0.029 A 
ATOM     20  C   UNL     1      -3.108  -5.738  -0.897  0.00  0.00    -0.046 A 
ATOM     21  C   UNL     1      -4.027  -5.528  -2.073  0.00  0.00    +0.044 C 
ENDBRANCH   1  18
BRANCH   3  22
ATOM     22  C   UNL     1       2.414  -2.736  -0.140  0.00  0.00    +0.253 C 
ATOM     23  O   UNL     1       3.460  -2.115  -0.148  0.00  0.00    -0.270 OA
ATOM     24  N   UNL     1       1.242  -2.082  -0.025  0.00  0.00    -0.278 N 
ATOM     25  H   UNL     1       0.302  -2.647   0.056  0.00  0.00    +0.155 HD
BRANCH  24  26
ATOM     26  C   UNL     1       1.221  -0.680  -0.006  0.00  0.00    +0.076 A 
ATOM     27  C   UNL     1       2.256   0.023   0.593  0.00  0.00    +0.030 A 
ATOM     28  C   UNL     1       2.235   1.404   0.611  0.00  0.00    +0.047 A 
ATOM     29  C   UNL     1       1.179   2.092   0.030  0.00  0.00    +0.124 A 
ATOM     30  C   UNL     1       0.142   1.394  -0.570  0.00  0.00    +0.093 A 
ATOM     31  C   UNL     1       0.160   0.009  -0.590  0.00  0.00    +0.145 A 
BRANCH  31  32
ATOM     32  O   UNL     1      -0.857  -0.677  -1.177  0.00  0.00    -0.493 OA
ATOM     33  C   UNL     1      -1.912   0.095  -1.754  0.00  0.00    +0.277 C 
ENDBRANCH  31  32
BRANCH  29  34
ATOM     34  O   UNL     1       1.161   3.451   0.050  0.00  0.00    -0.495 OA
ATOM     35  C   UNL     1       2.262   4.105   0.685  0.00  0.00    +0.277 C 
ENDBRANCH  29  34
ENDBRANCH  24  26
ENDBRANCH   3  22
BRANCH   6  36
ATOM     36  C   UNL     1       6.007  -6.587  -0.087  0.00  0.00    +0.193 C 
BRANCH  36  37
ATOM     37  O   UNL     1       6.975  -7.634   0.007  0.00  0.00    -0.390 OA
ATOM     38  H   UNL     1       8.030  -7.392   0.200  0.00  0.00    +0.210 HD
ENDBRANCH  36  37
ENDBRANCH   6  36
TORSDOF 7
