REMARK  Name = ZINC39303066
REMARK  10 active torsions:
REMARK  status: ('A' for Active; 'I' for Inactive)
REMARK    1  A    between atoms: C_1  and  C_2
REMARK    2  A    between atoms: C_6  and  N_8
REMARK    3  A    between atoms: N_11  and  C_12
REMARK    4  A    between atoms: C_12  and  C_14
REMARK    5  A    between atoms: C_12  and  C_21
REMARK    6  A    between atoms: C_14  and  C_15
REMARK    7  A    between atoms: N_23  and  C_24
REMARK    8  A    between atoms: C_24  and  C_25
REMARK    9  A    between atoms: C_25  and  S_26
REMARK   10  A    between atoms: S_26  and  C_27
REMARK                            x       y       z     vdW  Elec       q    Type
REMARK                         _______ _______ _______ _____ _____    ______ ____
ROOT
ATOM      1  C   UNL     1      -0.210  -6.281   3.541  0.00  0.00    +0.165 C 
ENDROOT
BRANCH   1   5
ATOM      2  N   UNL     1       0.051  -2.797   2.393  0.00  0.00    -0.269 N 
ATOM      3  C   UNL     1      -0.032  -4.143   2.386  0.00  0.00    +0.304 C 
ATOM      4  O   UNL     1      -0.029  -4.746   1.330  0.00  0.00    -0.252 OA
ATOM      5  N   UNL     1      -0.119  -4.819   3.548  0.00  0.00    -0.288 N 
ATOM      6  H   UNL     1       0.127  -2.321   3.234  0.00  0.00    +0.156 HD
ATOM      7  H   UNL     1      -0.121  -4.337   4.390  0.00  0.00    +0.151 HD
BRANCH   2  13
ATOM      8  C   UNL     1      -1.548  -2.371  -2.237  0.00  0.00    +0.044 C 
ATOM      9  C   UNL     1      -0.737  -1.859  -1.074  0.00  0.00    -0.049 A 
ATOM     10  C   UNL     1      -0.014  -0.687  -1.199  0.00  0.00    +0.003 A 
ATOM     11  C   UNL     1       0.731  -0.214  -0.134  0.00  0.00    +0.002 A 
ATOM     12  C   UNL     1       0.754  -0.911   1.058  0.00  0.00    +0.023 A 
ATOM     13  C   UNL     1       0.029  -2.088   1.186  0.00  0.00    +0.035 A 
ATOM     14  C   UNL     1      -0.722  -2.558   0.117  0.00  0.00    +0.026 A 
ENDBRANCH   2  13
ENDBRANCH   1   5
BRANCH   1  15
ATOM     15  C   UNL     1      -0.890  -6.748   4.801  0.00  0.00    +0.234 C 
ATOM     16  O   UNL     1      -1.262  -5.940   5.626  0.00  0.00    -0.274 OA
ATOM     17  N   UNL     1      -1.084  -8.065   5.013  0.00  0.00    -0.313 N 
ATOM     18  H   UNL     1      -0.787  -8.712   4.354  0.00  0.00    +0.149 HD
BRANCH  17  19
ATOM     19  C   UNL     1      -1.745  -8.520   6.239  0.00  0.00    +0.115 C 
BRANCH  19  20
ATOM     20  C   UNL     1      -1.840 -10.047   6.231  0.00  0.00    +0.089 C 
BRANCH  20  21
ATOM     21  S   UNL     1      -2.658 -10.610   7.749  0.00  0.00    -0.135 S 
BRANCH  21  22
ATOM     22  C   UNL     1      -2.691 -12.416   7.586  0.00  0.00    +0.194 C 
ATOM     23  C   UNL     1      -3.454 -13.013   8.737  0.00  0.00    +0.241 C 
ATOM     24  O   UNL     1      -4.633 -13.252   8.581  0.00  0.00    -0.273 OA
ATOM     25  N   UNL     1      -2.906 -13.294   9.916  0.00  0.00    -0.283 N 
ATOM     26  C   UNL     1      -1.579 -13.082  10.280  0.00  0.00    +0.047 A 
ATOM     27  C   UNL     1      -1.245 -12.991  11.627  0.00  0.00    +0.024 A 
ATOM     28  C   UNL     1       0.067 -12.785  12.006  0.00  0.00    +0.002 A 
ATOM     29  C   UNL     1       1.062 -12.670  11.052  0.00  0.00    +0.001 A 
ATOM     30  C   UNL     1       0.744 -12.757   9.709  0.00  0.00    +0.016 A 
ATOM     31  C   UNL     1      -0.570 -12.960   9.324  0.00  0.00    +0.031 A 
ATOM     32  S   UNL     1      -0.991 -13.062   7.608  0.00  0.00    -0.100 S 
ATOM     33  H   UNL     1      -3.488 -13.684  10.588  0.00  0.00    +0.155 HD
ENDBRANCH  21  22
ENDBRANCH  20  21
ENDBRANCH  19  20
ENDBRANCH  17  19
ENDBRANCH   1  15
BRANCH   1  34
ATOM     34  C   UNL     1       1.197  -6.879   3.467  0.00  0.00    +0.067 C 
BRANCH  34  35
ATOM     35  C   UNL     1       1.831  -6.511   2.151  0.00  0.00    -0.045 A 
ATOM     36  C   UNL     1       1.668  -7.335   1.052  0.00  0.00    +0.004 A 
ATOM     37  C   UNL     1       2.250  -6.998  -0.156  0.00  0.00    +0.000 A 
ATOM     38  C   UNL     1       2.993  -5.838  -0.266  0.00  0.00    +0.000 A 
ATOM     39  C   UNL     1       3.155  -5.014   0.833  0.00  0.00    +0.000 A 
ATOM     40  C   UNL     1       2.570  -5.349   2.040  0.00  0.00    +0.004 A 
ENDBRANCH  34  35
ENDBRANCH   1  34
TORSDOF 9
