REMARK  Name = ZINC40701987
REMARK  10 active torsions:
REMARK  status: ('A' for Active; 'I' for Inactive)
REMARK    1  A    between atoms: C_1  and  C_2
REMARK    2  A    between atoms: C_2  and  N_3
REMARK    3  A    between atoms: N_3  and  C_4
REMARK    4  A    between atoms: C_15  and  N_31
REMARK    5  A    between atoms: C_16  and  N_20
REMARK    6  A    between atoms: N_20  and  C_21
REMARK    7  A    between atoms: C_23  and  C_29
REMARK    8  A    between atoms: C_23  and  C_30
REMARK    9  A    between atoms: C_25  and  C_27
REMARK   10  A    between atoms: C_25  and  C_28
REMARK                            x       y       z     vdW  Elec       q    Type
REMARK                         _______ _______ _______ _____ _____    ______ ____
ROOT
ATOM      1  N   UNL     1      -1.660  -0.221   0.080  0.00  0.00    -0.285 N 
ATOM      2  C   UNL     1      -2.245  -0.392   1.330  0.00  0.00    +0.129 A 
ATOM      3  C   UNL     1      -1.517  -0.138   2.494  0.00  0.00    +0.104 A 
ATOM      4  C   UNL     1      -2.153  -0.326   3.723  0.00  0.00    +0.145 A 
ATOM      5  N   UNL     1      -3.419  -0.736   3.737  0.00  0.00    -0.221 NA
ATOM      6  C   UNL     1      -4.071  -0.964   2.615  0.00  0.00    +0.200 A 
ATOM      7  N   UNL     1      -3.510  -0.794   1.435  0.00  0.00    -0.332 N 
ATOM      8  H   UNL     1      -4.024  -0.969   0.631  0.00  0.00    +0.168 HD
ENDROOT
BRANCH   1   9
ATOM      9  C   UNL     1      -1.095  -1.311  -0.580  0.00  0.00    +0.043 A 
ATOM     10  C   UNL     1       0.232  -1.631  -0.384  0.00  0.00    +0.024 A 
ATOM     11  C   UNL     1       0.805  -2.717  -1.038  0.00  0.00    +0.002 A 
ATOM     12  C   UNL     1       0.076  -3.492  -1.887  0.00  0.00    +0.008 A 
ATOM     13  C   UNL     1      -1.280  -3.200  -2.114  0.00  0.00    -0.016 A 
ATOM     14  C   UNL     1      -1.877  -2.101  -1.450  0.00  0.00    +0.003 A 
ATOM     15  C   UNL     1      -3.233  -1.814  -1.674  0.00  0.00    +0.010 A 
ATOM     16  C   UNL     1      -3.957  -2.597  -2.520  0.00  0.00    +0.001 A 
ATOM     17  C   UNL     1      -3.372  -3.682  -3.170  0.00  0.00    +0.001 A 
ATOM     18  C   UNL     1      -2.057  -3.983  -2.985  0.00  0.00    +0.008 A 
ENDBRANCH   1   9
BRANCH   3  19
ATOM     19  N   UNL     1      -0.183   0.293   2.430  0.00  0.00    -0.353 N 
ATOM     20  H   UNL     1       0.222   0.494   1.572  0.00  0.00    +0.143 HD
ATOM     21  H   UNL     1       0.335   0.389   3.245  0.00  0.00    +0.143 HD
ENDBRANCH   3  19
BRANCH   1  23
ATOM     22  C   UNL     1      -2.844   1.251  -1.474  0.00  0.00    +0.025 C 
ATOM     23  C   UNL     1      -1.638   1.105  -0.543  0.00  0.00    +0.109 C 
ENDBRANCH   1  23
BRANCH   4  24
ATOM     24  N   UNL     1      -1.474  -0.088   4.912  0.00  0.00    -0.325 N 
ATOM     25  H   UNL     1      -0.551   0.210   4.892  0.00  0.00    +0.148 HD
BRANCH  24  26
ATOM     26  C   UNL     1      -2.154  -0.289   6.198  0.00  0.00    +0.069 C 
ATOM     27  C   UNL     1      -2.898   0.992   6.578  0.00  0.00    +0.009 C 
ATOM     28  C   UNL     1      -3.601   0.803   7.922  0.00  0.00    -0.072 C 
ATOM     29  N   UNL     1      -2.685   0.360   8.962  0.00  0.00    +0.386 N 
ATOM     30  C   UNL     1      -1.776  -0.728   8.643  0.00  0.00    -0.072 C 
ATOM     31  C   UNL     1      -1.112  -0.577   7.279  0.00  0.00    +0.009 C 
ATOM     32  C   UNL     1      -2.467  -2.091   8.739  0.00  0.00    -0.010 C 
ATOM     33  C   UNL     1      -0.649  -0.719   9.704  0.00  0.00    -0.010 C 
ATOM     34  C   UNL     1      -4.794  -0.140   7.766  0.00  0.00    -0.010 C 
ATOM     35  C   UNL     1      -4.158   2.182   8.345  0.00  0.00    -0.010 C 
ATOM     36  H   UNL     1      -2.130   1.165   9.265  0.00  0.00    -0.084 HD
ATOM     37  H   UNL     1      -3.236   0.091   9.782  0.00  0.00    -0.084 HD
ENDBRANCH  24  26
ENDBRANCH   4  24
TORSDOF 5
