REMARK  Name = ZINC02601940
REMARK  3 active torsions:
REMARK  status: ('A' for Active; 'I' for Inactive)
REMARK    1  A    between atoms: C_1  and  C_2
REMARK    2  A    between atoms: C_8  and  N_13
REMARK    3  A    between atoms: N_19  and  C_20
REMARK                            x       y       z     vdW  Elec       q    Type
REMARK                         _______ _______ _______ _____ _____    ______ ____
ROOT
ATOM      1  C   UNL     1       3.501   3.183   0.644  0.00  0.00    +0.079 C 
ATOM      2  C   UNL     1       3.639   1.873  -0.134  0.00  0.00    +0.185 C 
ATOM      3  C   UNL     1       4.950   1.180   0.264  0.00  0.00    +0.096 C 
ATOM      4  C   UNL     1       4.974  -0.180  -0.438  0.00  0.00    +0.114 C 
ATOM      5  C   UNL     1       4.769   0.053  -1.919  0.00  0.00    +0.017 A 
ATOM      6  C   UNL     1       5.222  -0.898  -2.815  0.00  0.00    +0.041 A 
ATOM      7  C   UNL     1       5.034  -0.718  -4.172  0.00  0.00    +0.127 A 
ATOM      8  C   UNL     1       4.391   0.416  -4.635  0.00  0.00    +0.036 A 
ATOM      9  C   UNL     1       3.942   1.368  -3.744  0.00  0.00    +0.048 A 
ATOM     10  C   UNL     1       4.132   1.192  -2.376  0.00  0.00    +0.128 A 
ATOM     11  O   UNL     1       3.684   2.155  -1.530  0.00  0.00    -0.468 OA
ATOM     12  N   UNL     1       3.820  -0.954   0.048  0.00  0.00    -0.292 N 
ATOM     13  C   UNL     1       2.656  -0.331   0.297  0.00  0.00    +0.310 C 
ATOM     14  O   UNL     1       1.698  -0.995   0.642  0.00  0.00    -0.252 OA
ATOM     15  N   UNL     1       2.514   0.999   0.185  0.00  0.00    -0.216 N 
ATOM     16  H   UNL     1       3.900  -1.911   0.188  0.00  0.00    +0.151 HD
ENDROOT
BRANCH  15  17
ATOM     17  C   UNL     1       1.251   1.565   0.387  0.00  0.00    +0.043 A 
ATOM     18  C   UNL     1       0.811   1.846   1.674  0.00  0.00    +0.024 A 
ATOM     19  C   UNL     1      -0.439   2.399   1.871  0.00  0.00    +0.003 A 
ATOM     20  C   UNL     1      -1.249   2.685   0.787  0.00  0.00    +0.020 A 
ATOM     21  C   UNL     1      -0.814   2.406  -0.497  0.00  0.00    +0.043 A 
ATOM     22  C   UNL     1       0.434   1.847  -0.700  0.00  0.00    +0.043 A 
ATOM     23 CL   UNL     1      -1.837   2.759  -1.855  0.00  0.00    -0.083 Cl
ENDBRANCH  15  17
BRANCH   7  24
ATOM     24  N   UNL     1       5.518  -1.738  -5.129  0.00  0.00    +0.056 N 
ATOM     25  O   UNL     1       6.083  -2.736  -4.721  0.00  0.00    -0.126 OA
ATOM     26  O   UNL     1       5.352  -1.578  -6.325  0.00  0.00    -0.126 OA
ENDBRANCH   7  24
TORSDOF 2
