REMARK  Name = ZINC46581216
REMARK  7 active torsions:
REMARK  status: ('A' for Active; 'I' for Inactive)
REMARK    1  A    between atoms: C_1  and  C_2
REMARK    2  A    between atoms: C_3  and  C_19
REMARK    3  A    between atoms: C_7  and  N_18
REMARK    4  A    between atoms: C_9  and  S_11
REMARK    5  A    between atoms: S_11  and  C_12
REMARK    6  A    between atoms: C_12  and  C_14
REMARK    7  A    between atoms: C_12  and  C_15
REMARK                            x       y       z     vdW  Elec       q    Type
REMARK                         _______ _______ _______ _____ _____    ______ ____
ROOT
ATOM      1  C   UNL     1      -1.287   1.427   0.444  0.00  0.00    +0.045 C 
ATOM      2  C   UNL     1      -1.146  -0.073   0.394  0.00  0.00    -0.028 A 
ATOM      3  C   UNL     1      -1.693  -0.773  -0.610  0.00  0.00    -0.008 A 
ATOM      4  S   UNL     1      -1.260  -2.459  -0.227  0.00  0.00    -0.073 S 
ATOM      5  C   UNL     1      -0.356  -2.179   1.272  0.00  0.00    +0.115 A 
ATOM      6  C   UNL     1      -0.410  -0.777   1.431  0.00  0.00    +0.050 A 
ATOM      7  C   UNL     1       0.255  -0.264   2.579  0.00  0.00    +0.129 A 
ATOM      8  N   UNL     1       0.869  -1.101   3.400  0.00  0.00    -0.207 NA
ATOM      9  C   UNL     1       0.886  -2.411   3.188  0.00  0.00    +0.192 A 
ATOM     10  N   UNL     1       0.274  -2.947   2.139  0.00  0.00    -0.214 NA
ATOM     11  C   UNL     1      -2.486  -0.257  -1.783  0.00  0.00    +0.052 C 
ENDROOT
BRANCH   7  12
ATOM     12  N   UNL     1       0.261   1.095   2.835  0.00  0.00    -0.343 N 
ATOM     13  H   UNL     1       0.109   1.725   2.113  0.00  0.00    +0.144 HD
ATOM     14  H   UNL     1       0.416   1.418   3.736  0.00  0.00    +0.144 HD
ENDBRANCH   7  12
BRANCH   9  15
ATOM     15  S   UNL     1       1.725  -3.460   4.328  0.00  0.00    -0.073 S 
BRANCH  15  16
ATOM     16  C   UNL     1       2.381  -2.318   5.575  0.00  0.00    +0.137 C 
ATOM     17  C   UNL     1       3.421  -1.400   4.929  0.00  0.00    +0.029 C 
BRANCH  16  18
ATOM     18  C   UNL     1       3.026  -3.104   6.687  0.00  0.00    +0.224 C 
ATOM     19  O   UNL     1       3.452  -4.219   6.473  0.00  0.00    -0.275 OA
ATOM     20  N   UNL     1       3.129  -2.568   7.919  0.00  0.00    -0.328 N 
ATOM     21  H   UNL     1       2.788  -1.677   8.090  0.00  0.00    +0.145 HD
ATOM     22  H   UNL     1       3.544  -3.074   8.635  0.00  0.00    +0.145 HD
ENDBRANCH  16  18
ENDBRANCH  15  16
ENDBRANCH   9  15
TORSDOF 4
