REMARK  Name = ZINC59167193
REMARK  9 active torsions:
REMARK  status: ('A' for Active; 'I' for Inactive)
REMARK    1  A    between atoms: C_1  and  C_2
REMARK    2  A    between atoms: C_2  and  C_3
REMARK    3  A    between atoms: C_2  and  C_4
REMARK    4  A    between atoms: C_4  and  C_5
REMARK    5  A    between atoms: C_5  and  C_7
REMARK    6  A    between atoms: C_5  and  N_29
REMARK    7  A    between atoms: N_9  and  N_10
REMARK    8  A    between atoms: N_18  and  C_21
REMARK    9  A    between atoms: C_21  and  C_22
REMARK                            x       y       z     vdW  Elec       q    Type
REMARK                         _______ _______ _______ _____ _____    ______ ____
ROOT
ATOM      1  N   UNL     1       0.438  -2.902   5.172  0.00  0.00    -0.175 NA
ATOM      2  C   UNL     1       0.241  -4.184   5.361  0.00  0.00    +0.153 C 
ATOM      3  C   UNL     1       0.576  -4.980   6.565  0.00  0.00    +0.028 A 
ATOM      4  C   UNL     1       1.159  -4.660   7.786  0.00  0.00    +0.012 A 
ATOM      5  C   UNL     1       1.345  -5.646   8.735  0.00  0.00    +0.001 A 
ATOM      6  C   UNL     1       0.953  -6.947   8.469  0.00  0.00    +0.002 A 
ATOM      7  C   UNL     1       0.374  -7.274   7.260  0.00  0.00    +0.024 A 
ATOM      8  C   UNL     1       0.178  -6.295   6.292  0.00  0.00    +0.046 A 
ATOM      9  N   UNL     1      -0.371  -6.355   5.016  0.00  0.00    -0.261 N 
ATOM     10  C   UNL     1      -0.368  -5.149   4.423  0.00  0.00    +0.272 C 
ATOM     11  O   UNL     1      -0.789  -4.897   3.310  0.00  0.00    -0.268 OA
ENDROOT
BRANCH   1  14
ATOM     12  C   UNL     1       0.254  -0.986   3.770  0.00  0.00    +0.218 C 
ATOM     13  O   UNL     1       0.770  -0.317   4.640  0.00  0.00    -0.276 OA
ATOM     14  N   UNL     1       0.052  -2.304   3.965  0.00  0.00    -0.208 N 
ATOM     15  H   UNL     1      -0.360  -2.840   3.269  0.00  0.00    +0.177 HD
BRANCH  12  16
ATOM     16  C   UNL     1      -0.161  -0.344   2.472  0.00  0.00    +0.015 C 
BRANCH  16  17
ATOM     17  N   UNL     1      -0.290   1.107   2.663  0.00  0.00    +0.386 N 
ATOM     18  H   UNL     1       0.616   1.503   2.861  0.00  0.00    -0.089 HD
ATOM     19  H   UNL     1      -0.664   1.525   1.824  0.00  0.00    -0.089 HD
ATOM     20  H   UNL     1      -0.913   1.290   3.435  0.00  0.00    -0.089 HD
ENDBRANCH  16  17
BRANCH  16  21
ATOM     21  C   UNL     1       0.897  -0.625   1.403  0.00  0.00    -0.004 C 
BRANCH  21  23
ATOM     22  C   UNL     1       1.528  -0.239  -0.984  0.00  0.00    +0.007 C 
ATOM     23  C   UNL     1       0.414  -0.089   0.054  0.00  0.00    -0.018 C 
ATOM     24  C   UNL     1      -0.815  -0.880  -0.399  0.00  0.00    +0.007 C 
ENDBRANCH  21  23
ENDBRANCH  16  21
ENDBRANCH  12  16
ENDBRANCH   1  14
BRANCH   9  25
ATOM     25  C   UNL     1      -0.894  -7.576   4.399  0.00  0.00    +0.152 C 
BRANCH  25  26
ATOM     26  C   UNL     1      -2.358  -7.718   4.728  0.00  0.00    +0.005 A 
ATOM     27  C   UNL     1      -2.759  -8.565   5.744  0.00  0.00    +0.008 A 
ATOM     28  C   UNL     1      -4.102  -8.695   6.045  0.00  0.00    +0.000 A 
ATOM     29  C   UNL     1      -5.045  -7.979   5.331  0.00  0.00    +0.003 A 
ATOM     30  C   UNL     1      -4.646  -7.132   4.315  0.00  0.00    +0.038 A 
ATOM     31  C   UNL     1      -3.300  -6.997   4.016  0.00  0.00    +0.128 A 
ATOM     32  F   UNL     1      -2.909  -6.165   3.026  0.00  0.00    -0.205 F 
ENDBRANCH  25  26
ENDBRANCH   9  25
TORSDOF 7
