REMARK  Name = ZINC03400984
REMARK  11 active torsions:
REMARK  status: ('A' for Active; 'I' for Inactive)
REMARK    1  A    between atoms: C_1  and  C_2
REMARK    2  A    between atoms: C_5  and  C_28
REMARK    3  A    between atoms: C_6  and  C_8
REMARK    4  A    between atoms: C_8  and  O_10
REMARK    5  A    between atoms: O_10  and  C_11
REMARK    6  A    between atoms: C_11  and  C_13
REMARK    7  A    between atoms: C_11  and  C_14
REMARK    8  A    between atoms: N_16  and  C_17
REMARK    9  A    between atoms: C_19  and  N_25
REMARK   10  A    between atoms: C_22  and  O_23
REMARK   11  A    between atoms: O_23  and  C_24
REMARK                            x       y       z     vdW  Elec       q    Type
REMARK                         _______ _______ _______ _____ _____    ______ ____
ROOT
ATOM      1  C   UNL     1       0.103  -0.551  -0.296  0.00  0.00    +0.258 C 
ATOM      2  O   UNL     1       1.131  -1.186  -0.401  0.00  0.00    -0.271 OA
ATOM      3  N   UNL     1       0.130   0.794  -0.379  0.00  0.00    -0.279 N 
ATOM      4  H   UNL     1      -0.699   1.297  -0.380  0.00  0.00    +0.155 HD
ENDROOT
BRANCH   3   5
ATOM      5  C   UNL     1       1.357   1.466  -0.469  0.00  0.00    +0.078 A 
ATOM      6  C   UNL     1       2.513   0.871   0.015  0.00  0.00    +0.059 A 
ATOM      7  C   UNL     1       3.722   1.533  -0.081  0.00  0.00    +0.128 A 
ATOM      8  C   UNL     1       3.781   2.793  -0.648  0.00  0.00    +0.036 A 
ATOM      9  C   UNL     1       2.633   3.394  -1.129  0.00  0.00    +0.050 A 
ATOM     10  C   UNL     1       1.417   2.734  -1.042  0.00  0.00    +0.141 A 
BRANCH   7  11
ATOM     11  N   UNL     1       4.955   0.896   0.432  0.00  0.00    +0.056 N 
ATOM     12  O   UNL     1       6.021   1.480   0.353  0.00  0.00    -0.126 OA
ATOM     13  O   UNL     1       4.904  -0.214   0.933  0.00  0.00    -0.126 OA
ENDBRANCH   7  11
BRANCH  10  14
ATOM     14  O   UNL     1       0.287   3.324  -1.513  0.00  0.00    -0.493 OA
ATOM     15  C   UNL     1       0.425   4.626  -2.087  0.00  0.00    +0.277 C 
ENDBRANCH  10  14
ENDBRANCH   3   5
BRANCH   1  16
ATOM     16  C   UNL     1      -1.205  -1.266  -0.073  0.00  0.00    +0.259 C 
ATOM     17  C   UNL     1      -2.118  -1.048  -1.282  0.00  0.00    +0.062 C 
BRANCH  16  18
ATOM     18  O   UNL     1      -0.957  -2.687   0.096  0.00  0.00    -0.449 OA
BRANCH  18  19
ATOM     19  C   UNL     1      -1.815  -3.368   0.880  0.00  0.00    +0.340 C 
ATOM     20  O   UNL     1      -2.745  -2.791   1.407  0.00  0.00    -0.245 OA
BRANCH  19  26
ATOM     21  C   UNL     1       0.876  -7.517   0.218  0.00  0.00    +0.044 C 
ATOM     22  C   UNL     1      -0.334  -6.816   0.782  0.00  0.00    -0.050 A 
ATOM     23  C   UNL     1      -1.270  -7.532   1.507  0.00  0.00    +0.003 A 
ATOM     24  C   UNL     1      -2.383  -6.897   2.029  0.00  0.00    +0.004 A 
ATOM     25  C   UNL     1      -2.566  -5.545   1.829  0.00  0.00    -0.036 A 
ATOM     26  C   UNL     1      -1.625  -4.816   1.098  0.00  0.00    +0.062 A 
ATOM     27  C   UNL     1      -0.507  -5.465   0.570  0.00  0.00    +0.018 A 
ATOM     28  C   UNL     1      -3.780  -4.855   2.397  0.00  0.00    +0.044 C 
ENDBRANCH  19  26
ENDBRANCH  18  19
ENDBRANCH  16  18
ENDBRANCH   1  16
TORSDOF 7
