REMARK  Name = ZINC50834271
REMARK  6 active torsions:
REMARK  status: ('A' for Active; 'I' for Inactive)
REMARK    1  A    between atoms: C_1  and  C_2
REMARK    2  A    between atoms: C_7  and  S_9
REMARK    3  A    between atoms: S_9  and  C_10
REMARK    4  A    between atoms: C_10  and  C_11
REMARK    5  A    between atoms: C_12  and  N_16
REMARK    6  A    between atoms: N_16  and  C_17
REMARK                            x       y       z     vdW  Elec       q    Type
REMARK                         _______ _______ _______ _____ _____    ______ ____
ROOT
ATOM      1  S   UNL     1       0.053  -2.859   2.687  0.00  0.00    -0.080 S 
ENDROOT
BRANCH   1   8
ATOM      2  C   UNL     1      -0.018   1.503   0.010  0.00  0.00    +0.066 C 
ATOM      3  C   UNL     1       0.002  -0.004   0.002  0.00  0.00    +0.046 A 
ATOM      4  C   UNL     1       0.006  -0.696  -1.195  0.00  0.00    +0.095 A 
ATOM      5  C   UNL     1       0.025  -2.090  -1.157  0.00  0.00    +0.274 A 
ATOM      6  O   UNL     1       0.030  -2.808  -2.307  0.00  0.00    -0.266 OA
ATOM      7  N   UNL     1       0.039  -2.704   0.019  0.00  0.00    -0.183 NA
ATOM      8  C   UNL     1       0.035  -2.005   1.145  0.00  0.00    +0.192 A 
ATOM      9  N   UNL     1       0.022  -0.679   1.141  0.00  0.00    -0.227 NA
ENDBRANCH   1   8
BRANCH   1  10
ATOM     10  C   UNL     1       0.075  -4.611   2.217  0.00  0.00    +0.137 C 
BRANCH  10  11
ATOM     11  C   UNL     1       0.092  -5.463   3.460  0.00  0.00    +0.103 A 
ATOM     12  C   UNL     1       1.261  -5.851   4.052  0.00  0.00    +0.110 A 
ATOM     13  S   UNL     1       0.707  -6.756   5.356  0.00  0.00    +0.052 S 
ATOM     14  N   UNL     1      -0.941  -6.603   5.096  0.00  0.00    -0.108 NA
ATOM     15  N   UNL     1      -1.016  -5.871   4.037  0.00  0.00    -0.143 NA
BRANCH  12  16
ATOM     16  N   UNL     1       2.571  -5.571   3.672  0.00  0.00    -0.339 N 
ATOM     17  C   UNL     1       3.689  -6.094   4.460  0.00  0.00    +0.126 C 
ATOM     18  H   UNL     1       2.743  -5.029   2.887  0.00  0.00    +0.146 HD
ENDBRANCH  12  16
ENDBRANCH  10  11
ENDBRANCH   1  10
TORSDOF 4
