REMARK  Name = ZINC03840733
REMARK  15 active torsions:
REMARK  status: ('A' for Active; 'I' for Inactive)
REMARK    1  A    between atoms: C_1  and  C_2
REMARK    2  A    between atoms: C_10  and  C_12
REMARK    3  A    between atoms: C_12  and  C_13
REMARK    4  A    between atoms: C_13  and  C_14
REMARK    5  A    between atoms: C_13  and  C_15
REMARK    6  A    between atoms: C_13  and  C_16
REMARK    7  A    between atoms: C_18  and  C_38
REMARK    8  A    between atoms: C_21  and  O_37
REMARK    9  A    between atoms: C_23  and  C_27
REMARK   10  A    between atoms: C_27  and  C_29
REMARK   11  A    between atoms: C_27  and  C_30
REMARK   12  A    between atoms: N_32  and  C_33
REMARK   13  A    between atoms: C_33  and  C_34
REMARK   14  A    between atoms: C_34  and  O_35
REMARK   15  A    between atoms: O_35  and  C_36
REMARK                            x       y       z     vdW  Elec       q    Type
REMARK                         _______ _______ _______ _____ _____    ______ ____
ROOT
ATOM      1  C   UNL     1       3.742   5.419   2.459  0.00  0.00    +0.014 C 
ATOM      2  C   UNL     1       4.532   5.176   1.171  0.00  0.00    +0.042 C 
ATOM      3  C   UNL     1       5.919   5.803   1.277  0.00  0.00    +0.057 A 
ATOM      4  C   UNL     1       6.457   6.470   0.224  0.00  0.00    +0.015 A 
ATOM      5  S   UNL     1       8.026   6.999   0.857  0.00  0.00    -0.057 S 
ATOM      6  C   UNL     1       7.856   6.312   2.445  0.00  0.00    +0.165 A 
ATOM      7  N   UNL     1       6.666   5.752   2.377  0.00  0.00    -0.229 NA
ATOM      8  N   UNL     1       8.747   6.344   3.511  0.00  0.00    -0.265 N 
ATOM      9  C   UNL     1       9.931   6.976   3.381  0.00  0.00    +0.219 C 
ATOM     10  O   UNL     1      10.218   7.516   2.334  0.00  0.00    -0.275 OA
ATOM     11  C   UNL     1       5.854   6.688  -1.121  0.00  0.00    +0.051 C 
ATOM     12  C   UNL     1       4.647   5.761  -1.279  0.00  0.00    -0.022 C 
ATOM     13  C   UNL     1       3.785   5.801  -0.012  0.00  0.00    +0.033 C 
ATOM     14  C   UNL     1       2.526   4.959  -0.276  0.00  0.00    +0.123 C 
ATOM     15  C   UNL     1       2.949   3.512  -0.539  0.00  0.00    +0.029 C 
ATOM     16  C   UNL     1       3.862   3.450  -1.764  0.00  0.00    +0.007 C 
ATOM     17  C   UNL     1       5.098   4.324  -1.534  0.00  0.00    +0.008 C 
ATOM     18  C   UNL     1       3.809   6.225  -2.473  0.00  0.00    +0.012 C 
ATOM     19  H   UNL     1       8.517   5.913   4.349  0.00  0.00    +0.157 HD
ENDROOT
BRANCH  15  20
ATOM     20  C   UNL     1       1.705   2.657  -0.789  0.00  0.00    +0.077 C 
ATOM     21  C   UNL     1       0.793   2.713   0.438  0.00  0.00    +0.017 C 
BRANCH  20  22
ATOM     22  C   UNL     1       2.119   1.230  -1.042  0.00  0.00    +0.216 C 
ATOM     23  O   UNL     1       3.293   0.927  -1.025  0.00  0.00    -0.276 OA
ATOM     24  N   UNL     1       1.184   0.291  -1.289  0.00  0.00    -0.313 N 
ATOM     25  H   UNL     1       0.245   0.534  -1.307  0.00  0.00    +0.149 HD
BRANCH  24  26
ATOM     26  C   UNL     1       1.587  -1.096  -1.535  0.00  0.00    +0.132 C 
BRANCH  26  27
ATOM     27  C   UNL     1       0.343  -1.951  -1.785  0.00  0.00    +0.178 C 
BRANCH  27  28
ATOM     28  O   UNL     1      -0.295  -1.523  -2.990  0.00  0.00    -0.381 OA
ATOM     29  C   UNL     1      -1.474  -2.261  -3.317  0.00  0.00    +0.194 C 
ENDBRANCH  27  28
ENDBRANCH  26  27
ENDBRANCH  24  26
ENDBRANCH  20  22
ENDBRANCH  15  20
BRANCH  14  30
ATOM     30  O   UNL     1       1.834   5.471  -1.417  0.00  0.00    -0.391 OA
ATOM     31  H   UNL     1       1.034   4.978  -1.646  0.00  0.00    +0.210 HD
ENDBRANCH  14  30
BRANCH   9  32
ATOM     32  C   UNL     1      10.897   7.011   4.537  0.00  0.00    +0.102 C 
BRANCH  32  33
ATOM     33  C   UNL     1      12.152   7.784   4.129  0.00  0.00    -0.029 C 
ATOM     34  C   UNL     1      11.768   9.214   3.742  0.00  0.00    +0.011 C 
ATOM     35  C   UNL     1      13.133   7.820   5.303  0.00  0.00    +0.011 C 
ATOM     36  C   UNL     1      12.812   7.092   2.934  0.00  0.00    +0.011 C 
ENDBRANCH  32  33
ENDBRANCH   9  32
TORSDOF 8
