REMARK  Name = ZINC06379404
REMARK  3 active torsions:
REMARK  status: ('A' for Active; 'I' for Inactive)
REMARK    1  A    between atoms: C_1  and  N_2
REMARK    2  A    between atoms: C_3  and  C_10
REMARK    3  A    between atoms: C_10  and  O_20
REMARK                            x       y       z     vdW  Elec       q    Type
REMARK                         _______ _______ _______ _____ _____    ______ ____
ROOT
ATOM      1  C   UNL     1      -1.854  -0.562  -1.224  0.00  0.00    +0.196 C 
ATOM      2  C   UNL     1      -2.147   0.918  -1.307  0.00  0.00    +0.016 A 
ATOM      3  C   UNL     1      -1.337   2.030  -1.368  0.00  0.00    +0.009 A 
ATOM      4  C   UNL     1      -1.902   3.292  -1.439  0.00  0.00    +0.000 A 
ATOM      5  C   UNL     1      -3.278   3.430  -1.447  0.00  0.00    +0.002 A 
ATOM      6  C   UNL     1      -4.091   2.317  -1.386  0.00  0.00    +0.024 A 
ATOM      7  C   UNL     1      -3.530   1.044  -1.314  0.00  0.00    +0.040 A 
ATOM      8  N   UNL     1      -4.129  -0.215  -1.244  0.00  0.00    -0.282 N 
ATOM      9  C   UNL     1      -3.224  -1.206  -1.189  0.00  0.00    +0.256 C 
ATOM     10  O   UNL     1      -3.460  -2.394  -1.123  0.00  0.00    -0.272 OA
ATOM     11  H   UNL     1      -5.088  -0.357  -1.237  0.00  0.00    +0.155 HD
ENDROOT
BRANCH   1  14
ATOM     12  C   UNL     1      -0.212  -3.252  -0.701  0.00  0.00    +0.132 C 
ATOM     13  N   UNL     1      -0.911  -2.342   0.209  0.00  0.00    -0.293 N 
ATOM     14  C   UNL     1      -1.077  -0.885   0.054  0.00  0.00    +0.209 C 
ATOM     15  C   UNL     1      -1.875  -0.494   1.283  0.00  0.00    +0.263 C 
ATOM     16  O   UNL     1      -2.252   0.620   1.586  0.00  0.00    -0.271 OA
ATOM     17  N   UNL     1      -2.078  -1.621   1.961  0.00  0.00    -0.150 NA
ATOM     18  C   UNL     1      -1.547  -2.669   1.367  0.00  0.00    +0.173 C 
ATOM     19  N   UNL     1      -1.622  -3.937   1.859  0.00  0.00    -0.333 N 
ATOM     20  H   UNL     1      -1.207  -4.669   1.377  0.00  0.00    +0.145 HD
ATOM     21  H   UNL     1      -2.090  -4.107   2.692  0.00  0.00    +0.145 HD
ENDBRANCH   1  14
BRANCH   1  22
ATOM     22  O   UNL     1      -1.126  -0.997  -2.374  0.00  0.00    -0.373 OA
ATOM     23  H   UNL     1      -1.573  -0.818  -3.213  0.00  0.00    +0.211 HD
ENDBRANCH   1  22
TORSDOF 2
