REMARK  Name = ZINC40569445
REMARK  8 active torsions:
REMARK  status: ('A' for Active; 'I' for Inactive)
REMARK    1  A    between atoms: C_1  and  C_2
REMARK    2  A    between atoms: C_2  and  C_3
REMARK    3  A    between atoms: C_3  and  C_4
REMARK    4  A    between atoms: N_10  and  C_11
REMARK    5  A    between atoms: C_11  and  C_12
REMARK    6  A    between atoms: C_13  and  C_21
REMARK    7  A    between atoms: C_15  and  C_19
REMARK    8  A    between atoms: C_16  and  N_18
REMARK                            x       y       z     vdW  Elec       q    Type
REMARK                         _______ _______ _______ _____ _____    ______ ____
ROOT
ATOM      1  C   UNL     1       0.591  -1.989  -1.273  0.00  0.00    +0.025 A 
ATOM      2  C   UNL     1      -0.371  -2.557  -2.032  0.00  0.00    +0.068 A 
ATOM      3  C   UNL     1      -0.402  -3.958  -2.190  0.00  0.00    +0.141 A 
ATOM      4  C   UNL     1       0.558  -4.723  -1.561  0.00  0.00    +0.072 A 
ATOM      5  C   UNL     1       1.537  -4.089  -0.784  0.00  0.00    +0.259 A 
ATOM      6  O   UNL     1       2.393  -4.753  -0.222  0.00  0.00    -0.267 OA
ATOM      7  N   UNL     1       1.537  -2.749  -0.661  0.00  0.00    -0.312 N 
ATOM      8  C   UNL     1       0.562  -6.220  -1.701  0.00  0.00    +0.107 C 
ATOM      9  C   UNL     1      -0.298  -6.633  -2.863  0.00  0.00    +0.098 C 
ATOM     10  C   UNL     1      -1.195  -5.780  -3.412  0.00  0.00    +0.199 C 
ATOM     11  O   UNL     1      -1.362  -4.529  -2.948  0.00  0.00    -0.441 OA
ENDROOT
BRANCH   8  12
ATOM     12  C   UNL     1       0.023  -6.841  -0.439  0.00  0.00    +0.019 A 
ATOM     13  C   UNL     1      -1.264  -6.551  -0.019  0.00  0.00    +0.129 A 
ATOM     14  C   UNL     1      -1.759  -7.122   1.141  0.00  0.00    +0.039 A 
ATOM     15  C   UNL     1      -0.967  -7.982   1.880  0.00  0.00    +0.004 A 
ATOM     16  C   UNL     1       0.317  -8.271   1.461  0.00  0.00    +0.020 A 
ATOM     17  C   UNL     1       0.811  -7.706   0.298  0.00  0.00    +0.048 A 
ATOM     18 CL   UNL     1       2.422  -8.076  -0.231  0.00  0.00    -0.083 Cl
ATOM     19  F   UNL     1      -2.037  -5.710  -0.741  0.00  0.00    -0.205 F 
ENDBRANCH   8  12
BRANCH  10  20
ATOM     20  N   UNL     1      -1.957  -6.205  -4.471  0.00  0.00    -0.328 N 
ATOM     21  H   UNL     1      -1.849  -7.105  -4.816  0.00  0.00    +0.145 HD
ATOM     22  H   UNL     1      -2.604  -5.606  -4.875  0.00  0.00    +0.145 HD
ENDBRANCH  10  20
BRANCH   7  23
ATOM     23  C   UNL     1       2.570  -2.099   0.149  0.00  0.00    +0.122 C 
ATOM     24  C   UNL     1       2.093  -2.002   1.600  0.00  0.00    +0.027 C 
ENDBRANCH   7  23
BRANCH   9  25
ATOM     25  C   UNL     1      -0.165  -7.954  -3.401  0.00  0.00    +0.101 C 
ATOM     26  N   UNL     1      -0.060  -9.002  -3.827  0.00  0.00    -0.191 NA
ENDBRANCH   9  25
BRANCH   1  27
ATOM     27  C   UNL     1       0.619  -0.491  -1.108  0.00  0.00    +0.053 C 
BRANCH  27  29
ATOM     28  C   UNL     1       1.457   1.650  -2.084  0.00  0.00    +0.004 C 
ATOM     29  C   UNL     1       1.510   0.125  -2.188  0.00  0.00    +0.003 C 
ENDBRANCH  27  29
ENDBRANCH   1  27
TORSDOF 6
