REMARK  Name = ZINC39561243
REMARK  8 active torsions:
REMARK  status: ('A' for Active; 'I' for Inactive)
REMARK    1  A    between atoms: C_1  and  N_2
REMARK    2  A    between atoms: N_2  and  C_19
REMARK    3  A    between atoms: C_3  and  C_5
REMARK    4  A    between atoms: C_5  and  O_6
REMARK    5  A    between atoms: O_6  and  C_7
REMARK    6  A    between atoms: C_7  and  C_9
REMARK    7  A    between atoms: C_11  and  N_17
REMARK    8  A    between atoms: C_19  and  C_25
REMARK                            x       y       z     vdW  Elec       q    Type
REMARK                         _______ _______ _______ _____ _____    ______ ____
ROOT
ATOM      1  O   UNL     1       0.048  -0.872   3.556  0.00  0.00    -0.451 OA
ENDROOT
BRANCH   1   2
ATOM      2  C   UNL     1       0.052  -0.364   4.803  0.00  0.00    +0.360 C 
ATOM      3  O   UNL     1       0.038   0.839   4.969  0.00  0.00    -0.243 OA
BRANCH   2   4
ATOM      4  C   UNL     1       0.076  -1.271   5.971  0.00  0.00    +0.169 A 
ATOM      5  C   UNL     1       0.075  -0.739   7.258  0.00  0.00    +0.095 A 
ATOM      6  C   UNL     1       0.097  -1.609   8.349  0.00  0.00    +0.067 A 
ATOM      7  C   UNL     1       0.119  -2.980   8.102  0.00  0.00    +0.100 A 
ATOM      8  C   UNL     1       0.118  -3.433   6.792  0.00  0.00    +0.150 A 
ATOM      9  N   UNL     1       0.092  -2.587   5.782  0.00  0.00    -0.226 NA
ATOM     10 CL   UNL     1       0.145  -5.140   6.476  0.00  0.00    -0.060 Cl
ATOM     11 CL   UNL     1       0.147  -4.109   9.420  0.00  0.00    -0.078 Cl
ATOM     12 CL   UNL     1       0.048   0.980   7.501  0.00  0.00    -0.079 Cl
BRANCH   6  13
ATOM     13  N   UNL     1       0.097  -1.118   9.653  0.00  0.00    -0.356 N 
ATOM     14  H   UNL     1       0.082  -0.161   9.811  0.00  0.00    +0.142 HD
ATOM     15  H   UNL     1       0.113  -1.734  10.403  0.00  0.00    +0.142 HD
ENDBRANCH   6  13
ENDBRANCH   2   4
ENDBRANCH   1   2
BRANCH   1  16
ATOM     16  C   UNL     1       0.025   0.062   2.475  0.00  0.00    +0.328 C 
BRANCH  16  19
ATOM     17  C   UNL     1      -0.018   1.461   0.010  0.00  0.00    +0.133 C 
ATOM     18  N   UNL     1       0.002  -0.004   0.002  0.00  0.00    -0.283 N 
ATOM     19  C   UNL     1       0.022  -0.684   1.165  0.00  0.00    +0.254 C 
ATOM     20  O   UNL     1       0.039  -1.897   1.159  0.00  0.00    -0.272 OA
BRANCH  18  21
ATOM     21  C   UNL     1      -0.000  -0.730  -1.271  0.00  0.00    +0.124 C 
ATOM     22  C   UNL     1      -1.238  -1.626  -1.345  0.00  0.00    +0.041 C 
ATOM     23  C   UNL     1      -1.240  -2.384  -2.674  0.00  0.00    +0.003 C 
ATOM     24  C   UNL     1      -1.265  -1.383  -3.831  0.00  0.00    +0.000 C 
ATOM     25  C   UNL     1      -0.027  -0.487  -3.757  0.00  0.00    +0.003 C 
ATOM     26  C   UNL     1      -0.025   0.271  -2.428  0.00  0.00    +0.041 C 
BRANCH  21  27
ATOM     27  C   UNL     1       1.212  -1.559  -1.365  0.00  0.00    +0.089 C 
ATOM     28  N   UNL     1       2.148  -2.199  -1.437  0.00  0.00    -0.194 NA
ENDBRANCH  21  27
ENDBRANCH  18  21
ENDBRANCH  16  19
ENDBRANCH   1  16
TORSDOF 7
