REMARK  Name = ZINC37969329
REMARK  4 active torsions:
REMARK  status: ('A' for Active; 'I' for Inactive)
REMARK    1  A    between atoms: C_6  and  O_7
REMARK    2  A    between atoms: C_10  and  C_11
REMARK    3  A    between atoms: C_10  and  N_13
REMARK    4  A    between atoms: N_13  and  C_14
REMARK                            x       y       z     vdW  Elec       q    Type
REMARK                         _______ _______ _______ _____ _____    ______ ____
ROOT
ATOM      1  C   UNL     1      -0.017   1.383   0.010  0.00  0.00    +0.046 A 
ATOM      2  C   UNL     1       1.175   2.085   0.002  0.00  0.00    +0.014 A 
ATOM      3  C   UNL     1       2.374   1.408  -0.012  0.00  0.00    +0.032 A 
ATOM      4  C   UNL     1       2.409   0.018  -0.012  0.00  0.00    +0.130 A 
ATOM      5  C   UNL     1       1.208  -0.685  -0.009  0.00  0.00    +0.091 A 
ATOM      6  C   UNL     1       0.002  -0.004   0.002  0.00  0.00    +0.120 A 
ATOM      7  O   UNL     1       3.689  -0.443  -0.004  0.00  0.00    -0.488 OA
ATOM      8  C   UNL     1       4.572   0.603  -0.445  0.00  0.00    +0.271 C 
ATOM      9  C   UNL     1       3.813   1.887  -0.035  0.00  0.00    +0.170 C 
ENDROOT
BRANCH   6  10
ATOM     10  O   UNL     1      -1.167  -0.697   0.005  0.00  0.00    -0.507 OA
ATOM     11  H   UNL     1      -1.511  -0.893  -0.877  0.00  0.00    +0.292 HD
ENDBRANCH   6  10
BRANCH   9  12
ATOM     12  C   UNL     1       4.236   2.345   1.299  0.00  0.00    +0.093 C 
ATOM     13  N   UNL     1       4.562   2.698   2.328  0.00  0.00    -0.194 NA
ENDBRANCH   9  12
BRANCH   9  14
ATOM     14  N   UNL     1       3.997   2.948  -1.034  0.00  0.00    -0.290 NA
ATOM     15  H   UNL     1       3.704   2.638  -1.949  0.00  0.00    +0.124 HD
BRANCH  14  16
ATOM     16  C   UNL     1       5.390   3.413  -1.057  0.00  0.00    +0.055 C 
ATOM     17  C   UNL     1       5.588   4.483   0.018  0.00  0.00    +0.019 C 
ATOM     18  C   UNL     1       7.039   4.968  -0.006  0.00  0.00    +0.002 C 
ATOM     19  C   UNL     1       7.356   5.562  -1.380  0.00  0.00    +0.000 C 
ATOM     20  C   UNL     1       7.158   4.492  -2.455  0.00  0.00    +0.002 C 
ATOM     21  C   UNL     1       5.707   4.007  -2.431  0.00  0.00    +0.019 C 
ENDBRANCH  14  16
ENDBRANCH   9  14
TORSDOF 4
