REMARK  Name = ZINC42427217
REMARK  7 active torsions:
REMARK  status: ('A' for Active; 'I' for Inactive)
REMARK    1  A    between atoms: N_5  and  C_9
REMARK    2  A    between atoms: C_7  and  N_8
REMARK    3  A    between atoms: C_9  and  C_10
REMARK    4  A    between atoms: C_10  and  C_11
REMARK    5  A    between atoms: C_11  and  N_12
REMARK    6  A    between atoms: C_15  and  C_18
REMARK    7  A    between atoms: C_18  and  C_19
REMARK                            x       y       z     vdW  Elec       q    Type
REMARK                         _______ _______ _______ _____ _____    ______ ____
ROOT
ATOM      1  C   UNL     1       5.412  -1.737   1.384  0.00  0.00    -0.077 C 
ENDROOT
BRANCH   1   2
ATOM      2  N   UNL     1       5.849  -1.990   2.763  0.00  0.00    +0.380 N 
ATOM      3  C   UNL     1       4.886  -2.878   3.425  0.00  0.00    -0.079 C 
ATOM      4  C   UNL     1       5.293  -3.079   4.887  0.00  0.00    -0.015 C 
ATOM      5  C   UNL     1       6.689  -3.706   4.940  0.00  0.00    -0.006 C 
ATOM      6  C   UNL     1       7.671  -2.808   4.183  0.00  0.00    -0.015 C 
ATOM      7  C   UNL     1       7.176  -2.617   2.747  0.00  0.00    -0.079 C 
ATOM      8  H   UNL     1       5.898  -1.115   3.265  0.00  0.00    -0.082 HD
BRANCH   5   9
ATOM      9  C   UNL     1       7.136  -3.837   6.398  0.00  0.00    +0.099 C 
BRANCH   9  10
ATOM     10  C   UNL     1       8.454  -4.565   6.456  0.00  0.00    +0.211 C 
ATOM     11  O   UNL     1       8.984  -4.942   5.432  0.00  0.00    -0.276 OA
ATOM     12  N   UNL     1       9.044  -4.797   7.645  0.00  0.00    -0.329 N 
ATOM     13  H   UNL     1       8.620  -4.496   8.464  0.00  0.00    +0.145 HD
ATOM     14  H   UNL     1       9.892  -5.266   7.683  0.00  0.00    +0.145 HD
ENDBRANCH   9  10
ENDBRANCH   5   9
ENDBRANCH   1   2
BRANCH   1  15
ATOM     15  C   UNL     1       4.087  -0.972   1.400  0.00  0.00    +0.003 C 
BRANCH  15  16
ATOM     16  C   UNL     1       3.632  -0.709  -0.036  0.00  0.00    +0.123 C 
BRANCH  16  21
ATOM     17  C   UNL     1      -0.017   1.402   0.010  0.00  0.00    +0.029 A 
ATOM     18  C   UNL     1       1.164   2.084   0.002  0.00  0.00    +0.072 A 
ATOM     19  C   UNL     1       2.373   1.370  -0.013  0.00  0.00    +0.251 A 
ATOM     20  O   UNL     1       3.436   1.972  -0.020  0.00  0.00    -0.268 OA
ATOM     21  N   UNL     1       2.364   0.024  -0.020  0.00  0.00    -0.314 N 
ATOM     22  C   UNL     1       1.190  -0.664  -0.013  0.00  0.00    +0.111 A 
ATOM     23  C   UNL     1       0.002  -0.004   0.002  0.00  0.00    +0.041 A 
BRANCH  23  24
ATOM     24  N   UNL     1      -1.202  -0.724   0.010  0.00  0.00    -0.357 N 
ATOM     25  H   UNL     1      -2.050  -0.252   0.021  0.00  0.00    +0.142 HD
ATOM     26  H   UNL     1      -1.188  -1.694   0.005  0.00  0.00    +0.142 HD
ENDBRANCH  23  24
ENDBRANCH  16  21
ENDBRANCH  15  16
ENDBRANCH   1  15
TORSDOF 7
