REMARK  Name = ZINC20464905
REMARK  9 active torsions:
REMARK  status: ('A' for Active; 'I' for Inactive)
REMARK    1  A    between atoms: C_4  and  N_7
REMARK    2  A    between atoms: N_10  and  C_13
REMARK    3  A    between atoms: C_15  and  C_25
REMARK    4  A    between atoms: C_18  and  C_23
REMARK    5  A    between atoms: C_20  and  O_22
REMARK    6  A    between atoms: C_23  and  O_24
REMARK    7  A    between atoms: C_25  and  N_26
REMARK    8  A    between atoms: N_26  and  C_27
REMARK    9  A    between atoms: C_27  and  C_28
REMARK                            x       y       z     vdW  Elec       q    Type
REMARK                         _______ _______ _______ _____ _____    ______ ____
ROOT
ATOM      1  C   UNL     1      -6.046   5.740   1.022  0.00  0.00    +0.115 C 
ATOM      2  C   UNL     1      -6.423   6.072   2.479  0.00  0.00    +0.122 C 
ATOM      3  O   UNL     1      -6.758   7.469   2.526  0.00  0.00    -0.369 OA
ATOM      4  C   UNL     1      -7.217   7.837   1.208  0.00  0.00    +0.174 C 
ATOM      5  C   UNL     1      -6.255   7.073   0.263  0.00  0.00    +0.165 C 
ENDROOT
BRANCH   1   9
ATOM      6  N   UNL     1      -2.480   3.718  -0.001  0.00  0.00    -0.327 N 
ATOM      7  C   UNL     1      -2.638   5.107  -0.453  0.00  0.00    +0.120 C 
ATOM      8  C   UNL     1      -4.121   5.485  -0.425  0.00  0.00    +0.104 C 
ATOM      9  N   UNL     1      -4.642   5.315   0.938  0.00  0.00    -0.292 NA
ATOM     10  C   UNL     1      -4.484   3.926   1.390  0.00  0.00    +0.104 C 
ATOM     11  C   UNL     1      -3.001   3.549   1.363  0.00  0.00    +0.120 C 
BRANCH   6  15
ATOM     12  C   UNL     1       1.499   2.515  -0.237  0.00  0.00    +0.000 A 
ATOM     13  C   UNL     1       0.824   2.433   0.967  0.00  0.00    +0.002 A 
ATOM     14  C   UNL     1      -0.498   2.826   1.048  0.00  0.00    +0.023 A 
ATOM     15  C   UNL     1      -1.146   3.314  -0.080  0.00  0.00    +0.030 A 
ATOM     16  C   UNL     1      -0.465   3.395  -1.288  0.00  0.00    +0.023 A 
ATOM     17  C   UNL     1       0.855   2.995  -1.363  0.00  0.00    +0.002 A 
ENDBRANCH   6  15
ENDBRANCH   1   9
BRANCH   5  18
ATOM     18  O   UNL     1      -5.019   7.775   0.116  0.00  0.00    -0.388 OA
ATOM     19  H   UNL     1      -4.996   8.745  -0.403  0.00  0.00    +0.210 HD
ENDBRANCH   5  18
BRANCH   4  20
ATOM     20  C   UNL     1      -7.096   9.348   0.998  0.00  0.00    +0.190 C 
BRANCH  20  21
ATOM     21  O   UNL     1      -8.003  10.024   1.871  0.00  0.00    -0.392 OA
ATOM     22  H   UNL     1      -8.059  11.123   1.862  0.00  0.00    +0.210 HD
ENDBRANCH  20  21
ENDBRANCH   4  20
BRANCH   2  23
ATOM     23  C   UNL     1      -5.237   5.786   3.401  0.00  0.00    -0.049 C 
BRANCH  23  24
ATOM     24  N   UNL     1      -5.519   6.318   4.741  0.00  0.00    +0.383 N 
ATOM     25  H   UNL     1      -5.681   7.404   4.677  0.00  0.00    -0.085 HD
ATOM     26  H   UNL     1      -6.421   5.836   5.144  0.00  0.00    -0.085 HD
BRANCH  24  27
ATOM     27  C   UNL     1      -4.399   6.061   5.656  0.00  0.00    -0.047 C 
BRANCH  27  28
ATOM     28  C   UNL     1      -4.724   6.620   7.017  0.00  0.00    -0.064 A 
ATOM     29  C   UNL     1      -4.374   7.920   7.332  0.00  0.00    +0.004 A 
ATOM     30  C   UNL     1      -4.676   8.435   8.578  0.00  0.00    +0.038 A 
ATOM     31  C   UNL     1      -5.320   7.646   9.516  0.00  0.00    +0.123 A 
ATOM     32  C   UNL     1      -5.665   6.342   9.201  0.00  0.00    +0.038 A 
ATOM     33  C   UNL     1      -5.367   5.831   7.952  0.00  0.00    +0.004 A 
ATOM     34  F   UNL     1      -5.611   8.147  10.736  0.00  0.00    -0.205 F 
ENDBRANCH  27  28
ENDBRANCH  24  27
ENDBRANCH  23  24
ENDBRANCH   2  23
TORSDOF 9
