REMARK  Name = ZINC09162781
REMARK  18 active torsions:
REMARK  status: ('A' for Active; 'I' for Inactive)
REMARK    1  A    between atoms: C_1  and  C_2
REMARK    2  A    between atoms: C_2  and  C_3
REMARK    3  A    between atoms: C_3  and  C_4
REMARK    4  A    between atoms: C_4  and  N_5
REMARK    5  A    between atoms: C_6  and  N_35
REMARK    6  A    between atoms: C_7  and  N_14
REMARK    7  A    between atoms: N_14  and  C_15
REMARK    8  A    between atoms: C_15  and  C_16
REMARK    9  A    between atoms: C_16  and  C_17
REMARK   10  A    between atoms: C_16  and  C_18
REMARK   11  A    between atoms: C_19  and  C_21
REMARK   12  A    between atoms: C_21  and  O_22
REMARK   13  A    between atoms: O_22  and  C_23
REMARK   14  A    between atoms: C_23  and  C_25
REMARK   15  A    between atoms: C_30  and  N_31
REMARK   16  A    between atoms: N_31  and  C_32
REMARK   17  A    between atoms: C_32  and  C_33
REMARK   18  A    between atoms: C_33  and  O_34
REMARK                            x       y       z     vdW  Elec       q    Type
REMARK                         _______ _______ _______ _____ _____    ______ ____
ROOT
ATOM      1  N   UNL     1       0.930  -3.253  -6.113  0.00  0.00    -0.261 N 
ATOM      2  C   UNL     1      -0.354  -2.864  -6.264  0.00  0.00    +0.258 C 
ATOM      3  O   UNL     1      -0.962  -2.401  -5.322  0.00  0.00    -0.272 OA
ENDROOT
BRANCH   1   6
ATOM      4  N   UNL     1       3.348  -2.023  -3.635  0.00  0.00    -0.280 N 
ATOM      5  C   UNL     1       2.720  -2.226  -4.842  0.00  0.00    +0.127 A 
ATOM      6  C   UNL     1       1.596  -3.026  -4.891  0.00  0.00    +0.140 A 
ATOM      7  C   UNL     1       1.127  -3.611  -3.700  0.00  0.00    +0.277 A 
ATOM      8  O   UNL     1       0.137  -4.323  -3.715  0.00  0.00    -0.266 OA
ATOM      9  N   UNL     1       1.779  -3.380  -2.544  0.00  0.00    -0.273 N 
ATOM     10  H   UNL     1       1.457  -3.783  -1.723  0.00  0.00    +0.173 HD
ATOM     11  C   UNL     1       2.876  -2.602  -2.516  0.00  0.00    +0.331 A 
ATOM     12  O   UNL     1       3.448  -2.414  -1.460  0.00  0.00    -0.246 OA
BRANCH   5  13
ATOM     13  N   UNL     1       3.205  -1.638  -5.986  0.00  0.00    -0.343 N 
ATOM     14  H   UNL     1       3.953  -1.023  -5.935  0.00  0.00    +0.144 HD
ATOM     15  H   UNL     1       2.799  -1.839  -6.844  0.00  0.00    +0.144 HD
ENDBRANCH   5  13
BRANCH   4  16
ATOM     16  C   UNL     1       4.541  -1.176  -3.569  0.00  0.00    +0.128 C 
BRANCH  16  17
ATOM     17  C   UNL     1       5.788  -2.034  -3.791  0.00  0.00    +0.021 C 
BRANCH  17  19
ATOM     18  C   UNL     1       8.282  -2.007  -3.945  0.00  0.00    +0.004 C 
ATOM     19  C   UNL     1       7.035  -1.149  -3.722  0.00  0.00    -0.002 C 
ENDBRANCH  17  19
ENDBRANCH  16  17
ENDBRANCH   4  16
ENDBRANCH   1   6
BRANCH   1  20
ATOM     20  C   UNL     1       1.631  -3.911  -7.219  0.00  0.00    +0.117 C 
BRANCH  20  21
ATOM     21  C   UNL     1       1.315  -5.408  -7.203  0.00  0.00    +0.001 C 
ATOM     22  C   UNL     1       1.922  -6.070  -8.442  0.00  0.00    +0.009 C 
ATOM     23  C   UNL     1       1.910  -6.041  -5.944  0.00  0.00    +0.009 C 
ENDBRANCH  20  21
ENDBRANCH   1  20
BRANCH   2  24
ATOM     24  C   UNL     1      -1.031  -3.005  -7.603  0.00  0.00    +0.328 C 
BRANCH  24  25
ATOM     25  O   UNL     1      -2.375  -2.528  -7.510  0.00  0.00    -0.452 OA
BRANCH  25  26
ATOM     26  C   UNL     1      -3.123  -2.584  -8.629  0.00  0.00    +0.341 C 
ATOM     27  O   UNL     1      -2.648  -3.026  -9.656  0.00  0.00    -0.245 OA
BRANCH  26  28
ATOM     28  C   UNL     1      -4.518  -2.111  -8.607  0.00  0.00    +0.080 A 
ATOM     29  C   UNL     1      -5.032  -1.490  -7.465  0.00  0.00    +0.017 A 
ATOM     30  C   UNL     1      -6.337  -1.049  -7.451  0.00  0.00    +0.001 A 
ATOM     31  C   UNL     1      -7.145  -1.217  -8.564  0.00  0.00    +0.002 A 
ATOM     32  C   UNL     1      -6.653  -1.828  -9.699  0.00  0.00    +0.024 A 
ATOM     33  C   UNL     1      -5.338  -2.274  -9.735  0.00  0.00    +0.041 A 
BRANCH  33  34
ATOM     34  N   UNL     1      -4.838  -2.883 -10.878  0.00  0.00    -0.341 N 
ATOM     35  H   UNL     1      -3.952  -3.278 -10.870  0.00  0.00    +0.146 HD
BRANCH  34  36
ATOM     36  C   UNL     1      -5.650  -2.931 -12.097  0.00  0.00    +0.129 C 
BRANCH  36  37
ATOM     37  C   UNL     1      -4.872  -3.651 -13.200  0.00  0.00    +0.174 C 
BRANCH  37  38
ATOM     38  O   UNL     1      -4.670  -5.016 -12.827  0.00  0.00    -0.393 OA
ATOM     39  H   UNL     1      -4.182  -5.535 -13.481  0.00  0.00    +0.209 HD
ENDBRANCH  37  38
ENDBRANCH  36  37
ENDBRANCH  34  36
ENDBRANCH  33  34
ENDBRANCH  26  28
ENDBRANCH  25  26
ENDBRANCH  24  25
ENDBRANCH   2  24
TORSDOF 15
