REMARK  Name = ZINC06418307
REMARK  3 active torsions:
REMARK  status: ('A' for Active; 'I' for Inactive)
REMARK    1  A    between atoms: C_1  and  C_2
REMARK    2  A    between atoms: C_3  and  C_10
REMARK    3  A    between atoms: C_13  and  N_15
REMARK                            x       y       z     vdW  Elec       q    Type
REMARK                         _______ _______ _______ _____ _____    ______ ____
ROOT
ATOM      1  C   UNL     1      -2.531   0.064  -1.239  0.00  0.00    +0.089 A 
ATOM      2  C   UNL     1      -3.565  -0.828  -1.327  0.00  0.00    +0.077 A 
ATOM      3  S   UNL     1      -4.936   0.200  -0.817  0.00  0.00    -0.056 S 
ATOM      4  C   UNL     1      -4.003   1.699  -0.541  0.00  0.00    +0.196 A 
ATOM      5  N   UNL     1      -2.773   1.304  -0.843  0.00  0.00    -0.220 NA
ENDROOT
BRANCH   1   8
ATOM      6  C   UNL     1      -0.048   1.809  -1.128  0.00  0.00    +0.067 C 
ATOM      7  C   UNL     1      -0.012   0.363  -1.550  0.00  0.00    +0.058 A 
ATOM      8  C   UNL     1      -1.152  -0.356  -1.577  0.00  0.00    +0.063 A 
ATOM      9  S   UNL     1      -0.561  -1.949  -2.129  0.00  0.00    -0.046 S 
ATOM     10  C   UNL     1       1.157  -1.524  -2.277  0.00  0.00    +0.196 A 
ATOM     11  N   UNL     1       1.181  -0.214  -1.909  0.00  0.00    -0.210 N 
ATOM     12  N   UNL     1       2.547   0.154  -2.025  0.00  0.00    -0.153 NA
ATOM     13  C   UNL     1       3.208  -0.896  -2.434  0.00  0.00    +0.246 A 
ATOM     14  N   UNL     1       2.365  -1.916  -2.580  0.00  0.00    -0.208 NA
ENDBRANCH   1   8
BRANCH   4  15
ATOM     15  N   UNL     1      -4.438   2.918  -0.126  0.00  0.00    -0.189 NA
ATOM     16  C   UNL     1      -3.570   3.873   0.135  0.00  0.00    +0.195 C 
ATOM     17  N   UNL     1      -2.227   3.598   0.131  0.00  0.00    -0.370 N 
ATOM     18  N   UNL     1      -4.008   5.142   0.410  0.00  0.00    -0.370 N 
ATOM     19  H   UNL     1      -1.918   2.690  -0.019  0.00  0.00    +0.159 HD
ATOM     20  H   UNL     1      -4.959   5.336   0.413  0.00  0.00    +0.159 HD
ATOM     21  H   UNL     1      -3.369   5.845   0.602  0.00  0.00    +0.159 HD
ATOM     22  H   UNL     1      -1.585   4.310   0.277  0.00  0.00    +0.159 HD
ENDBRANCH   4  15
TORSDOF 2
