REMARK  Name = ZINC16312405
REMARK  11 active torsions:
REMARK  status: ('A' for Active; 'I' for Inactive)
REMARK    1  A    between atoms: C_1  and  C_2
REMARK    2  A    between atoms: C_5  and  N_9
REMARK    3  A    between atoms: C_7  and  C_8
REMARK    4  A    between atoms: C_10  and  C_12
REMARK    5  A    between atoms: C_12  and  N_13
REMARK    6  A    between atoms: N_13  and  C_14
REMARK    7  A    between atoms: N_13  and  S_15
REMARK    8  A    between atoms: S_15  and  C_18
REMARK    9  A    between atoms: C_19  and  C_26
REMARK   10  A    between atoms: C_21  and  C_25
REMARK   11  A    between atoms: C_23  and  C_24
REMARK                            x       y       z     vdW  Elec       q    Type
REMARK                         _______ _______ _______ _____ _____    ______ ____
ROOT
ATOM      1  N   UNL     1      -3.477   4.274  -1.404  0.00  0.00    -0.171 NA
ATOM      2  C   UNL     1      -4.113   3.410  -2.401  0.00  0.00    +0.132 C 
ENDROOT
BRANCH   1   3
ATOM      3  S   UNL     1      -3.112   3.677   0.097  0.00  0.00    +0.062 S 
ATOM      4  O   UNL     1      -4.009   2.601   0.335  0.00  0.00    -0.153 OA
ATOM      5  O   UNL     1      -3.017   4.797   0.968  0.00  0.00    -0.153 OA
BRANCH   3   6
ATOM      6  C   UNL     1      -1.498   2.976   0.001  0.00  0.00    +0.111 A 
ATOM      7  C   UNL     1      -0.386   3.773   0.192  0.00  0.00    -0.024 A 
ATOM      8  C   UNL     1       0.880   3.223   0.112  0.00  0.00    +0.008 A 
ATOM      9  C   UNL     1       1.033   1.874  -0.150  0.00  0.00    -0.050 A 
ATOM     10  C   UNL     1      -0.080   1.077  -0.338  0.00  0.00    +0.008 A 
ATOM     11  C   UNL     1      -1.346   1.627  -0.262  0.00  0.00    -0.024 A 
ATOM     12  C   UNL     1      -2.559   0.757  -0.466  0.00  0.00    +0.046 C 
ATOM     13  C   UNL     1       2.413   1.274  -0.232  0.00  0.00    +0.044 C 
ATOM     14  C   UNL     1      -0.552   5.242   0.483  0.00  0.00    +0.046 C 
ENDBRANCH   3   6
ENDBRANCH   1   3
BRANCH   1  15
ATOM     15  C   UNL     1      -3.164   5.667  -1.734  0.00  0.00    +0.205 C 
BRANCH  15  17
ATOM     16  N   UNL     1      -1.332   6.918  -2.828  0.00  0.00    -0.284 N 
ATOM     17  C   UNL     1      -1.828   5.730  -2.429  0.00  0.00    +0.233 C 
ATOM     18  O   UNL     1      -1.200   4.713  -2.629  0.00  0.00    -0.274 OA
ATOM     19  H   UNL     1      -1.802   7.738  -2.610  0.00  0.00    +0.155 HD
BRANCH  16  24
ATOM     20  C   UNL     1       3.504   7.121  -5.787  0.00  0.00    +0.044 C 
ATOM     21  C   UNL     1       2.219   7.067  -5.001  0.00  0.00    -0.047 A 
ATOM     22  C   UNL     1       1.904   8.089  -4.124  0.00  0.00    +0.005 A 
ATOM     23  C   UNL     1       0.724   8.046  -3.407  0.00  0.00    +0.023 A 
ATOM     24  C   UNL     1      -0.139   6.968  -3.558  0.00  0.00    +0.034 A 
ATOM     25  C   UNL     1       0.181   5.944  -4.440  0.00  0.00    +0.027 A 
ATOM     26  C   UNL     1       1.359   5.997  -5.159  0.00  0.00    -0.046 A 
ATOM     27  C   UNL     1       1.707   4.885  -6.115  0.00  0.00    +0.044 C 
ENDBRANCH  16  24
ENDBRANCH  15  17
ENDBRANCH   1  15
TORSDOF 5
