REMARK  Name = ZINC39536007
REMARK  8 active torsions:
REMARK  status: ('A' for Active; 'I' for Inactive)
REMARK    1  A    between atoms: C_1  and  C_2
REMARK    2  A    between atoms: C_2  and  C_3
REMARK    3  A    between atoms: C_10  and  C_12
REMARK    4  A    between atoms: C_12  and  O_13
REMARK    5  A    between atoms: O_13  and  C_14
REMARK    6  A    between atoms: C_14  and  C_16
REMARK    7  A    between atoms: C_19  and  C_27
REMARK    8  A    between atoms: C_21  and  C_26
REMARK                            x       y       z     vdW  Elec       q    Type
REMARK                         _______ _______ _______ _____ _____    ______ ____
ROOT
ATOM      1  C   UNL     1       5.607   2.187   1.175  0.00  0.00    +0.356 C 
ATOM      2  O   UNL     1       6.476   1.843   0.398  0.00  0.00    -0.243 OA
ENDROOT
BRANCH   1   3
ATOM      3  C   UNL     1       5.935   3.078   2.296  0.00  0.00    +0.125 A 
ATOM      4  C   UNL     1       7.166   3.587   2.564  0.00  0.00    +0.043 A 
ATOM      5  C   UNL     1       7.056   4.393   3.723  0.00  0.00    +0.003 A 
ATOM      6  C   UNL     1       7.975   5.156   4.455  0.00  0.00    -0.041 A 
ATOM      7  C   UNL     1       7.560   5.844   5.558  0.00  0.00    +0.007 A 
ATOM      8  C   UNL     1       6.232   5.796   5.964  0.00  0.00    -0.048 A 
ATOM      9  C   UNL     1       5.310   5.053   5.261  0.00  0.00    +0.029 A 
ATOM     10  C   UNL     1       5.709   4.343   4.132  0.00  0.00    +0.048 A 
ATOM     11  N   UNL     1       5.039   3.538   3.242  0.00  0.00    -0.349 N 
ATOM     12  H   UNL     1       4.093   3.325   3.274  0.00  0.00    +0.166 HD
ATOM     13  C   UNL     1       5.797   6.564   7.185  0.00  0.00    +0.044 C 
ATOM     14  C   UNL     1       9.419   5.216   4.026  0.00  0.00    +0.044 C 
ENDBRANCH   1   3
BRANCH   1  15
ATOM     15  O   UNL     1       4.343   1.750   1.008  0.00  0.00    -0.451 OA
BRANCH  15  16
ATOM     16  C   UNL     1       4.096   0.886  -0.103  0.00  0.00    +0.328 C 
BRANCH  16  23
ATOM     17  C   UNL     1       0.735  -0.599  -1.203  0.00  0.00    +0.076 C 
ATOM     18  C   UNL     1       0.532  -2.118  -1.211  0.00  0.00    +0.022 C 
ATOM     19  C   UNL     1       1.382  -2.736  -2.323  0.00  0.00    +0.003 C 
ATOM     20  C   UNL     1       2.862  -2.448  -2.057  0.00  0.00    +0.019 C 
ATOM     21  C   UNL     1       3.091  -0.934  -2.058  0.00  0.00    +0.108 C 
ATOM     22  N   UNL     1       2.172  -0.312  -1.095  0.00  0.00    -0.296 N 
ATOM     23  C   UNL     1       2.638   0.503  -0.128  0.00  0.00    +0.254 C 
ATOM     24  O   UNL     1       1.885   0.928   0.722  0.00  0.00    -0.272 OA
BRANCH  17  26
ATOM     25  C   UNL     1      -1.497  -0.289  -0.125  0.00  0.00    +0.006 C 
ATOM     26  C   UNL     1      -0.001   0.011  -0.009  0.00  0.00    +0.019 C 
ENDBRANCH  17  26
ENDBRANCH  16  23
ENDBRANCH  15  16
ENDBRANCH   1  15
TORSDOF 5
