REMARK  Name = ZINC06643434
REMARK  9 active torsions:
REMARK  status: ('A' for Active; 'I' for Inactive)
REMARK    1  A    between atoms: C_1  and  C_2
REMARK    2  A    between atoms: C_5  and  C_9
REMARK    3  A    between atoms: C_7  and  C_8
REMARK    4  A    between atoms: C_9  and  C_11
REMARK    5  A    between atoms: C_9  and  N_12
REMARK    6  A    between atoms: C_13  and  C_15
REMARK    7  A    between atoms: C_15  and  S_16
REMARK    8  A    between atoms: S_16  and  C_17
REMARK    9  A    between atoms: N_21  and  C_22
REMARK                            x       y       z     vdW  Elec       q    Type
REMARK                         _______ _______ _______ _____ _____    ______ ____
ROOT
ATOM      1  N   UNL     1       3.325  -2.232  -0.040  0.00  0.00    -0.308 N 
ATOM      2  C   UNL     1       2.057  -1.777  -0.026  0.00  0.00    +0.224 C 
ATOM      3  O   UNL     1       1.131  -2.561  -0.022  0.00  0.00    -0.275 OA
ATOM      4  H   UNL     1       4.065  -1.606  -0.044  0.00  0.00    +0.149 HD
ENDROOT
BRANCH   1   5
ATOM      5  C   UNL     1       3.586  -3.674  -0.050  0.00  0.00    +0.100 C 
ATOM      6  C   UNL     1       3.566  -4.206   1.384  0.00  0.00    +0.033 C 
BRANCH   5  11
ATOM      7  C   UNL     1       8.767  -4.679  -2.405  0.00  0.00    +0.044 C 
ATOM      8  C   UNL     1       7.415  -4.417  -1.791  0.00  0.00    -0.048 A 
ATOM      9  C   UNL     1       7.240  -3.341  -0.940  0.00  0.00    +0.004 A 
ATOM     10  C   UNL     1       6.000  -3.101  -0.377  0.00  0.00    +0.006 A 
ATOM     11  C   UNL     1       4.937  -3.936  -0.665  0.00  0.00    -0.027 A 
ATOM     12  C   UNL     1       5.114  -5.014  -1.511  0.00  0.00    +0.009 A 
ATOM     13  C   UNL     1       6.352  -5.251  -2.079  0.00  0.00    -0.047 A 
ATOM     14  C   UNL     1       6.543  -6.423  -3.007  0.00  0.00    +0.044 C 
ENDBRANCH   5  11
ENDBRANCH   1   5
BRANCH   2  15
ATOM     15  C   UNL     1       1.789  -0.294  -0.016  0.00  0.00    +0.173 C 
BRANCH  15  16
ATOM     16  S   UNL     1       0.002  -0.004   0.002  0.00  0.00    -0.075 S 
BRANCH  16  17
ATOM     17  C   UNL     1      -0.022   1.758   0.012  0.00  0.00    +0.210 A 
ATOM     18  N   UNL     1       1.026   2.554   0.006  0.00  0.00    -0.102 NA
ATOM     19  N   UNL     1       0.656   3.783   0.016  0.00  0.00    -0.022 NA
ATOM     20  N   UNL     1      -0.631   3.865   0.029  0.00  0.00    -0.043 NA
ATOM     21  N   UNL     1      -1.122   2.547   0.021  0.00  0.00    -0.223 N 
ATOM     22  C   UNL     1      -2.523   2.120   0.023  0.00  0.00    +0.177 C 
ENDBRANCH  16  17
ENDBRANCH  15  16
ENDBRANCH   2  15
TORSDOF 5
