REMARK  Name = ZINC03303107
REMARK  6 active torsions:
REMARK  status: ('A' for Active; 'I' for Inactive)
REMARK    1  A    between atoms: C_1  and  C_2
REMARK    2  A    between atoms: C_4  and  C_12
REMARK    3  A    between atoms: C_12  and  O_14
REMARK    4  A    between atoms: O_14  and  C_15
REMARK    5  A    between atoms: C_15  and  C_16
REMARK    6  A    between atoms: C_16  and  C_18
REMARK                            x       y       z     vdW  Elec       q    Type
REMARK                         _______ _______ _______ _____ _____    ______ ____
ROOT
ATOM      1  C   UNL     1      -0.078  -2.930  -4.878  0.00  0.00    +0.311 C 
ENDROOT
BRANCH   1   2
ATOM      2  C   UNL     1      -0.218  -2.024  -6.074  0.00  0.00    +0.200 C 
ATOM      3  O   UNL     1      -0.318  -0.825  -5.919  0.00  0.00    -0.288 OA
BRANCH   2   4
ATOM      4  C   UNL     1      -0.234  -2.593  -7.428  0.00  0.00    +0.023 A 
ATOM      5  C   UNL     1      -0.125  -3.978  -7.609  0.00  0.00    +0.015 A 
ATOM      6  C   UNL     1      -0.141  -4.511  -8.878  0.00  0.00    +0.048 A 
ATOM      7  C   UNL     1      -0.264  -3.679  -9.982  0.00  0.00    +0.142 A 
ATOM      8  C   UNL     1      -0.373  -2.296  -9.810  0.00  0.00    +0.076 A 
ATOM      9  C   UNL     1      -0.364  -1.753  -8.541  0.00  0.00    +0.038 A 
ATOM     10  N   UNL     1      -0.497  -1.473 -10.939  0.00  0.00    -0.280 N 
ATOM     11  C   UNL     1      -0.824  -2.033 -12.124  0.00  0.00    +0.255 C 
ATOM     12  O   UNL     1      -0.907  -1.345 -13.120  0.00  0.00    -0.272 OA
ATOM     13  C   UNL     1      -1.085  -3.515 -12.204  0.00  0.00    +0.325 C 
ATOM     14  O   UNL     1      -0.281  -4.197 -11.237  0.00  0.00    -0.481 OA
ATOM     15  H   UNL     1      -0.350  -0.517 -10.869  0.00  0.00    +0.155 HD
ENDBRANCH   2   4
ENDBRANCH   1   2
BRANCH   1  16
ATOM     16  O   UNL     1      -0.089  -2.146  -3.683  0.00  0.00    -0.453 OA
BRANCH  16  17
ATOM     17  C   UNL     1       0.028  -2.808  -2.516  0.00  0.00    +0.340 C 
ATOM     18  O   UNL     1       0.136  -4.018  -2.512  0.00  0.00    -0.245 OA
BRANCH  17  22
ATOM     19  C   UNL     1       0.017   1.503   0.010  0.00  0.00    +0.065 C 
ATOM     20  C   UNL     1       0.018  -0.004   0.002  0.00  0.00    +0.040 A 
ATOM     21  C   UNL     1       0.022  -0.674  -1.220  0.00  0.00    +0.038 A 
ATOM     22  C   UNL     1       0.024  -2.063  -1.240  0.00  0.00    +0.070 A 
ATOM     23  C   UNL     1       0.022  -2.742   0.006  0.00  0.00    +0.014 A 
ATOM     24  C   UNL     1       0.024  -4.141   0.074  0.00  0.00    +0.011 A 
ATOM     25  C   UNL     1       0.023  -4.757   1.289  0.00  0.00    +0.001 A 
ATOM     26  C   UNL     1       0.018  -4.012   2.467  0.00  0.00    +0.002 A 
ATOM     27  C   UNL     1       0.016  -2.652   2.438  0.00  0.00    +0.028 A 
ATOM     28  C   UNL     1       0.018  -1.981   1.201  0.00  0.00    +0.072 A 
ATOM     29  N   UNL     1       0.022  -0.646   1.143  0.00  0.00    -0.252 NA
ENDBRANCH  17  22
ENDBRANCH  16  17
ENDBRANCH   1  16
TORSDOF 5
