REMARK  Name = ZINC20335825
REMARK  5 active torsions:
REMARK  status: ('A' for Active; 'I' for Inactive)
REMARK    1  A    between atoms: C_1  and  C_2
REMARK    2  A    between atoms: C_2  and  C_3
REMARK    3  A    between atoms: C_6  and  O_12
REMARK    4  A    between atoms: O_12  and  C_13
REMARK    5  A    between atoms: C_16  and  N_19
REMARK                            x       y       z     vdW  Elec       q    Type
REMARK                         _______ _______ _______ _____ _____    ______ ____
ROOT
ATOM      1  C   UNL     1       0.001  -0.015  -0.004  0.00  0.00    -0.008 A 
ATOM      2  C   UNL     1       1.310  -0.307  -0.011  0.00  0.00    +0.026 A 
ATOM      3  C   UNL     1       2.278   0.774  -0.053  0.00  0.00    +0.070 A 
ATOM      4  C   UNL     1       3.697   0.723  -0.069  0.00  0.00    +0.232 A 
ATOM      5  N   UNL     1       4.383   1.852  -0.109  0.00  0.00    -0.201 NA
ATOM      6  C   UNL     1       3.792   3.034  -0.136  0.00  0.00    +0.226 A 
ATOM      7  N   UNL     1       2.479   3.147  -0.123  0.00  0.00    -0.228 NA
ATOM      8  C   UNL     1       1.718   2.071  -0.083  0.00  0.00    +0.115 A 
ATOM      9  S   UNL     1      -0.028   1.767  -0.054  0.00  0.00    -0.073 S 
ENDROOT
BRANCH   1  11
ATOM     10  C   UNL     1      -1.546  -1.246   1.493  0.00  0.00    +0.009 C 
ATOM     11  C   UNL     1      -1.167  -0.966   0.037  0.00  0.00    +0.039 C 
ENDBRANCH   1  11
BRANCH   4  12
ATOM     12  O   UNL     1       4.341  -0.468  -0.043  0.00  0.00    -0.437 OA
BRANCH  12  13
ATOM     13  C   UNL     1       5.695  -0.465  -0.161  0.00  0.00    +0.131 A 
ATOM     14  C   UNL     1       6.287  -0.821  -1.364  0.00  0.00    +0.048 A 
ATOM     15  C   UNL     1       7.663  -0.814  -1.486  0.00  0.00    +0.026 A 
ATOM     16  C   UNL     1       8.454  -0.459  -0.401  0.00  0.00    +0.025 A 
ATOM     17  C   UNL     1       7.861  -0.108   0.805  0.00  0.00    +0.026 A 
ATOM     18  C   UNL     1       6.485  -0.112   0.924  0.00  0.00    +0.048 A 
BRANCH  16  19
ATOM     19  N   UNL     1       9.848  -0.457  -0.522  0.00  0.00    -0.358 N 
ATOM     20  H   UNL     1      10.474  -0.176   0.338  0.00  0.00    +0.142 HD
ATOM     21  H   UNL     1      10.317  -0.735  -1.477  0.00  0.00    +0.142 HD
ENDBRANCH  16  19
ENDBRANCH  12  13
ENDBRANCH   4  12
TORSDOF 4
