REMARK  Name = ZINC04337484
REMARK  10 active torsions:
REMARK  status: ('A' for Active; 'I' for Inactive)
REMARK    1  A    between atoms: C_1  and  O_2
REMARK    2  A    between atoms: O_2  and  C_3
REMARK    3  A    between atoms: C_3  and  C_5
REMARK    4  A    between atoms: C_5  and  C_6
REMARK    5  A    between atoms: C_5  and  N_10
REMARK    6  A    between atoms: C_5  and  N_23
REMARK    7  A    between atoms: N_10  and  C_11
REMARK    8  A    between atoms: C_12  and  C_20
REMARK    9  A    between atoms: C_24  and  O_26
REMARK   10  A    between atoms: O_26  and  C_27
REMARK                            x       y       z     vdW  Elec       q    Type
REMARK                         _______ _______ _______ _____ _____    ______ ____
ROOT
ATOM      1  N   UNL     1       0.952  -2.123  -0.461  0.00  0.00    -0.301 N 
ATOM      2  H   UNL     1       1.817  -2.528  -0.626  0.00  0.00    +0.149 HD
ENDROOT
BRANCH   1   3
ATOM      3  C   UNL     1       0.171  -1.704  -1.521  0.00  0.00    +0.080 A 
ATOM      4  C   UNL     1       0.509  -1.663  -2.866  0.00  0.00    +0.068 A 
ATOM      5  C   UNL     1      -0.502  -1.177  -3.790  0.00  0.00    -0.023 A 
ATOM      6  C   UNL     1      -1.663  -0.821  -3.201  0.00  0.00    -0.005 A 
ATOM      7  S   UNL     1      -1.408  -1.134  -1.479  0.00  0.00    -0.078 S 
ATOM      8  C   UNL     1      -2.887  -0.284  -3.877  0.00  0.00    +0.043 C 
ATOM      9  C   UNL     1      -2.500   0.157  -5.296  0.00  0.00    +0.005 C 
ATOM     10  C   UNL     1      -1.687  -0.959  -5.958  0.00  0.00    +0.005 C 
ATOM     11  C   UNL     1      -0.311  -1.063  -5.295  0.00  0.00    +0.037 C 
BRANCH   4  12
ATOM     12  C   UNL     1       1.829  -2.092  -3.335  0.00  0.00    +0.244 C 
ATOM     13  O   UNL     1       2.015  -3.252  -3.651  0.00  0.00    -0.270 OA
ATOM     14  N   UNL     1       2.837  -1.201  -3.416  0.00  0.00    -0.325 N 
ATOM     15  H   UNL     1       2.689  -0.276  -3.164  0.00  0.00    +0.145 HD
ATOM     16  H   UNL     1       3.711  -1.485  -3.726  0.00  0.00    +0.145 HD
ENDBRANCH   4  12
ENDBRANCH   1   3
BRANCH   1  17
ATOM     17  C   UNL     1       0.472  -1.955   0.913  0.00  0.00    +0.298 C 
BRANCH  17  18
ATOM     18  C   UNL     1      -0.772  -2.820   1.129  0.00  0.00    +0.438 C 
ATOM     19  F   UNL     1      -1.821  -2.333   0.342  0.00  0.00    -0.166 F 
ATOM     20  F   UNL     1      -0.490  -4.141   0.764  0.00  0.00    -0.166 F 
ATOM     21  F   UNL     1      -1.142  -2.777   2.477  0.00  0.00    -0.166 F 
ENDBRANCH  17  18
BRANCH  17  22
ATOM     22  N   UNL     1       1.521  -2.366   1.850  0.00  0.00    -0.244 N 
ATOM     23  C   UNL     1       1.366  -2.151   3.172  0.00  0.00    +0.402 C 
ATOM     24  O   UNL     1       0.319  -1.704   3.596  0.00  0.00    -0.226 OA
ATOM     25  H   UNL     1       2.326  -2.793   1.520  0.00  0.00    +0.155 HD
BRANCH  23  26
ATOM     26  O   UNL     1       2.372  -2.430   4.022  0.00  0.00    -0.454 OA
ATOM     27  C   UNL     1       2.139  -2.177   5.409  0.00  0.00    +0.282 C 
ENDBRANCH  23  26
ENDBRANCH  17  22
BRANCH  17  28
ATOM     28  C   UNL     1       0.125  -0.508   1.151  0.00  0.00    +0.359 C 
ATOM     29  O   UNL     1       0.482   0.040   2.167  0.00  0.00    -0.246 OA
BRANCH  28  31
ATOM     30  C   UNL     1      -0.874   1.540   0.525  0.00  0.00    +0.280 C 
ATOM     31  O   UNL     1      -0.581   0.172   0.234  0.00  0.00    -0.465 OA
ENDBRANCH  28  31
ENDBRANCH  17  28
ENDBRANCH   1  17
TORSDOF 8
