REMARK  Name = ZINC02711236
REMARK  6 active torsions:
REMARK  status: ('A' for Active; 'I' for Inactive)
REMARK    1  A    between atoms: C_1  and  C_2
REMARK    2  A    between atoms: C_4  and  C_21
REMARK    3  A    between atoms: C_6  and  C_8
REMARK    4  A    between atoms: N_10  and  C_11
REMARK    5  A    between atoms: N_15  and  C_20
REMARK    6  A    between atoms: N_18  and  C_19
REMARK                            x       y       z     vdW  Elec       q    Type
REMARK                         _______ _______ _______ _____ _____    ______ ____
ROOT
ATOM      1  C   UNL     1       0.192   3.133  -0.739  0.00  0.00    +0.249 C 
ATOM      2  O   UNL     1       0.069   1.945  -0.963  0.00  0.00    -0.270 OA
ATOM      3  N   UNL     1      -0.281   3.654   0.411  0.00  0.00    -0.267 N 
ATOM      4  H   UNL     1      -0.249   4.612   0.558  0.00  0.00    +0.157 HD
ENDROOT
BRANCH   3   5
ATOM      5  C   UNL     1      -0.810   2.826   1.376  0.00  0.00    +0.114 A 
ATOM      6  C   UNL     1       0.008   2.219   2.285  0.00  0.00    +0.112 A 
ATOM      7  C   UNL     1      -0.559   1.374   3.256  0.00  0.00    +0.258 A 
ATOM      8  O   UNL     1       0.152   0.817   4.074  0.00  0.00    -0.267 OA
ATOM      9  N   UNL     1      -1.893   1.184   3.275  0.00  0.00    -0.264 N 
ATOM     10  C   UNL     1      -2.683   1.795   2.374  0.00  0.00    +0.333 A 
ATOM     11  O   UNL     1      -3.885   1.610   2.408  0.00  0.00    -0.246 OA
ATOM     12  N   UNL     1      -2.164   2.608   1.435  0.00  0.00    -0.284 N 
ATOM     13  C   UNL     1      -3.050   3.260   0.466  0.00  0.00    +0.155 C 
ATOM     14  C   UNL     1      -2.487   0.305   4.285  0.00  0.00    +0.157 C 
ENDBRANCH   3   5
BRANCH   1  20
ATOM     15  C   UNL     1       1.783   7.655  -2.124  0.00  0.00    +0.044 C 
ATOM     16  C   UNL     1       1.627   6.181  -2.398  0.00  0.00    -0.049 A 
ATOM     17  C   UNL     1       2.111   5.643  -3.577  0.00  0.00    +0.006 A 
ATOM     18  C   UNL     1       1.973   4.291  -3.836  0.00  0.00    -0.049 A 
ATOM     19  C   UNL     1       1.351   3.470  -2.918  0.00  0.00    +0.016 A 
ATOM     20  C   UNL     1       0.859   4.006  -1.726  0.00  0.00    +0.038 A 
ATOM     21  C   UNL     1       0.997   5.373  -1.475  0.00  0.00    +0.016 A 
ATOM     22  C   UNL     1       2.504   3.713  -5.122  0.00  0.00    +0.044 C 
ENDBRANCH   1  20
TORSDOF 2
