REMARK  Name = ZINC50033228
REMARK  6 active torsions:
REMARK  status: ('A' for Active; 'I' for Inactive)
REMARK    1  A    between atoms: C_1  and  N_2
REMARK    2  A    between atoms: C_7  and  C_9
REMARK    3  A    between atoms: C_9  and  N_10
REMARK    4  A    between atoms: N_10  and  C_11
REMARK    5  A    between atoms: C_13  and  C_19
REMARK    6  A    between atoms: C_14  and  N_18
REMARK                            x       y       z     vdW  Elec       q    Type
REMARK                         _______ _______ _______ _____ _____    ______ ____
ROOT
ATOM      1  C   UNL     1      -0.769   2.047   3.403  0.00  0.00    +0.064 A 
ATOM      2  C   UNL     1      -1.067   1.268   4.505  0.00  0.00    +0.040 A 
ATOM      3  C   UNL     1      -1.651   1.852   5.634  0.00  0.00    +0.059 A 
ATOM      4  C   UNL     1      -1.930   3.228   5.639  0.00  0.00    +0.040 A 
ATOM      5  C   UNL     1      -1.625   3.998   4.525  0.00  0.00    +0.063 A 
ATOM      6  C   UNL     1      -1.043   3.413   3.416  0.00  0.00    +0.146 A 
ATOM      7  F   UNL     1      -0.743   4.169   2.337  0.00  0.00    -0.203 F 
ENDROOT
BRANCH   3   8
ATOM      8  C   UNL     1      -1.972   1.028   6.812  0.00  0.00    +0.243 C 
ATOM      9  O   UNL     1      -2.373   1.555   7.832  0.00  0.00    -0.270 OA
ATOM     10  N   UNL     1      -1.822  -0.310   6.759  0.00  0.00    -0.325 N 
ATOM     11  H   UNL     1      -1.502  -0.731   5.945  0.00  0.00    +0.145 HD
ATOM     12  H   UNL     1      -2.033  -0.853   7.534  0.00  0.00    +0.145 HD
ENDBRANCH   3   8
BRANCH   4  13
ATOM     13  N   UNL     1      -2.511   3.818   6.757  0.00  0.00    -0.357 N 
ATOM     14  H   UNL     1      -2.633   3.302   7.569  0.00  0.00    +0.142 HD
ATOM     15  H   UNL     1      -2.794   4.745   6.724  0.00  0.00    +0.142 HD
ENDBRANCH   4  13
BRANCH   1  16
ATOM     16  N   UNL     1      -0.183   1.462   2.272  0.00  0.00    -0.343 N 
ATOM     17  H   UNL     1       0.030   2.008   1.499  0.00  0.00    +0.146 HD
BRANCH  16  18
ATOM     18  C   UNL     1       0.106   0.026   2.256  0.00  0.00    +0.086 C 
BRANCH  18  25
ATOM     19  C   UNL     1       2.886   0.351   2.030  0.00  0.00    -0.096 C 
ATOM     20  N   UNL     1       2.041   0.516   0.840  0.00  0.00    +0.381 N 
ATOM     21  C   UNL     1       2.801   0.129  -0.355  0.00  0.00    -0.079 C 
ATOM     22  C   UNL     1       1.953   0.375  -1.605  0.00  0.00    -0.019 C 
ATOM     23  C   UNL     1       0.673  -0.461  -1.520  0.00  0.00    -0.003 C 
ATOM     24  C   UNL     1      -0.074  -0.103  -0.232  0.00  0.00    -0.014 C 
ATOM     25  C   UNL     1       0.849  -0.331   0.967  0.00  0.00    -0.052 C 
ATOM     26  H   UNL     1       1.760   1.481   0.759  0.00  0.00    -0.082 HD
ENDBRANCH  18  25
ENDBRANCH  16  18
ENDBRANCH   1  16
TORSDOF 5
