REMARK  Name = ZINC36382360
REMARK  12 active torsions:
REMARK  status: ('A' for Active; 'I' for Inactive)
REMARK    1  A    between atoms: C_1  and  C_2
REMARK    2  A    between atoms: C_2  and  C_3
REMARK    3  A    between atoms: C_3  and  C_4
REMARK    4  A    between atoms: C_4  and  N_5
REMARK    5  A    between atoms: C_6  and  N_34
REMARK    6  A    between atoms: C_7  and  N_14
REMARK    7  A    between atoms: N_14  and  C_15
REMARK    8  A    between atoms: C_15  and  C_16
REMARK    9  A    between atoms: C_17  and  C_19
REMARK   10  A    between atoms: C_19  and  C_20
REMARK   11  A    between atoms: C_23  and  S_25
REMARK   12  A    between atoms: S_25  and  N_28
REMARK                            x       y       z     vdW  Elec       q    Type
REMARK                         _______ _______ _______ _____ _____    ______ ____
ROOT
ATOM      1  N   UNL     1       0.612  -3.488  -5.896  0.00  0.00    -0.264 N 
ATOM      2  C   UNL     1      -0.707  -3.208  -5.947  0.00  0.00    +0.225 C 
ATOM      3  O   UNL     1      -1.280  -2.805  -4.956  0.00  0.00    -0.275 OA
ENDROOT
BRANCH   1   6
ATOM      4  N   UNL     1       3.030  -2.000  -3.564  0.00  0.00    -0.280 N 
ATOM      5  C   UNL     1       2.331  -2.245  -4.722  0.00  0.00    +0.127 A 
ATOM      6  C   UNL     1       1.347  -3.213  -4.723  0.00  0.00    +0.140 A 
ATOM      7  C   UNL     1       1.090  -3.921  -3.535  0.00  0.00    +0.277 A 
ATOM      8  O   UNL     1       0.226  -4.782  -3.508  0.00  0.00    -0.266 OA
ATOM      9  N   UNL     1       1.804  -3.642  -2.427  0.00  0.00    -0.273 N 
ATOM     10  H   UNL     1       1.627  -4.129  -1.607  0.00  0.00    +0.173 HD
ATOM     11  C   UNL     1       2.762  -2.699  -2.446  0.00  0.00    +0.331 A 
ATOM     12  O   UNL     1       3.395  -2.470  -1.433  0.00  0.00    -0.246 OA
BRANCH   5  13
ATOM     13  N   UNL     1       2.608  -1.534  -5.865  0.00  0.00    -0.343 N 
ATOM     14  H   UNL     1       3.253  -0.810  -5.842  0.00  0.00    +0.144 HD
ATOM     15  H   UNL     1       2.159  -1.757  -6.696  0.00  0.00    +0.144 HD
ENDBRANCH   5  13
BRANCH   4  16
ATOM     16  C   UNL     1       4.077  -0.975  -3.548  0.00  0.00    +0.128 C 
BRANCH  16  17
ATOM     17  C   UNL     1       5.417  -1.609  -3.928  0.00  0.00    +0.021 C 
BRANCH  17  19
ATOM     18  C   UNL     1       7.850  -1.172  -4.293  0.00  0.00    +0.004 C 
ATOM     19  C   UNL     1       6.510  -0.538  -3.912  0.00  0.00    -0.002 C 
ENDBRANCH  17  19
ENDBRANCH  16  17
ENDBRANCH   4  16
ENDBRANCH   1   6
BRANCH   1  20
ATOM     20  C   UNL     1       1.281  -4.077  -7.059  0.00  0.00    +0.110 C 
ATOM     21  C   UNL     1       1.112  -5.598  -7.027  0.00  0.00    +0.025 C 
ENDBRANCH   1  20
BRANCH   2  22
ATOM     22  C   UNL     1      -1.468  -3.395  -7.234  0.00  0.00    +0.138 C 
BRANCH  22  23
ATOM     23  C   UNL     1      -2.911  -3.014  -7.024  0.00  0.00    +0.000 A 
ATOM     24  C   UNL     1      -3.508  -1.808  -7.185  0.00  0.00    +0.013 A 
ATOM     25  C   UNL     1      -4.862  -1.691  -6.933  0.00  0.00    +0.036 A 
ATOM     26  C   UNL     1      -5.552  -2.786  -6.530  0.00  0.00    +0.143 A 
ATOM     27  S   UNL     1      -4.279  -4.037  -6.506  0.00  0.00    -0.073 S 
BRANCH  26  28
ATOM     28  S   UNL     1      -7.264  -2.937  -6.140  0.00  0.00    +0.067 S 
ATOM     29  O   UNL     1      -7.386  -4.056  -5.273  0.00  0.00    -0.152 OA
ATOM     30  O   UNL     1      -7.713  -1.639  -5.776  0.00  0.00    -0.152 OA
BRANCH  28  31
ATOM     31  N   UNL     1      -8.052  -3.336  -7.541  0.00  0.00    -0.172 NA
ATOM     32  C   UNL     1      -8.574  -2.294  -8.440  0.00  0.00    +0.137 C 
ATOM     33  C   UNL     1      -8.084  -2.592  -9.861  0.00  0.00    +0.177 C 
ATOM     34  O   UNL     1      -8.411  -3.943 -10.198  0.00  0.00    -0.377 OA
ATOM     35  C   UNL     1      -7.778  -4.922  -9.370  0.00  0.00    +0.177 C 
ATOM     36  C   UNL     1      -8.247  -4.743  -7.926  0.00  0.00    +0.137 C 
ENDBRANCH  28  31
ENDBRANCH  26  28
ENDBRANCH  22  23
ENDBRANCH   2  22
TORSDOF 10
