REMARK  Name = ZINC41571808
REMARK  8 active torsions:
REMARK  status: ('A' for Active; 'I' for Inactive)
REMARK    1  A    between atoms: C_1  and  C_2
REMARK    2  A    between atoms: C_6  and  O_8
REMARK    3  A    between atoms: O_8  and  C_9
REMARK    4  A    between atoms: C_9  and  C_10
REMARK    5  A    between atoms: C_10  and  N_11
REMARK    6  A    between atoms: N_11  and  C_12
REMARK    7  A    between atoms: C_14  and  N_19
REMARK    8  A    between atoms: C_17  and  C_18
REMARK                            x       y       z     vdW  Elec       q    Type
REMARK                         _______ _______ _______ _____ _____    ______ ____
ROOT
ATOM      1  N   UNL     1      -1.170  -4.465   4.366  0.00  0.00    -0.340 N 
ATOM      2  H   UNL     1      -1.848  -3.942   3.909  0.00  0.00    +0.146 HD
ENDROOT
BRANCH   1   3
ATOM      3  C   UNL     1      -1.390  -4.902   5.674  0.00  0.00    +0.032 A 
ATOM      4  C   UNL     1      -0.418  -5.647   6.332  0.00  0.00    +0.056 A 
ATOM      5  C   UNL     1      -0.639  -6.077   7.625  0.00  0.00    +0.128 A 
ATOM      6  C   UNL     1      -1.825  -5.768   8.266  0.00  0.00    +0.033 A 
ATOM      7  C   UNL     1      -2.794  -5.027   7.615  0.00  0.00    +0.007 A 
ATOM      8  C   UNL     1      -2.578  -4.589   6.323  0.00  0.00    -0.029 A 
ATOM      9  C   UNL     1      -3.632  -3.777   5.615  0.00  0.00    +0.045 C 
BRANCH   5  10
ATOM     10  N   UNL     1       0.395  -6.870   8.326  0.00  0.00    +0.056 N 
ATOM     11  O   UNL     1       1.432  -7.142   7.766  0.00  0.00    -0.126 OA
ATOM     12  O   UNL     1       0.203  -7.248   9.459  0.00  0.00    -0.126 OA
ENDBRANCH   5  10
ENDBRANCH   1   3
BRANCH   1  13
ATOM     13  C   UNL     1       0.083  -4.796   3.683  0.00  0.00    +0.142 C 
BRANCH  13  14
ATOM     14  C   UNL     1       0.069  -4.202   2.274  0.00  0.00    +0.247 C 
BRANCH  14  15
ATOM     15  O   UNL     1       0.050  -2.776   2.358  0.00  0.00    -0.490 OA
BRANCH  15  21
ATOM     16  C   UNL     1      -0.018   1.503   0.010  0.00  0.00    +0.044 C 
ATOM     17  C   UNL     1       0.002  -0.004   0.002  0.00  0.00    -0.047 A 
ATOM     18  C   UNL     1       0.006  -0.688  -1.200  0.00  0.00    +0.003 A 
ATOM     19  C   UNL     1       0.024  -2.071  -1.211  0.00  0.00    +0.004 A 
ATOM     20  C   UNL     1       0.039  -2.772  -0.020  0.00  0.00    +0.045 A 
ATOM     21  C   UNL     1       0.035  -2.088   1.186  0.00  0.00    +0.121 A 
ATOM     22  C   UNL     1       0.023  -0.700   1.195  0.00  0.00    +0.049 A 
ENDBRANCH  15  21
ENDBRANCH  14  15
ENDBRANCH  13  14
ENDBRANCH   1  13
TORSDOF 6
