REMARK  Name = ZINC13526802
REMARK  15 active torsions:
REMARK  status: ('A' for Active; 'I' for Inactive)
REMARK    1  A    between atoms: C_1  and  C_2
REMARK    2  A    between atoms: C_2  and  N_3
REMARK    3  A    between atoms: N_3  and  C_4
REMARK    4  A    between atoms: N_3  and  S_6
REMARK    5  A    between atoms: C_4  and  C_5
REMARK    6  A    between atoms: S_6  and  C_9
REMARK    7  A    between atoms: C_11  and  N_16
REMARK    8  A    between atoms: C_14  and  C_15
REMARK    9  A    between atoms: C_17  and  C_19
REMARK   10  A    between atoms: C_19  and  C_21
REMARK   11  A    between atoms: C_19  and  O_22
REMARK   12  A    between atoms: O_22  and  C_23
REMARK   13  A    between atoms: C_23  and  C_25
REMARK   14  A    between atoms: C_30  and  N_31
REMARK   15  A    between atoms: C_32  and  C_34
REMARK                            x       y       z     vdW  Elec       q    Type
REMARK                         _______ _______ _______ _____ _____    ______ ____
ROOT
ATOM      1  C   UNL     1      -2.298   3.964   3.127  0.00  0.00    +0.259 C 
ATOM      2  C   UNL     1      -3.563   3.979   2.266  0.00  0.00    +0.062 C 
ENDROOT
BRANCH   1   4
ATOM      3  N   UNL     1      -1.476   1.825   2.195  0.00  0.00    -0.282 N 
ATOM      4  C   UNL     1      -1.241   3.127   2.452  0.00  0.00    +0.258 C 
ATOM      5  O   UNL     1      -0.180   3.626   2.141  0.00  0.00    -0.271 OA
ATOM      6  H   UNL     1      -2.353   1.448   2.365  0.00  0.00    +0.155 HD
BRANCH   3   9
ATOM      7  C   UNL     1       1.876   0.481   1.504  0.00  0.00    +0.110 A 
ATOM      8  C   UNL     1       0.870   1.283   2.007  0.00  0.00    +0.052 A 
ATOM      9  C   UNL     1      -0.454   1.018   1.683  0.00  0.00    +0.035 A 
ATOM     10  C   UNL     1      -0.762  -0.052   0.853  0.00  0.00    +0.024 A 
ATOM     11  C   UNL     1       0.248  -0.850   0.353  0.00  0.00    +0.007 A 
ATOM     12  C   UNL     1       1.566  -0.584   0.678  0.00  0.00    -0.024 A 
ATOM     13  C   UNL     1       2.666  -1.456   0.131  0.00  0.00    +0.046 C 
BRANCH   7  14
ATOM     14  S   UNL     1       3.557   0.815   1.915  0.00  0.00    +0.061 S 
ATOM     15  O   UNL     1       4.279   0.830   0.692  0.00  0.00    -0.153 OA
ATOM     16  O   UNL     1       3.544   1.922   2.806  0.00  0.00    -0.153 OA
BRANCH  14  17
ATOM     17  N   UNL     1       4.116  -0.481   2.780  0.00  0.00    -0.177 NA
BRANCH  17  19
ATOM     18  C   UNL     1       6.404  -1.286   2.459  0.00  0.00    +0.022 C 
ATOM     19  C   UNL     1       4.928  -1.507   2.120  0.00  0.00    +0.106 C 
ENDBRANCH  17  19
BRANCH  17  20
ATOM     20  C   UNL     1       3.800  -0.603   4.205  0.00  0.00    +0.106 C 
ATOM     21  C   UNL     1       2.563  -1.486   4.380  0.00  0.00    +0.022 C 
ENDBRANCH  17  20
ENDBRANCH  14  17
ENDBRANCH   7  14
ENDBRANCH   3   9
ENDBRANCH   1   4
BRANCH   1  22
ATOM     22  O   UNL     1      -1.808   5.321   3.291  0.00  0.00    -0.449 OA
BRANCH  22  23
ATOM     23  C   UNL     1      -2.273   6.015   4.349  0.00  0.00    +0.342 C 
ATOM     24  O   UNL     1      -3.065   5.500   5.113  0.00  0.00    -0.245 OA
BRANCH  23  25
ATOM     25  C   UNL     1      -1.819   7.398   4.580  0.00  0.00    +0.080 A 
ATOM     26  C   UNL     1      -1.003   8.036   3.641  0.00  0.00    +0.017 A 
ATOM     27  C   UNL     1      -0.584   9.330   3.863  0.00  0.00    +0.001 A 
ATOM     28  C   UNL     1      -0.966  10.003   5.012  0.00  0.00    +0.002 A 
ATOM     29  C   UNL     1      -1.772   9.387   5.948  0.00  0.00    +0.024 A 
ATOM     30  C   UNL     1      -2.209   8.085   5.740  0.00  0.00    +0.048 A 
BRANCH  30  31
ATOM     31  N   UNL     1      -3.026   7.464   6.679  0.00  0.00    -0.278 N 
ATOM     32  C   UNL     1      -3.927   8.188   7.373  0.00  0.00    +0.284 C 
ATOM     33  O   UNL     1      -4.088   9.366   7.116  0.00  0.00    -0.266 OA
ATOM     34  H   UNL     1      -2.948   6.509   6.834  0.00  0.00    +0.155 HD
BRANCH  32  35
ATOM     35  C   UNL     1      -4.713   7.555   8.436  0.00  0.00    +0.189 A 
ATOM     36  C   UNL     1      -5.654   8.169   9.213  0.00  0.00    +0.054 A 
ATOM     37  C   UNL     1      -6.150   7.195  10.092  0.00  0.00    +0.042 A 
ATOM     38  C   UNL     1      -5.498   6.043   9.818  0.00  0.00    +0.196 A 
ATOM     39  O   UNL     1      -4.638   6.262   8.816  0.00  0.00    -0.458 OA
ENDBRANCH  32  35
ENDBRANCH  30  31
ENDBRANCH  23  25
ENDBRANCH  22  23
ENDBRANCH   1  22
TORSDOF 11
