REMARK  Name = ZINC25151571
REMARK  6 active torsions:
REMARK  status: ('A' for Active; 'I' for Inactive)
REMARK    1  A    between atoms: C_1  and  C_2
REMARK    2  A    between atoms: N_5  and  C_11
REMARK    3  A    between atoms: C_7  and  C_10
REMARK    4  A    between atoms: C_11  and  C_12
REMARK    5  A    between atoms: C_12  and  C_13
REMARK    6  A    between atoms: C_13  and  N_14
REMARK                            x       y       z     vdW  Elec       q    Type
REMARK                         _______ _______ _______ _____ _____    ______ ____
ROOT
ATOM      1  N   UNL     1      -0.698   1.558   1.213  0.00  0.00    -0.326 N 
ATOM      2  C   UNL     1      -0.208   1.223   2.466  0.00  0.00    +0.165 A 
ATOM      3  C   UNL     1      -0.850   1.672   3.627  0.00  0.00    +0.194 A 
ATOM      4  C   UNL     1      -0.307   1.296   4.861  0.00  0.00    +0.122 A 
ATOM      5  C   UNL     1      -1.182   1.900   5.880  0.00  0.00    +0.046 A 
ATOM      6  C   UNL     1      -1.179   1.914   7.272  0.00  0.00    +0.014 A 
ATOM      7  C   UNL     1      -2.164   2.599   7.951  0.00  0.00    +0.001 A 
ATOM      8  C   UNL     1      -3.149   3.279   7.250  0.00  0.00    +0.004 A 
ATOM      9  C   UNL     1      -3.157   3.279   5.872  0.00  0.00    +0.047 A 
ATOM     10  C   UNL     1      -2.172   2.594   5.169  0.00  0.00    +0.138 A 
ATOM     11  O   UNL     1      -1.943   2.430   3.847  0.00  0.00    -0.450 OA
ATOM     12  N   UNL     1       0.789   0.543   4.892  0.00  0.00    -0.231 NA
ATOM     13  C   UNL     1       1.361   0.147   3.774  0.00  0.00    +0.224 A 
ATOM     14  N   UNL     1       0.882   0.474   2.588  0.00  0.00    -0.217 NA
ATOM     15  H   UNL     1      -1.602   2.179   1.124  0.00  0.00    +0.148 HD
ENDROOT
BRANCH   1  16
ATOM     16  C   UNL     1      -0.013   1.086   0.008  0.00  0.00    +0.104 C 
BRANCH  16  17
ATOM     17  C   UNL     1      -0.753   1.593  -1.232  0.00  0.00    +0.034 C 
BRANCH  17  18
ATOM     18  C   UNL     1      -0.037   1.099  -2.490  0.00  0.00    +0.086 C 
BRANCH  18  22
ATOM     19  C   UNL     1       0.058   1.585  -7.387  0.00  0.00    +0.039 C 
ATOM     20  C   UNL     1      -0.713   1.911  -6.106  0.00  0.00    +0.130 C 
ATOM     21  C   UNL     1       0.035   1.336  -4.900  0.00  0.00    +0.115 C 
ATOM     22  N   UNL     1      -0.747   1.586  -3.680  0.00  0.00    -0.297 NA
ATOM     23  C   UNL     1      -2.081   0.977  -3.784  0.00  0.00    +0.115 C 
ATOM     24  C   UNL     1      -2.808   1.555  -5.001  0.00  0.00    +0.130 C 
ATOM     25  O   UNL     1      -2.018   1.330  -6.172  0.00  0.00    -0.371 OA
ATOM     26  C   UNL     1      -3.017   3.058  -4.806  0.00  0.00    +0.039 C 
ENDBRANCH  18  22
ENDBRANCH  17  18
ENDBRANCH  16  17
ENDBRANCH   1  16
TORSDOF 4
