REMARK  Name = ZINC36570921
REMARK  14 active torsions:
REMARK  status: ('A' for Active; 'I' for Inactive)
REMARK    1  A    between atoms: C_1  and  C_2
REMARK    2  A    between atoms: C_2  and  C_3
REMARK    3  A    between atoms: C_3  and  N_4
REMARK    4  A    between atoms: N_4  and  C_5
REMARK    5  A    between atoms: C_5  and  C_7
REMARK    6  A    between atoms: C_5  and  C_14
REMARK    7  A    between atoms: C_11  and  O_13
REMARK    8  A    between atoms: N_16  and  C_17
REMARK    9  A    between atoms: C_17  and  C_18
REMARK   10  A    between atoms: C_17  and  C_19
REMARK   11  A    between atoms: C_17  and  C_20
REMARK   12  A    between atoms: C_21  and  C_23
REMARK   13  A    between atoms: C_24  and  O_30
REMARK   14  A    between atoms: C_28  and  O_29
REMARK                            x       y       z     vdW  Elec       q    Type
REMARK                         _______ _______ _______ _____ _____    ______ ____
ROOT
ATOM      1  C   UNL     1      -0.161  -2.680  -1.999  0.00  0.00    +0.193 C 
ENDROOT
BRANCH   1   2
ATOM      2  C   UNL     1      -0.055  -2.430  -3.481  0.00  0.00    -0.015 A 
ATOM      3  C   UNL     1       0.093  -1.139  -3.955  0.00  0.00    +0.006 A 
ATOM      4  C   UNL     1       0.191  -0.906  -5.314  0.00  0.00    +0.004 A 
ATOM      5  C   UNL     1       0.140  -1.963  -6.203  0.00  0.00    +0.045 A 
ATOM      6  C   UNL     1      -0.009  -3.258  -5.730  0.00  0.00    +0.117 A 
ATOM      7  C   UNL     1      -0.100  -3.490  -4.365  0.00  0.00    +0.051 A 
BRANCH   6   8
ATOM      8  O   UNL     1      -0.059  -4.300  -6.602  0.00  0.00    -0.507 OA
ATOM      9  H   UNL     1       0.805  -4.684  -6.806  0.00  0.00    +0.292 HD
ENDBRANCH   6   8
ENDBRANCH   1   2
BRANCH   1  10
ATOM     10  C   UNL     1      -1.519  -2.244  -1.512  0.00  0.00    +0.238 C 
ATOM     11  O   UNL     1      -1.614  -1.352  -0.696  0.00  0.00    -0.273 OA
ATOM     12  N   UNL     1      -2.629  -2.846  -1.984  0.00  0.00    -0.309 N 
ATOM     13  H   UNL     1      -2.554  -3.560  -2.636  0.00  0.00    +0.149 HD
BRANCH  12  14
ATOM     14  C   UNL     1      -3.950  -2.423  -1.510  0.00  0.00    +0.026 C 
ATOM     15  C   UNL     1      -4.161  -0.945  -1.843  0.00  0.00    +0.031 C 
ATOM     16  C   UNL     1      -5.030  -3.260  -2.197  0.00  0.00    +0.031 C 
ATOM     17  C   UNL     1      -4.036  -2.622   0.004  0.00  0.00    +0.031 C 
ENDBRANCH  12  14
ENDBRANCH   1  10
BRANCH   1  18
ATOM     18  N   UNL     1       0.876  -1.918  -1.300  0.00  0.00    -0.282 N 
ATOM     19  C   UNL     1       2.130  -2.404  -1.218  0.00  0.00    +0.255 C 
ATOM     20  O   UNL     1       2.401  -3.476  -1.725  0.00  0.00    -0.270 OA
BRANCH  19  21
ATOM     21  C   UNL     1       3.173  -1.638  -0.515  0.00  0.00    +0.119 A 
ATOM     22  C   UNL     1       3.391  -1.836   0.856  0.00  0.00    +0.133 A 
ATOM     23  C   UNL     1       4.375  -1.110   1.507  0.00  0.00    +0.046 A 
ATOM     24  C   UNL     1       5.140  -0.193   0.811  0.00  0.00    +0.007 A 
ATOM     25  C   UNL     1       4.932   0.011  -0.540  0.00  0.00    +0.046 A 
ATOM     26  C   UNL     1       3.958  -0.708  -1.213  0.00  0.00    +0.133 A 
BRANCH  26  27
ATOM     27  O   UNL     1       3.760  -0.511  -2.541  0.00  0.00    -0.506 OA
ATOM     28  H   UNL     1       3.114   0.180  -2.744  0.00  0.00    +0.292 HD
ENDBRANCH  26  27
BRANCH  22  29
ATOM     29  O   UNL     1       2.642  -2.736   1.542  0.00  0.00    -0.506 OA
ATOM     30  H   UNL     1       3.014  -3.628   1.555  0.00  0.00    +0.292 HD
ENDBRANCH  22  29
ENDBRANCH  19  21
BRANCH  18  31
ATOM     31  C   UNL     1       0.549  -0.627  -0.689  0.00  0.00    +0.109 C 
BRANCH  31  33
ATOM     32  C   UNL     1      -0.292   0.475   1.390  0.00  0.00    +0.005 C 
ATOM     33  C   UNL     1       0.250  -0.827   0.798  0.00  0.00    +0.016 C 
ENDBRANCH  31  33
ENDBRANCH  18  31
ENDBRANCH   1  18
TORSDOF 10
