REMARK  Name = ZINC15225160
REMARK  7 active torsions:
REMARK  status: ('A' for Active; 'I' for Inactive)
REMARK    1  A    between atoms: C_1  and  C_2
REMARK    2  A    between atoms: C_2  and  C_4
REMARK    3  A    between atoms: C_2  and  O_11
REMARK    4  A    between atoms: N_9  and  C_10
REMARK    5  A    between atoms: O_11  and  C_12
REMARK    6  A    between atoms: C_12  and  C_14
REMARK    7  A    between atoms: C_16  and  C_24
REMARK                            x       y       z     vdW  Elec       q    Type
REMARK                         _______ _______ _______ _____ _____    ______ ____
ROOT
ATOM      1  C   UNL     1      -1.236  -0.785   0.010  0.00  0.00    +0.070 A 
ATOM      2  C   UNL     1      -1.118  -2.167   0.017  0.00  0.00    +0.044 A 
ATOM      3  C   UNL     1       0.161  -2.750   0.001  0.00  0.00    +0.079 A 
ATOM      4  N   UNL     1       1.264  -2.026  -0.020  0.00  0.00    -0.246 NA
ATOM      5  C   UNL     1       1.241  -0.692  -0.027  0.00  0.00    +0.072 A 
ATOM      6  C   UNL     1       0.002  -0.004  -0.013  0.00  0.00    +0.014 A 
ATOM      7  C   UNL     1      -0.017   1.394  -0.019  0.00  0.00    +0.011 A 
ATOM      8  C   UNL     1       1.159   2.084  -0.040  0.00  0.00    +0.001 A 
ATOM      9  C   UNL     1       2.380   1.414  -0.055  0.00  0.00    +0.002 A 
ATOM     10  C   UNL     1       2.434   0.053  -0.049  0.00  0.00    +0.028 A 
ENDROOT
BRANCH   3  11
ATOM     11  C   UNL     1       0.274  -4.221   0.007  0.00  0.00    +0.039 A 
ATOM     12  C   UNL     1       1.401  -5.001  -0.012  0.00  0.00    +0.019 A 
ATOM     13  C   UNL     1       1.260  -6.369   0.004  0.00  0.00    +0.028 A 
ATOM     14  C   UNL     1       0.009  -6.905   0.025  0.00  0.00    +0.079 A 
ATOM     15  S   UNL     1      -1.022  -5.448   0.033  0.00  0.00    -0.075 S 
ATOM     16 CL   UNL     1      -0.462  -8.576   0.041  0.00  0.00    -0.076 Cl
ENDBRANCH   3  11
BRANCH   1  17
ATOM     17  C   UNL     1      -2.559  -0.127   0.026  0.00  0.00    +0.341 C 
ATOM     18  O   UNL     1      -2.636   1.081   0.124  0.00  0.00    -0.245 OA
BRANCH  17  19
ATOM     19  O   UNL     1      -3.681  -0.868  -0.067  0.00  0.00    -0.449 OA
BRANCH  19  21
ATOM     20  C   UNL     1      -5.348   0.215  -1.474  0.00  0.00    +0.062 C 
ATOM     21  C   UNL     1      -4.946  -0.154  -0.045  0.00  0.00    +0.259 C 
BRANCH  21  22
ATOM     22  C   UNL     1      -6.007  -1.033   0.565  0.00  0.00    +0.261 C 
ATOM     23  O   UNL     1      -5.726  -2.150   0.943  0.00  0.00    -0.271 OA
ATOM     24  N   UNL     1      -7.269  -0.577   0.690  0.00  0.00    -0.237 N 
ATOM     25  C   UNL     1      -8.219  -1.363   1.235  0.00  0.00    +0.306 C 
ATOM     26  O   UNL     1      -7.937  -2.482   1.615  0.00  0.00    -0.252 OA
ATOM     27  N   UNL     1      -9.481  -0.907   1.360  0.00  0.00    -0.302 N 
ATOM     28  C   UNL     1     -10.513  -1.761   1.953  0.00  0.00    +0.129 C 
ATOM     29  H   UNL     1      -7.494   0.317   0.387  0.00  0.00    +0.159 HD
ATOM     30  H   UNL     1      -9.706  -0.013   1.058  0.00  0.00    +0.150 HD
ENDBRANCH  21  22
ENDBRANCH  19  21
ENDBRANCH  17  19
ENDBRANCH   1  17
TORSDOF 5
