REMARK  Name = ZINC66924886
REMARK  5 active torsions:
REMARK  status: ('A' for Active; 'I' for Inactive)
REMARK    1  A    between atoms: C_10  and  C_11
REMARK    2  A    between atoms: C_10  and  O_29
REMARK    3  A    between atoms: C_11  and  N_12
REMARK    4  A    between atoms: N_15  and  C_16
REMARK    5  A    between atoms: C_16  and  C_17
REMARK                            x       y       z     vdW  Elec       q    Type
REMARK                         _______ _______ _______ _____ _____    ______ ____
ROOT
ATOM      1  N   UNL     1       4.880   1.428   0.433  0.00  0.00    -0.296 N 
ATOM      2  C   UNL     1       5.733   2.242   1.086  0.00  0.00    +0.300 C 
ATOM      3  O   UNL     1       6.383   1.817   2.022  0.00  0.00    -0.253 OA
ATOM      4  N   UNL     1       5.866   3.527   0.701  0.00  0.00    -0.295 N 
ATOM      5  H   UNL     1       4.362   1.767  -0.313  0.00  0.00    +0.150 HD
ATOM      6  H   UNL     1       5.348   3.865  -0.045  0.00  0.00    +0.151 HD
ENDROOT
BRANCH   1   7
ATOM      7  C   UNL     1       4.735   0.031   0.852  0.00  0.00    +0.145 C 
BRANCH   7  17
ATOM      8  C   UNL     1       3.637  -4.812   1.042  0.00  0.00    +0.000 A 
ATOM      9  C   UNL     1       3.610  -3.805   1.989  0.00  0.00    +0.000 A 
ATOM     10  C   UNL     1       3.670  -2.486   1.590  0.00  0.00    +0.007 A 
ATOM     11  C   UNL     1       3.758  -2.160   0.242  0.00  0.00    -0.011 A 
ATOM     12  C   UNL     1       3.790  -3.162  -0.701  0.00  0.00    -0.041 A 
ATOM     13  C   UNL     1       3.727  -4.490  -0.297  0.00  0.00    +0.004 A 
ATOM     14  C   UNL     1       3.901  -2.883  -2.177  0.00  0.00    +0.035 C 
ATOM     15  C   UNL     1       3.530  -1.432  -2.479  0.00  0.00    +0.008 C 
ATOM     16  C   UNL     1       4.338  -0.522  -1.546  0.00  0.00    +0.041 C 
ATOM     17  C   UNL     1       3.811  -0.700  -0.124  0.00  0.00    +0.107 C 
BRANCH  17  18
ATOM     18  O   UNL     1       2.498  -0.144  -0.035  0.00  0.00    -0.382 OA
ATOM     19  H   UNL     1       2.104  -0.205   0.847  0.00  0.00    +0.211 HD
ENDBRANCH  17  18
ENDBRANCH   7  17
ENDBRANCH   1   7
BRANCH   4  20
ATOM     20  C   UNL     1       6.794   4.412   1.411  0.00  0.00    +0.142 C 
BRANCH  20  21
ATOM     21  C   UNL     1       6.754   5.783   0.788  0.00  0.00    -0.014 A 
ATOM     22  C   UNL     1       7.610   6.104  -0.258  0.00  0.00    +0.010 A 
ATOM     23  C   UNL     1       7.541   7.374  -0.801  0.00  0.00    +0.042 A 
ATOM     24  C   UNL     1       6.623   8.283  -0.283  0.00  0.00    +0.099 A 
ATOM     25  N   UNL     1       5.825   7.939   0.715  0.00  0.00    -0.349 N 
ATOM     26  C   UNL     1       5.864   6.732   1.248  0.00  0.00    +0.089 A 
ATOM     27  N   UNL     1       6.544   9.563  -0.819  0.00  0.00    -0.317 N 
ATOM     28  C   UNL     1       5.687  10.582  -0.200  0.00  0.00    +0.106 C 
ATOM     29  C   UNL     1       6.530  11.829   0.084  0.00  0.00    +0.019 C 
ATOM     30  C   UNL     1       7.212  12.284  -1.209  0.00  0.00    +0.003 C 
ATOM     31  C   UNL     1       8.141  11.177  -1.713  0.00  0.00    +0.019 C 
ATOM     32  C   UNL     1       7.321   9.924  -2.013  0.00  0.00    +0.106 C 
ATOM     33  H   UNL     1       5.192   8.588   1.060  0.00  0.00    +0.167 HD
ENDBRANCH  20  21
ENDBRANCH   4  20
TORSDOF 5
