REMARK  Name = ZINC00199730
REMARK  4 active torsions:
REMARK  status: ('A' for Active; 'I' for Inactive)
REMARK    1  A    between atoms: C_6  and  O_22
REMARK    2  A    between atoms: C_7  and  C_11
REMARK    3  A    between atoms: N_13  and  N_14
REMARK    4  A    between atoms: C_15  and  C_17
REMARK                            x       y       z     vdW  Elec       q    Type
REMARK                         _______ _______ _______ _____ _____    ______ ____
ROOT
ATOM      1  C   UNL     1      -3.721   2.070   0.050  0.00  0.00    +0.264 C 
ATOM      2  O   UNL     1      -4.758   1.436   0.057  0.00  0.00    -0.269 OA
ATOM      3  N   UNL     1      -3.754   3.417   0.058  0.00  0.00    -0.230 N 
ATOM      4  H   UNL     1      -2.927   3.923   0.052  0.00  0.00    +0.173 HD
ENDROOT
BRANCH   1  11
ATOM      5  C   UNL     1       2.376   1.436  -0.013  0.00  0.00    +0.001 A 
ATOM      6  C   UNL     1       2.394   0.042  -0.021  0.00  0.00    +0.001 A 
ATOM      7  C   UNL     1       1.238  -0.675  -0.013  0.00  0.00    +0.008 A 
ATOM      8  C   UNL     1       0.002  -0.004   0.002  0.00  0.00    -0.014 A 
ATOM      9  C   UNL     1      -1.208  -0.718   0.010  0.00  0.00    +0.054 A 
ATOM     10  C   UNL     1      -2.395  -0.047   0.026  0.00  0.00    +0.130 A 
ATOM     11  C   UNL     1      -2.425   1.364   0.034  0.00  0.00    +0.080 A 
ATOM     12  C   UNL     1      -1.246   2.091   0.031  0.00  0.00    +0.025 A 
ATOM     13  C   UNL     1      -0.017   1.415   0.010  0.00  0.00    -0.017 A 
ATOM     14  C   UNL     1       1.200   2.120   0.002  0.00  0.00    +0.008 A 
BRANCH  10  15
ATOM     15  O   UNL     1      -3.560  -0.743   0.033  0.00  0.00    -0.506 OA
ATOM     16  H   UNL     1      -3.889  -0.950   0.918  0.00  0.00    +0.292 HD
ENDBRANCH  10  15
ENDBRANCH   1  11
BRANCH   3  17
ATOM     17  N   UNL     1      -4.985   4.088   0.073  0.00  0.00    -0.228 N 
ATOM     18  C   UNL     1      -5.018   5.435   0.081  0.00  0.00    +0.295 C 
ATOM     19  O   UNL     1      -3.980   6.069   0.074  0.00  0.00    -0.265 OA
ATOM     20  H   UNL     1      -5.812   3.582   0.079  0.00  0.00    +0.173 HD
BRANCH  18  21
ATOM     21  C   UNL     1      -6.306   6.136   0.098  0.00  0.00    +0.190 A 
ATOM     22  C   UNL     1      -6.482   7.490   0.107  0.00  0.00    +0.054 A 
ATOM     23  C   UNL     1      -7.867   7.717   0.121  0.00  0.00    +0.042 A 
ATOM     24  C   UNL     1      -8.468   6.507   0.120  0.00  0.00    +0.196 A 
ATOM     25  O   UNL     1      -7.524   5.557   0.101  0.00  0.00    -0.458 OA
ENDBRANCH  18  21
ENDBRANCH   3  17
TORSDOF 4
