REMARK  Name = ZINC39617704
REMARK  6 active torsions:
REMARK  status: ('A' for Active; 'I' for Inactive)
REMARK    1  A    between atoms: C_1  and  N_2
REMARK    2  A    between atoms: N_2  and  C_3
REMARK    3  A    between atoms: C_11  and  C_13
REMARK    4  A    between atoms: C_16  and  S_24
REMARK    5  A    between atoms: S_24  and  N_27
REMARK    6  A    between atoms: N_27  and  C_28
REMARK                            x       y       z     vdW  Elec       q    Type
REMARK                         _______ _______ _______ _____ _____    ______ ____
ROOT
ATOM      1  C   UNL     1      -2.767   1.247  -4.314  0.00  0.00    +0.032 C 
ATOM      2  C   UNL     1      -2.685   0.214  -5.225  0.00  0.00    +0.007 A 
ATOM      3  C   UNL     1      -2.090  -1.071  -4.857  0.00  0.00    +0.039 A 
ATOM      4  C   UNL     1      -2.033  -2.055  -5.787  0.00  0.00    +0.109 A 
ATOM      5  C   UNL     1      -2.529  -1.866  -7.083  0.00  0.00    +0.030 A 
ATOM      6  C   UNL     1      -3.092  -0.702  -7.490  0.00  0.00    +0.026 A 
ATOM      7  C   UNL     1      -3.202   0.388  -6.599  0.00  0.00    +0.041 A 
ATOM      8  N   UNL     1      -3.754   1.523  -7.003  0.00  0.00    -0.285 N 
ATOM      9  C   UNL     1      -3.889   2.587  -6.221  0.00  0.00    +0.222 C 
ATOM     10  O   UNL     1      -4.406   3.599  -6.654  0.00  0.00    -0.275 OA
ATOM     11  C   UNL     1      -3.407   2.537  -4.789  0.00  0.00    +0.137 C 
ATOM     12  H   UNL     1      -4.075   1.579  -7.917  0.00  0.00    +0.155 HD
ENDROOT
BRANCH   1  15
ATOM     13  C   UNL     1      -0.056   1.767  -3.733  0.00  0.00    +0.132 C 
ATOM     14  N   UNL     1      -0.952   1.298  -2.673  0.00  0.00    -0.296 N 
ATOM     15  C   UNL     1      -2.259   1.100  -2.934  0.00  0.00    +0.244 C 
ATOM     16  O   UNL     1      -3.020   0.800  -2.036  0.00  0.00    -0.270 OA
BRANCH  14  17
ATOM     17  C   UNL     1      -0.427   1.045  -1.329  0.00  0.00    +0.098 C 
ATOM     18  C   UNL     1       0.671  -0.028  -1.403  0.00  0.00    +0.046 C 
ATOM     19  C   UNL     1       1.419  -0.051  -0.040  0.00  0.00    +0.168 C 
ATOM     20  S   UNL     1       1.528   1.753   0.316  0.00  0.00    -0.029 S 
ATOM     21  O   UNL     1       1.190   1.978   1.677  0.00  0.00    -0.174 OA
ATOM     22  O   UNL     1       2.759   2.251  -0.190  0.00  0.00    -0.174 OA
ATOM     23  C   UNL     1       0.157   2.357  -0.750  0.00  0.00    +0.188 C 
ENDBRANCH  14  17
ENDBRANCH   1  15
BRANCH   4  24
ATOM     24  S   UNL     1      -1.318  -3.607  -5.357  0.00  0.00    +0.072 S 
ATOM     25  O   UNL     1      -0.970  -4.246  -6.577  0.00  0.00    -0.150 OA
ATOM     26  O   UNL     1      -0.366  -3.346  -4.335  0.00  0.00    -0.150 OA
BRANCH  24  27
ATOM     27  N   UNL     1      -2.514  -4.522  -4.668  0.00  0.00    -0.216 N 
ATOM     28  H   UNL     1      -2.811  -5.338  -5.101  0.00  0.00    +0.174 HD
BRANCH  27  29
ATOM     29  C   UNL     1      -3.095  -4.119  -3.461  0.00  0.00    +0.048 A 
ATOM     30  C   UNL     1      -2.400  -4.272  -2.269  0.00  0.00    +0.027 A 
ATOM     31  C   UNL     1      -2.976  -3.873  -1.079  0.00  0.00    +0.040 A 
ATOM     32  C   UNL     1      -4.246  -3.321  -1.074  0.00  0.00    +0.124 A 
ATOM     33  C   UNL     1      -4.941  -3.168  -2.261  0.00  0.00    +0.040 A 
ATOM     34  C   UNL     1      -4.367  -3.561  -3.455  0.00  0.00    +0.027 A 
ATOM     35  F   UNL     1      -4.808  -2.932   0.092  0.00  0.00    -0.205 F 
ENDBRANCH  27  29
ENDBRANCH  24  27
ENDBRANCH   4  24
TORSDOF 5
