REMARK  Name = ZINC63746716
REMARK  7 active torsions:
REMARK  status: ('A' for Active; 'I' for Inactive)
REMARK    1  A    between atoms: C_1  and  N_2
REMARK    2  A    between atoms: C_3  and  C_23
REMARK    3  A    between atoms: N_9  and  C_17
REMARK    4  A    between atoms: C_11  and  C_12
REMARK    5  A    between atoms: N_25  and  C_26
REMARK    6  A    between atoms: C_26  and  C_27
REMARK    7  A    between atoms: C_27  and  C_28
REMARK                            x       y       z     vdW  Elec       q    Type
REMARK                         _______ _______ _______ _____ _____    ______ ____
ROOT
ATOM      1  C   UNL     1       0.387   1.833   0.515  0.00  0.00    +0.108 C 
ATOM      2  N   UNL     1       0.303   0.395   0.230  0.00  0.00    -0.268 NA
ATOM      3  C   UNL     1       1.131   0.037  -0.955  0.00  0.00    +0.168 C 
ATOM      4  C   UNL     1       1.630  -1.367  -0.680  0.00  0.00    +0.010 C 
ATOM      5  C   UNL     1       1.397  -1.674   0.579  0.00  0.00    +0.015 C 
ATOM      6  C   UNL     1       0.950  -0.391   1.289  0.00  0.00    +0.201 C 
ATOM      7  N   UNL     1       0.022  -0.943   2.283  0.00  0.00    -0.202 N 
ATOM      8  N   UNL     1       0.562  -2.200   2.622  0.00  0.00    -0.177 NA
ATOM      9  C   UNL     1       1.359  -2.655   1.679  0.00  0.00    +0.102 C 
ENDROOT
BRANCH   7  10
ATOM     10  C   UNL     1      -1.138  -0.353   2.783  0.00  0.00    +0.054 A 
ATOM     11  C   UNL     1      -2.069   0.201   1.912  0.00  0.00    +0.025 A 
ATOM     12  C   UNL     1      -3.217   0.784   2.411  0.00  0.00    +0.002 A 
ATOM     13  C   UNL     1      -3.441   0.818   3.776  0.00  0.00    +0.000 A 
ATOM     14  C   UNL     1      -2.517   0.268   4.645  0.00  0.00    +0.002 A 
ATOM     15  C   UNL     1      -1.370  -0.323   4.154  0.00  0.00    +0.025 A 
ENDBRANCH   7  10
BRANCH   9  16
ATOM     16  C   UNL     1       2.091  -3.934   1.716  0.00  0.00    +0.039 A 
ATOM     17  C   UNL     1       2.103  -4.896   2.693  0.00  0.00    +0.018 A 
ATOM     18  C   UNL     1       2.872  -6.022   2.504  0.00  0.00    +0.008 A 
ATOM     19  C   UNL     1       3.594  -6.146   1.360  0.00  0.00    +0.046 A 
ATOM     20  S   UNL     1       3.188  -4.638   0.496  0.00  0.00    -0.095 S 
ENDBRANCH   9  16
BRANCH   3  21
ATOM     21  C   UNL     1       0.291   0.060  -2.206  0.00  0.00    +0.234 C 
ATOM     22  O   UNL     1      -0.886   0.344  -2.141  0.00  0.00    -0.274 OA
ATOM     23  N   UNL     1       0.848  -0.236  -3.397  0.00  0.00    -0.313 N 
ATOM     24  H   UNL     1       1.790  -0.463  -3.449  0.00  0.00    +0.149 HD
BRANCH  23  25
ATOM     25  C   UNL     1       0.032  -0.213  -4.613  0.00  0.00    +0.108 C 
BRANCH  25  26
ATOM     26  C   UNL     1       0.901  -0.584  -5.817  0.00  0.00    +0.052 C 
BRANCH  26  27
ATOM     27  C   UNL     1       0.061  -0.561  -7.069  0.00  0.00    -0.040 C 
ATOM     28  C   UNL     1      -0.069   0.464  -7.942  0.00  0.00    -0.001 A 
ATOM     29  C   UNL     1       0.508   1.813  -7.985  0.00  0.00    +0.010 A 
ATOM     30  C   UNL     1       0.182   2.633  -9.010  0.00  0.00    +0.001 A 
ATOM     31  C   UNL     1      -0.692   2.229 -10.028  0.00  0.00    +0.002 A 
ATOM     32  C   UNL     1      -1.262   1.006 -10.057  0.00  0.00    +0.026 A 
ATOM     33  C   UNL     1      -0.990   0.061  -9.029  0.00  0.00    +0.043 A 
ATOM     34  N   UNL     1      -1.411  -1.165  -8.836  0.00  0.00    -0.380 N 
ATOM     35  C   UNL     1      -0.801  -1.681  -7.606  0.00  0.00    +0.144 C 
ATOM     36  H   UNL     1      -2.022  -1.651  -9.412  0.00  0.00    +0.160 HD
ENDBRANCH  26  27
ENDBRANCH  25  26
ENDBRANCH  23  25
ENDBRANCH   3  21
TORSDOF 6
