REMARK  Name = ZINC33877273
REMARK  9 active torsions:
REMARK  status: ('A' for Active; 'I' for Inactive)
REMARK    1  A    between atoms: C_3  and  C_12
REMARK    2  A    between atoms: C_5  and  O_7
REMARK    3  A    between atoms: O_7  and  C_8
REMARK    4  A    between atoms: N_20  and  C_23
REMARK    5  A    between atoms: C_29  and  C_31
REMARK    6  A    between atoms: C_29  and  C_38
REMARK    7  A    between atoms: C_31  and  C_32
REMARK    8  A    between atoms: C_32  and  C_33
REMARK    9  A    between atoms: C_33  and  N_34
REMARK                            x       y       z     vdW  Elec       q    Type
REMARK                         _______ _______ _______ _____ _____    ______ ____
ROOT
ATOM      1  C   UNL     1       3.671   2.190  -0.021  0.00  0.00    -0.027 C 
ATOM      2  C   UNL     1       3.963   2.737  -1.415  0.00  0.00    +0.077 C 
ATOM      3  C   UNL     1       5.014   3.828  -0.981  0.00  0.00    +0.086 C 
ATOM      4  C   UNL     1       5.668   4.127  -2.232  0.00  0.00    +0.225 C 
ATOM      5  O   UNL     1       6.116   5.194  -2.594  0.00  0.00    -0.275 OA
ATOM      6  N   UNL     1       5.673   2.941  -2.923  0.00  0.00    -0.239 N 
ATOM      7  C   UNL     1       4.840   1.990  -2.370  0.00  0.00    +0.225 C 
ATOM      8  O   UNL     1       4.820   0.800  -2.599  0.00  0.00    -0.275 OA
ATOM      9  C   UNL     1       4.354   4.514   0.137  0.00  0.00    +0.048 C 
ATOM     10  N   UNL     1       3.551   3.429   0.816  0.00  0.00    +0.395 N 
ATOM     11  H   UNL     1       2.584   3.713   0.870  0.00  0.00    -0.083 HD
ATOM     12  H   UNL     1       3.910   3.252   1.742  0.00  0.00    -0.083 HD
ENDROOT
BRANCH   1  15
ATOM     13  C   UNL     1      -0.017   1.377   0.010  0.00  0.00    +0.004 A 
ATOM     14  C   UNL     1       1.171   2.086   0.002  0.00  0.00    +0.002 A 
ATOM     15  C   UNL     1       2.379   1.415  -0.013  0.00  0.00    -0.057 A 
ATOM     16  C   UNL     1       2.403   0.033  -0.021  0.00  0.00    +0.048 A 
ATOM     17  C   UNL     1       1.214  -0.680  -0.013  0.00  0.00    +0.130 A 
ATOM     18  C   UNL     1       0.002  -0.004   0.002  0.00  0.00    +0.046 A 
BRANCH  17  19
ATOM     19  O   UNL     1       1.235  -2.039  -0.021  0.00  0.00    -0.406 OA
BRANCH  19  20
ATOM     20  C   UNL     1      -0.028  -2.708  -0.013  0.00  0.00    +0.575 C 
ATOM     21  F   UNL     1      -0.760  -2.336  -1.146  0.00  0.00    -0.133 F 
ATOM     22  F   UNL     1       0.176  -4.091  -0.023  0.00  0.00    -0.133 F 
ATOM     23  F   UNL     1      -0.738  -2.349   1.138  0.00  0.00    -0.133 F 
ENDBRANCH  19  20
ENDBRANCH  17  19
ENDBRANCH   1  15
BRANCH   6  24
ATOM     24  C   UNL     1       6.469   2.708  -4.130  0.00  0.00    +0.084 C 
ATOM     25  C   UNL     1       5.539   2.361  -5.295  0.00  0.00    +0.023 C 
ATOM     26  C   UNL     1       6.370   2.118  -6.556  0.00  0.00    +0.002 C 
ATOM     27  C   UNL     1       7.339   0.959  -6.313  0.00  0.00    +0.000 C 
ATOM     28  C   UNL     1       8.269   1.307  -5.149  0.00  0.00    +0.002 C 
ATOM     29  C   UNL     1       7.438   1.550  -3.888  0.00  0.00    +0.023 C 
ENDBRANCH   6  24
BRANCH   9  30
ATOM     30  C   UNL     1       3.465   5.618  -0.376  0.00  0.00    +0.346 C 
ATOM     31  O   UNL     1       2.269   5.596  -0.139  0.00  0.00    -0.248 OA
ATOM     32  O   UNL     1       3.941   6.532  -1.026  0.00  0.00    -0.248 OA
ENDBRANCH   9  30
BRANCH   9  33
ATOM     33  C   UNL     1       5.394   5.073   1.109  0.00  0.00    +0.001 C 
BRANCH  33  34
ATOM     34  C   UNL     1       4.686   5.673   2.325  0.00  0.00    +0.018 C 
BRANCH  34  35
ATOM     35  C   UNL     1       5.727   6.232   3.297  0.00  0.00    +0.105 C 
BRANCH  35  36
ATOM     36  N   UNL     1       5.048   6.806   4.462  0.00  0.00    -0.300 N 
ATOM     37  C   UNL     1       5.769   7.361   5.456  0.00  0.00    +0.297 C 
ATOM     38  O   UNL     1       6.983   7.385   5.386  0.00  0.00    -0.253 OA
ATOM     39  N   UNL     1       5.145   7.889   6.527  0.00  0.00    -0.313 N 
ATOM     40  H   UNL     1       4.080   6.787   4.517  0.00  0.00    +0.150 HD
ATOM     41  H   UNL     1       4.177   7.870   6.583  0.00  0.00    +0.146 HD
ATOM     42  H   UNL     1       5.664   8.289   7.243  0.00  0.00    +0.146 HD
ENDBRANCH  35  36
ENDBRANCH  34  35
ENDBRANCH  33  34
ENDBRANCH   9  33
TORSDOF 9
