REMARK  Name = ZINC08060963
REMARK  7 active torsions:
REMARK  status: ('A' for Active; 'I' for Inactive)
REMARK    1  A    between atoms: C_1  and  C_2
REMARK    2  A    between atoms: C_5  and  O_24
REMARK    3  A    between atoms: C_6  and  N_8
REMARK    4  A    between atoms: C_9  and  C_11
REMARK    5  A    between atoms: C_11  and  C_12
REMARK    6  A    between atoms: C_12  and  N_13
REMARK    7  A    between atoms: O_24  and  C_25
REMARK                            x       y       z     vdW  Elec       q    Type
REMARK                         _______ _______ _______ _____ _____    ______ ____
ROOT
ATOM      1  N   UNL     1      -0.288   1.272  -2.443  0.00  0.00    -0.283 N 
ATOM      2  C   UNL     1      -0.744   1.582  -1.213  0.00  0.00    +0.219 C 
ATOM      3  O   UNL     1      -1.734   2.270  -1.088  0.00  0.00    -0.275 OA
ATOM      4  H   UNL     1       0.547   0.790  -2.544  0.00  0.00    +0.155 HD
ENDROOT
BRANCH   1  10
ATOM      5  C   UNL     1      -4.598   2.455  -4.494  0.00  0.00    +0.044 C 
ATOM      6  C   UNL     1      -3.112   2.227  -4.599  0.00  0.00    -0.048 A 
ATOM      7  C   UNL     1      -2.475   2.387  -5.816  0.00  0.00    +0.007 A 
ATOM      8  C   UNL     1      -1.112   2.179  -5.919  0.00  0.00    +0.048 A 
ATOM      9  C   UNL     1      -0.381   1.808  -4.802  0.00  0.00    +0.141 A 
ATOM     10  C   UNL     1      -1.023   1.647  -3.576  0.00  0.00    +0.076 A 
ATOM     11  C   UNL     1      -2.391   1.853  -3.482  0.00  0.00    +0.030 A 
BRANCH   9  12
ATOM     12  O   UNL     1       0.959   1.603  -4.902  0.00  0.00    -0.493 OA
ATOM     13  C   UNL     1       1.550   1.786  -6.191  0.00  0.00    +0.277 C 
ENDBRANCH   9  12
ENDBRANCH   1  10
BRANCH   2  14
ATOM     14  C   UNL     1      -0.021   1.072   0.008  0.00  0.00    +0.115 C 
BRANCH  14  15
ATOM     15  C   UNL     1      -0.738   1.564   1.267  0.00  0.00    +0.123 C 
BRANCH  15  16
ATOM     16  N   UNL     1      -0.036   1.068   2.454  0.00  0.00    -0.265 N 
ATOM     17  C   UNL     1      -0.389  -0.161   3.028  0.00  0.00    +0.078 A 
ATOM     18  C   UNL     1      -1.164  -1.072   2.330  0.00  0.00    +0.027 A 
ATOM     19  C   UNL     1      -1.502  -2.279   2.915  0.00  0.00    +0.002 A 
ATOM     20  C   UNL     1      -1.067  -2.578   4.193  0.00  0.00    +0.004 A 
ATOM     21  C   UNL     1      -0.285  -1.679   4.889  0.00  0.00    +0.047 A 
ATOM     22  C   UNL     1       0.053  -0.466   4.313  0.00  0.00    +0.142 A 
ATOM     23  O   UNL     1       0.810   0.436   4.991  0.00  0.00    -0.481 OA
ATOM     24  C   UNL     1       1.693   1.249   4.213  0.00  0.00    +0.325 C 
ATOM     25  C   UNL     1       0.957   1.792   3.015  0.00  0.00    +0.258 C 
ATOM     26  O   UNL     1       1.255   2.874   2.556  0.00  0.00    -0.272 OA
ENDBRANCH  15  16
ENDBRANCH  14  15
ENDBRANCH   2  14
TORSDOF 5
