REMARK  Name = ZINC20159551
REMARK  5 active torsions:
REMARK  status: ('A' for Active; 'I' for Inactive)
REMARK    1  A    between atoms: C_4  and  O_7
REMARK    2  A    between atoms: O_7  and  C_8
REMARK    3  A    between atoms: C_8  and  C_9
REMARK    4  A    between atoms: C_11  and  C_14
REMARK    5  A    between atoms: C_19  and  N_20
REMARK                            x       y       z     vdW  Elec       q    Type
REMARK                         _______ _______ _______ _____ _____    ______ ____
ROOT
ATOM      1  C   UNL     1       1.973   0.781  -0.013  0.00  0.00    +0.209 A 
ATOM      2  N   UNL     1       1.274  -0.365  -0.012  0.00  0.00    -0.188 NA
ATOM      3  C   UNL     1       0.002  -0.004   0.002  0.00  0.00    +0.260 A 
ATOM      4  O   UNL     1      -0.016   1.338   0.009  0.00  0.00    -0.333 OA
ATOM      5  N   UNL     1       1.120   1.762   0.001  0.00  0.00    -0.057 NA
ENDROOT
BRANCH   3   6
ATOM      6  C   UNL     1      -1.169  -0.901   0.009  0.00  0.00    +0.060 A 
ATOM      7  C   UNL     1      -0.992  -2.287  -0.006  0.00  0.00    +0.015 A 
ATOM      8  C   UNL     1      -2.090  -3.120   0.007  0.00  0.00    +0.001 A 
ATOM      9  C   UNL     1      -3.370  -2.591   0.022  0.00  0.00    +0.002 A 
ATOM     10  C   UNL     1      -3.561  -1.223   0.030  0.00  0.00    +0.023 A 
ATOM     11  C   UNL     1      -2.466  -0.368   0.024  0.00  0.00    +0.037 A 
BRANCH  11  12
ATOM     12  N   UNL     1      -2.656   1.010   0.033  0.00  0.00    -0.357 N 
ATOM     13  H   UNL     1      -3.675   1.425   0.045  0.00  0.00    +0.142 HD
ATOM     14  H   UNL     1      -1.787   1.684   0.029  0.00  0.00    +0.142 HD
ENDBRANCH  11  12
ENDBRANCH   3   6
BRANCH   1  15
ATOM     15  C   UNL     1       3.474   0.907  -0.026  0.00  0.00    +0.308 C 
BRANCH  15  16
ATOM     16  O   UNL     1       3.936   0.954  -1.378  0.00  0.00    -0.484 OA
BRANCH  16  20
ATOM     17  C   UNL     1       8.007   1.299  -1.955  0.00  0.00    +0.000 A 
ATOM     18  C   UNL     1       7.158   1.235  -3.045  0.00  0.00    +0.004 A 
ATOM     19  C   UNL     1       5.795   1.119  -2.854  0.00  0.00    +0.045 A 
ATOM     20  C   UNL     1       5.277   1.068  -1.568  0.00  0.00    +0.121 A 
ATOM     21  C   UNL     1       6.130   1.139  -0.476  0.00  0.00    +0.045 A 
ATOM     22  C   UNL     1       7.493   1.248  -0.672  0.00  0.00    +0.004 A 
ENDBRANCH  16  20
ENDBRANCH  15  16
ENDBRANCH   1  15
TORSDOF 5
