REMARK  Name = ZINC43386435
REMARK  7 active torsions:
REMARK  status: ('A' for Active; 'I' for Inactive)
REMARK    1  A    between atoms: C_1  and  C_2
REMARK    2  A    between atoms: C_2  and  C_4
REMARK    3  A    between atoms: C_2  and  N_20
REMARK    4  A    between atoms: C_4  and  C_6
REMARK    5  A    between atoms: C_4  and  S_10
REMARK    6  A    between atoms: S_10  and  C_11
REMARK    7  A    between atoms: C_17  and  N_19
REMARK                            x       y       z     vdW  Elec       q    Type
REMARK                         _______ _______ _______ _____ _____    ______ ____
ROOT
ATOM      1  S   UNL     1      -2.113   0.764  -1.258  0.00  0.00    -0.077 S 
ENDROOT
BRANCH   1   2
ATOM      2  C   UNL     1      -3.853   0.493  -1.209  0.00  0.00    +0.171 A 
ATOM      3  N   UNL     1      -4.649   1.101  -2.132  0.00  0.00    -0.302 N 
ATOM      4  H   UNL     1      -4.256   1.677  -2.807  0.00  0.00    +0.171 HD
ATOM      5  C   UNL     1      -5.984   0.905  -2.109  0.00  0.00    +0.254 A 
ATOM      6  O   UNL     1      -6.705   1.447  -2.933  0.00  0.00    -0.268 OA
ATOM      7  C   UNL     1      -6.528   0.072  -1.127  0.00  0.00    +0.113 A 
ATOM      8  C   UNL     1      -5.674  -0.525  -0.210  0.00  0.00    +0.124 A 
ATOM      9  N   UNL     1      -4.357  -0.298  -0.285  0.00  0.00    -0.209 NA
BRANCH   8  10
ATOM     10  N   UNL     1      -6.180  -1.353   0.771  0.00  0.00    -0.343 N 
ATOM     11  H   UNL     1      -7.134  -1.520   0.821  0.00  0.00    +0.144 HD
ATOM     12  H   UNL     1      -5.581  -1.769   1.411  0.00  0.00    +0.144 HD
ENDBRANCH   8  10
ENDBRANCH   1   2
BRANCH   1  13
ATOM     13  C   UNL     1      -1.475  -0.229   0.119  0.00  0.00    +0.143 C 
BRANCH  13  14
ATOM     14  C   UNL     1      -1.726  -1.712  -0.162  0.00  0.00    +0.400 C 
ATOM     15  F   UNL     1      -1.117  -2.485   0.832  0.00  0.00    -0.170 F 
ATOM     16  F   UNL     1      -3.103  -1.959  -0.166  0.00  0.00    -0.170 F 
ATOM     17  F   UNL     1      -1.188  -2.048  -1.409  0.00  0.00    -0.170 F 
ENDBRANCH  13  14
BRANCH  13  19
ATOM     18  C   UNL     1       0.278   1.494   0.566  0.00  0.00    -0.013 C 
ATOM     19  C   UNL     1       0.028   0.014   0.270  0.00  0.00    -0.056 C 
BRANCH  19  20
ATOM     20  N   UNL     1       0.712  -0.359  -0.975  0.00  0.00    +0.381 N 
ATOM     21  H   UNL     1       1.694  -0.144  -0.896  0.00  0.00    -0.090 HD
ATOM     22  H   UNL     1       0.596  -1.348  -1.140  0.00  0.00    -0.090 HD
ATOM     23  H   UNL     1       0.315   0.159  -1.745  0.00  0.00    -0.090 HD
ENDBRANCH  19  20
ENDBRANCH  13  19
ENDBRANCH   1  13
TORSDOF 6
