REMARK  Name = ZINC13941936
REMARK  10 active torsions:
REMARK  status: ('A' for Active; 'I' for Inactive)
REMARK    1  A    between atoms: C_1  and  C_2
REMARK    2  A    between atoms: C_2  and  C_3
REMARK    3  A    between atoms: N_5  and  C_6
REMARK    4  A    between atoms: C_7  and  C_20
REMARK    5  A    between atoms: N_12  and  N_13
REMARK    6  A    between atoms: N_13  and  C_14
REMARK    7  A    between atoms: C_14  and  N_16
REMARK    8  A    between atoms: C_20  and  O_22
REMARK    9  A    between atoms: O_22  and  C_23
REMARK   10  A    between atoms: C_23  and  C_24
REMARK                            x       y       z     vdW  Elec       q    Type
REMARK                         _______ _______ _______ _____ _____    ______ ____
ROOT
ATOM      1  C   UNL     1      -5.488   1.211   0.950  0.00  0.00    +0.087 A 
ATOM      2  C   UNL     1      -4.401   0.521   1.487  0.00  0.00    +0.091 A 
ATOM      3  C   UNL     1      -4.651  -0.556   2.348  0.00  0.00    -0.016 A 
ATOM      4  C   UNL     1      -5.979  -0.820   2.586  0.00  0.00    +0.041 A 
ATOM      5  S   UNL     1      -6.851   0.383   1.634  0.00  0.00    -0.071 S 
ATOM      6  C   UNL     1      -6.473  -1.887   3.448  0.00  0.00    +0.073 C 
ATOM      7  N   UNL     1      -7.725  -1.988   3.788  0.00  0.00    -0.185 NA
ATOM      8  C   UNL     1      -5.414  -2.885   3.906  0.00  0.00    +0.058 C 
ATOM      9  C   UNL     1      -4.152  -2.086   4.251  0.00  0.00    +0.011 C 
ATOM     10  C   UNL     1      -3.576  -1.409   3.009  0.00  0.00    +0.037 C 
ENDROOT
BRANCH   1  13
ATOM     11  C   UNL     1      -6.644   2.829  -0.331  0.00  0.00    +0.217 C 
ATOM     12  O   UNL     1      -7.697   2.368   0.055  0.00  0.00    -0.275 OA
ATOM     13  N   UNL     1      -5.480   2.290   0.084  0.00  0.00    -0.279 N 
ATOM     14  H   UNL     1      -4.638   2.659  -0.225  0.00  0.00    +0.155 HD
BRANCH  11  16
ATOM     15  C   UNL     1      -8.076   4.418  -1.585  0.00  0.00    +0.013 C 
ATOM     16  C   UNL     1      -6.636   4.004  -1.275  0.00  0.00    +0.093 C 
ENDBRANCH  11  16
ENDBRANCH   1  13
BRANCH   7  17
ATOM     17  N   UNL     1      -8.623  -0.963   3.466  0.00  0.00    -0.218 N 
ATOM     18  H   UNL     1      -8.299  -0.142   3.063  0.00  0.00    +0.176 HD
BRANCH  17  19
ATOM     19  C   UNL     1      -9.939  -1.118   3.714  0.00  0.00    +0.147 C 
ATOM     20  S   UNL     1     -11.037   0.135   3.320  0.00  0.00    -0.017 S 
BRANCH  19  21
ATOM     21  N   UNL     1     -10.390  -2.258   4.273  0.00  0.00    -0.339 N 
ATOM     22  H   UNL     1      -9.768  -2.968   4.497  0.00  0.00    +0.144 HD
ATOM     23  H   UNL     1     -11.337  -2.369   4.452  0.00  0.00    +0.144 HD
ENDBRANCH  19  21
ENDBRANCH  17  19
ENDBRANCH   7  17
BRANCH   2  24
ATOM     24  C   UNL     1      -3.028   0.911   1.154  0.00  0.00    +0.342 C 
ATOM     25  O   UNL     1      -2.446   1.731   1.838  0.00  0.00    -0.245 OA
BRANCH  24  26
ATOM     26  O   UNL     1      -2.410   0.359   0.090  0.00  0.00    -0.461 OA
BRANCH  26  27
ATOM     27  C   UNL     1      -1.051   0.792  -0.180  0.00  0.00    +0.229 C 
ATOM     28  C   UNL     1      -0.519   0.064  -1.416  0.00  0.00    +0.048 C 
ENDBRANCH  26  27
ENDBRANCH  24  26
ENDBRANCH   2  24
TORSDOF 8
