REMARK  Name = ZINC07001192
REMARK  4 active torsions:
REMARK  status: ('A' for Active; 'I' for Inactive)
REMARK    1  A    between atoms: C_1  and  C_2
REMARK    2  A    between atoms: C_5  and  N_9
REMARK    3  A    between atoms: N_9  and  C_10
REMARK    4  A    between atoms: N_15  and  C_18
REMARK                            x       y       z     vdW  Elec       q    Type
REMARK                         _______ _______ _______ _____ _____    ______ ____
ROOT
ATOM      1  C   UNL     1       0.076  -4.910   1.241  0.00  0.00    +0.166 C 
ATOM      2  C   UNL     1      -0.466  -6.339   1.039  0.00  0.00    +0.128 C 
ATOM      3  C   UNL     1       0.706  -7.220   1.414  0.00  0.00    +0.229 C 
ATOM      4  O   UNL     1       0.708  -8.432   1.396  0.00  0.00    -0.275 OA
ATOM      5  N   UNL     1       1.740  -6.448   1.769  0.00  0.00    -0.207 N 
ATOM      6  C   UNL     1       1.497  -5.129   1.711  0.00  0.00    +0.247 C 
ATOM      7  O   UNL     1       2.288  -4.253   1.988  0.00  0.00    -0.273 OA
ENDROOT
BRANCH   5   8
ATOM      8  C   UNL     1       2.977  -6.974   2.171  0.00  0.00    +0.062 A 
ATOM      9  C   UNL     1       3.970  -7.211   1.232  0.00  0.00    +0.025 A 
ATOM     10  C   UNL     1       5.187  -7.729   1.631  0.00  0.00    +0.002 A 
ATOM     11  C   UNL     1       5.416  -8.012   2.965  0.00  0.00    +0.002 A 
ATOM     12  C   UNL     1       4.429  -7.777   3.904  0.00  0.00    +0.022 A 
ATOM     13  C   UNL     1       3.211  -7.253   3.512  0.00  0.00    +0.063 A 
ATOM     14 CL   UNL     1       1.975  -6.951   4.692  0.00  0.00    -0.082 Cl
ENDBRANCH   5   8
BRANCH   1  15
ATOM     15  N   UNL     1       0.059  -4.169  -0.023  0.00  0.00    -0.332 N 
ATOM     16  H   UNL     1       0.062  -4.648  -0.867  0.00  0.00    +0.147 HD
BRANCH  15  21
ATOM     17  C   UNL     1      -0.018   1.503   0.010  0.00  0.00    +0.047 C 
ATOM     18  C   UNL     1       0.002  -0.004   0.002  0.00  0.00    -0.015 A 
ATOM     19  C   UNL     1       0.006  -0.688  -1.200  0.00  0.00    +0.008 A 
ATOM     20  C   UNL     1       0.025  -2.068  -1.211  0.00  0.00    +0.023 A 
ATOM     21  C   UNL     1       0.041  -2.772  -0.014  0.00  0.00    +0.030 A 
ATOM     22  C   UNL     1       0.037  -2.085   1.193  0.00  0.00    +0.061 A 
ATOM     23  C   UNL     1       0.023  -0.702   1.198  0.00  0.00    +0.128 A 
ATOM     24  F   UNL     1       0.024  -0.031   2.371  0.00  0.00    -0.205 F 
ENDBRANCH  15  21
ENDBRANCH   1  15
TORSDOF 3
