REMARK  Name = ZINC20562852
REMARK  7 active torsions:
REMARK  status: ('A' for Active; 'I' for Inactive)
REMARK    1  A    between atoms: C_1  and  C_2
REMARK    2  A    between atoms: C_2  and  C_3
REMARK    3  A    between atoms: C_2  and  C_4
REMARK    4  A    between atoms: N_8  and  C_9
REMARK    5  A    between atoms: C_9  and  C_10
REMARK    6  A    between atoms: N_12  and  C_13
REMARK    7  A    between atoms: C_16  and  N_20
REMARK                            x       y       z     vdW  Elec       q    Type
REMARK                         _______ _______ _______ _____ _____    ______ ____
ROOT
ATOM      1  C   UNL     1       0.744   1.115   1.114  0.00  0.00    +0.237 C 
ATOM      2  O   UNL     1       0.334   1.777   2.043  0.00  0.00    -0.274 OA
ATOM      3  N   UNL     1      -0.011   0.966   0.007  0.00  0.00    -0.282 N 
ATOM      4  H   UNL     1       0.391   0.431  -0.865  0.00  0.00    +0.155 HD
ENDROOT
BRANCH   3   5
ATOM      5  C   UNL     1      -1.310   1.493  -0.031  0.00  0.00    +0.071 A 
ATOM      6  C   UNL     1      -2.385   0.726   0.399  0.00  0.00    +0.065 A 
ATOM      7  C   UNL     1      -3.664   1.248   0.366  0.00  0.00    +0.044 A 
ATOM      8  C   UNL     1      -3.876   2.536  -0.108  0.00  0.00    +0.027 A 
ATOM      9  C   UNL     1      -2.803   3.301  -0.543  0.00  0.00    +0.044 A 
ATOM     10  C   UNL     1      -1.523   2.782  -0.505  0.00  0.00    +0.065 A 
ATOM     11 CL   UNL     1      -0.181   3.739  -1.050  0.00  0.00    -0.082 Cl
ATOM     12 CL   UNL     1      -2.120  -0.887   0.985  0.00  0.00    -0.082 Cl
BRANCH   8  13
ATOM     13  N   UNL     1      -5.172   3.062  -0.146  0.00  0.00    -0.358 N 
ATOM     14  H   UNL     1      -5.340   4.082  -0.522  0.00  0.00    +0.142 HD
ATOM     15  H   UNL     1      -6.022   2.455   0.199  0.00  0.00    +0.142 HD
ENDBRANCH   8  13
ENDBRANCH   3   5
BRANCH   1  16
ATOM     16  C   UNL     1       2.098   0.457   1.196  0.00  0.00    +0.218 C 
BRANCH  16  21
ATOM     17  C   UNL     1       2.519   0.105   3.649  0.00  0.00    +0.090 A 
ATOM     18  N   UNL     1       3.236   0.673   4.580  0.00  0.00    -0.349 N 
ATOM     19  C   UNL     1       3.906   1.708   4.053  0.00  0.00    +0.101 A 
ATOM     20  C   UNL     1       3.598   1.781   2.744  0.00  0.00    +0.105 A 
ATOM     21  N   UNL     1       2.714   0.768   2.489  0.00  0.00    -0.327 N 
ATOM     22  H   UNL     1       3.216   0.278   5.607  0.00  0.00    +0.166 HD
BRANCH  17  24
ATOM     23  C   UNL     1       2.453  -2.280   4.326  0.00  0.00    +0.015 C 
ATOM     24  C   UNL     1       1.623  -1.091   3.837  0.00  0.00    +0.047 C 
ATOM     25  C   UNL     1       0.545  -0.763   4.872  0.00  0.00    +0.015 C 
ENDBRANCH  17  24
ENDBRANCH  16  21
ENDBRANCH   1  16
TORSDOF 5
