REMARK  Name = ZINC17472502
REMARK  9 active torsions:
REMARK  status: ('A' for Active; 'I' for Inactive)
REMARK    1  A    between atoms: C_1  and  C_2
REMARK    2  A    between atoms: C_2  and  C_16
REMARK    3  A    between atoms: N_3  and  N_4
REMARK    4  A    between atoms: C_5  and  C_7
REMARK    5  A    between atoms: N_9  and  C_10
REMARK    6  A    between atoms: C_10  and  C_11
REMARK    7  A    between atoms: C_18  and  O_23
REMARK    8  A    between atoms: C_21  and  O_22
REMARK    9  A    between atoms: O_23  and  C_24
REMARK                            x       y       z     vdW  Elec       q    Type
REMARK                         _______ _______ _______ _____ _____    ______ ____
ROOT
ATOM      1  N   UNL     1      -0.011   0.966   0.007  0.00  0.00    -0.199 N 
ATOM      2  C   UNL     1       1.147   1.655   0.000  0.00  0.00    +0.318 C 
ATOM      3  O   UNL     1       1.130   2.870   0.007  0.00  0.00    -0.263 OA
ATOM      4  H   UNL     1       0.002  -0.004   0.002  0.00  0.00    +0.178 HD
ENDROOT
BRANCH   2   5
ATOM      5  C   UNL     1       2.449   0.927  -0.016  0.00  0.00    +0.301 C 
ATOM      6  O   UNL     1       2.465  -0.286  -0.023  0.00  0.00    -0.265 OA
ATOM      7  N   UNL     1       3.607   1.617  -0.024  0.00  0.00    -0.300 N 
ATOM      8  H   UNL     1       3.593   2.587  -0.018  0.00  0.00    +0.150 HD
BRANCH   7   9
ATOM      9  C   UNL     1       4.885   0.902  -0.040  0.00  0.00    +0.179 C 
BRANCH   9  10
ATOM     10  C   UNL     1       6.017   1.897  -0.045  0.00  0.00    +0.122 A 
ATOM     11  C   UNL     1       6.618   2.410   1.043  0.00  0.00    +0.046 A 
ATOM     12  C   UNL     1       7.618   3.295   0.579  0.00  0.00    +0.041 A 
ATOM     13  C   UNL     1       7.568   3.270  -0.765  0.00  0.00    +0.195 A 
ATOM     14  O   UNL     1       6.601   2.417  -1.137  0.00  0.00    -0.466 OA
ENDBRANCH   9  10
ENDBRANCH   7   9
ENDBRANCH   2   5
BRANCH   1  17
ATOM     15  C   UNL     1      -2.330  -0.522   0.010  0.00  0.00    +0.068 C 
ATOM     16  C   UNL     1      -2.350   0.985   0.018  0.00  0.00    +0.067 C 
ATOM     17  N   UNL     1      -1.234   1.650   0.017  0.00  0.00    -0.184 NA
BRANCH  16  18
ATOM     18  C   UNL     1      -3.636   1.704   0.029  0.00  0.00    +0.042 A 
ATOM     19  C   UNL     1      -4.838   0.992   0.025  0.00  0.00    +0.059 A 
ATOM     20  C   UNL     1      -6.041   1.674   0.040  0.00  0.00    +0.121 A 
ATOM     21  C   UNL     1      -6.056   3.063   0.048  0.00  0.00    +0.049 A 
ATOM     22  C   UNL     1      -4.872   3.774   0.046  0.00  0.00    +0.049 A 
ATOM     23  C   UNL     1      -3.659   3.105   0.036  0.00  0.00    +0.126 A 
BRANCH  23  24
ATOM     24  O   UNL     1      -2.494   3.806   0.035  0.00  0.00    -0.506 OA
ATOM     25  H   UNL     1      -2.161   4.013  -0.849  0.00  0.00    +0.292 HD
ENDBRANCH  23  24
BRANCH  20  26
ATOM     26  O   UNL     1      -7.213   0.984   0.042  0.00  0.00    -0.495 OA
ATOM     27  C   UNL     1      -8.418   1.750   0.052  0.00  0.00    +0.277 C 
ENDBRANCH  20  26
ENDBRANCH  16  18
ENDBRANCH   1  17
TORSDOF 7
