REMARK  Name = ZINC67654431
REMARK  7 active torsions:
REMARK  status: ('A' for Active; 'I' for Inactive)
REMARK    1  A    between atoms: C_1  and  C_2
REMARK    2  A    between atoms: C_7  and  C_8
REMARK    3  A    between atoms: C_10  and  C_12
REMARK    4  A    between atoms: C_12  and  C_13
REMARK    5  A    between atoms: C_13  and  N_14
REMARK    6  A    between atoms: C_17  and  C_22
REMARK    7  A    between atoms: C_19  and  C_21
REMARK                            x       y       z     vdW  Elec       q    Type
REMARK                         _______ _______ _______ _____ _____    ______ ____
ROOT
ATOM      1  N   UNL     1      -1.061  -7.742   2.446  0.00  0.00    -0.329 N 
ATOM      2  C   UNL     1      -2.032  -8.690   2.165  0.00  0.00    +0.122 A 
ATOM      3  C   UNL     1      -3.034  -8.423   1.229  0.00  0.00    +0.067 A 
ATOM      4  C   UNL     1      -3.979  -9.400   0.985  0.00  0.00    +0.048 A 
ATOM      5  N   UNL     1      -3.906 -10.549   1.642  0.00  0.00    -0.237 NA
ATOM      6  C   UNL     1      -2.949 -10.770   2.519  0.00  0.00    +0.128 A 
ATOM      7  N   UNL     1      -2.023  -9.869   2.779  0.00  0.00    -0.218 NA
ATOM      8  C   UNL     1      -2.907 -12.092   3.241  0.00  0.00    +0.088 C 
ATOM      9  H   UNL     1      -0.366  -7.937   3.094  0.00  0.00    +0.147 HD
ENDROOT
BRANCH   4  10
ATOM     10  C   UNL     1      -5.080  -9.162  -0.016  0.00  0.00    +0.021 C 
ATOM     11  C   UNL     1      -4.546  -8.312  -1.172  0.00  0.00    +0.006 C 
ATOM     12  C   UNL     1      -5.691  -8.010  -2.143  0.00  0.00    -0.018 C 
ATOM     13  C   UNL     1      -6.824  -7.313  -1.386  0.00  0.00    -0.083 C 
ATOM     14  N   UNL     1      -7.309  -8.186  -0.311  0.00  0.00    +0.379 N 
ATOM     15  C   UNL     1      -6.236  -8.422   0.663  0.00  0.00    -0.073 C 
ATOM     16  H   UNL     1      -8.090  -7.746   0.152  0.00  0.00    -0.086 HD
ATOM     17  H   UNL     1      -7.606  -9.067  -0.702  0.00  0.00    -0.086 HD
ENDBRANCH   4  10
BRANCH   1  18
ATOM     18  C   UNL     1      -1.082  -6.447   1.762  0.00  0.00    +0.110 C 
BRANCH  18  19
ATOM     19  C   UNL     1       0.090  -5.594   2.249  0.00  0.00    +0.093 C 
BRANCH  19  29
ATOM     20  C   UNL     1      -0.018   1.503   0.010  0.00  0.00    +0.044 C 
ATOM     21  C   UNL     1       0.002  -0.004   0.002  0.00  0.00    -0.045 A 
ATOM     22  C   UNL     1       0.006  -0.687  -1.206  0.00  0.00    +0.006 A 
ATOM     23  C   UNL     1       0.024  -2.052  -1.235  0.00  0.00    +0.030 A 
ATOM     24  C   UNL     1       0.040  -2.774  -0.039  0.00  0.00    +0.089 A 
ATOM     25  C   UNL     1       0.037  -2.083   1.185  0.00  0.00    +0.069 A 
ATOM     26  C   UNL     1       0.023  -0.695   1.195  0.00  0.00    -0.022 A 
ATOM     27  C   UNL     1       0.025   0.053   2.503  0.00  0.00    +0.046 C 
ATOM     28  N   UNL     1       0.055  -3.051   2.169  0.00  0.00    -0.342 N 
ATOM     29  C   UNL     1       0.068  -4.261   1.546  0.00  0.00    +0.110 A 
ATOM     30  N   UNL     1       0.059  -4.099   0.255  0.00  0.00    -0.232 NA
ATOM     31  H   UNL     1       0.058  -2.898   3.127  0.00  0.00    +0.167 HD
ENDBRANCH  19  29
ENDBRANCH  18  19
ENDBRANCH   1  18
TORSDOF 4
