REMARK  Name = ZINC18198759
REMARK  5 active torsions:
REMARK  status: ('A' for Active; 'I' for Inactive)
REMARK    1  A    between atoms: C_1  and  C_2
REMARK    2  A    between atoms: N_5  and  C_7
REMARK    3  A    between atoms: C_12  and  C_13
REMARK    4  A    between atoms: C_18  and  C_20
REMARK    5  A    between atoms: C_30  and  C_33
REMARK                            x       y       z     vdW  Elec       q    Type
REMARK                         _______ _______ _______ _____ _____    ______ ____
ROOT
ATOM      1  C   UNL     1      -2.602   5.716  -0.167  0.00  0.00    +0.068 C 
ATOM      2  C   UNL     1      -2.196   4.266  -0.130  0.00  0.00    +0.066 A 
ATOM      3  C   UNL     1      -3.060   3.179  -0.123  0.00  0.00    +0.027 A 
ATOM      4  C   UNL     1      -2.302   2.039  -0.084  0.00  0.00    +0.131 A 
ATOM      5  N   UNL     1      -1.004   2.410  -0.071  0.00  0.00    -0.217 N 
ATOM      6  N   UNL     1      -0.964   3.814  -0.093  0.00  0.00    -0.170 NA
ATOM      7  N   UNL     1      -2.888   0.780  -0.062  0.00  0.00    -0.302 N 
ATOM      8  C   UNL     1      -4.226   0.686   0.227  0.00  0.00    +0.017 C 
ATOM      9  C   UNL     1      -5.047   1.758   0.210  0.00  0.00    +0.024 C 
ATOM     10  C   UNL     1      -4.562   3.146  -0.152  0.00  0.00    +0.089 C 
ATOM     11  C   UNL     1      -6.408   1.630   0.539  0.00  0.00    +0.162 C 
ATOM     12  O   UNL     1      -7.121   2.614   0.508  0.00  0.00    -0.292 OA
ATOM     13  C   UNL     1      -7.003   0.306   0.928  0.00  0.00    +0.088 C 
ATOM     14  C   UNL     1      -5.911  -0.562   1.563  0.00  0.00    +0.039 C 
ATOM     15  C   UNL     1      -4.757  -0.688   0.567  0.00  0.00    +0.060 C 
ATOM     16  H   UNL     1      -2.363  -0.015  -0.246  0.00  0.00    +0.153 HD
ENDROOT
BRANCH  10  17
ATOM     17  C   UNL     1      -5.046   3.502  -1.534  0.00  0.00    -0.035 A 
ATOM     18  C   UNL     1      -4.671   2.729  -2.617  0.00  0.00    +0.006 A 
ATOM     19  C   UNL     1      -5.119   3.052  -3.884  0.00  0.00    +0.020 A 
ATOM     20  C   UNL     1      -5.933   4.155  -4.070  0.00  0.00    +0.041 A 
ATOM     21  C   UNL     1      -6.302   4.932  -2.986  0.00  0.00    +0.020 A 
ATOM     22  C   UNL     1      -5.859   4.605  -1.719  0.00  0.00    +0.006 A 
ATOM     23 CL   UNL     1      -6.489   4.566  -5.662  0.00  0.00    -0.084 Cl
ENDBRANCH  10  17
BRANCH   5  24
ATOM     24  C   UNL     1       0.098   1.554  -0.036  0.00  0.00    +0.082 A 
ATOM     25  C   UNL     1       0.522   1.013   1.170  0.00  0.00    +0.029 A 
ATOM     26  C   UNL     1       1.609   0.162   1.202  0.00  0.00    +0.002 A 
ATOM     27  C   UNL     1       2.283  -0.159   0.035  0.00  0.00    +0.001 A 
ATOM     28  C   UNL     1       1.876   0.369  -1.171  0.00  0.00    +0.017 A 
ATOM     29  C   UNL     1       0.778   1.232  -1.219  0.00  0.00    +0.089 A 
BRANCH  29  30
ATOM     30  C   UNL     1       0.337   1.799  -2.506  0.00  0.00    +0.389 C 
ATOM     31  O   UNL     1      -0.674   2.471  -2.560  0.00  0.00    -0.241 OA
ATOM     32  O   UNL     1       1.055   1.573  -3.624  0.00  0.00    -0.241 OA
ENDBRANCH  29  30
ENDBRANCH   5  24
BRANCH  14  33
ATOM     33  C   UNL     1      -6.465  -1.928   1.875  0.00  0.00    -0.006 A 
ATOM     34  C   UNL     1      -6.557  -2.559   3.071  0.00  0.00    +0.011 A 
ATOM     35  C   UNL     1      -7.112  -3.824   3.121  0.00  0.00    +0.008 A 
ATOM     36  C   UNL     1      -7.538  -4.401   1.970  0.00  0.00    +0.045 A 
ATOM     37  S   UNL     1      -7.165  -3.138   0.764  0.00  0.00    -0.101 S 
ENDBRANCH  14  33
TORSDOF 4
