REMARK  Name = ZINC67066889
REMARK  12 active torsions:
REMARK  status: ('A' for Active; 'I' for Inactive)
REMARK    1  A    between atoms: C_1  and  C_2
REMARK    2  A    between atoms: C_2  and  N_3
REMARK    3  A    between atoms: N_3  and  C_4
REMARK    4  A    between atoms: N_3  and  C_6
REMARK    5  A    between atoms: C_4  and  C_5
REMARK    6  A    between atoms: C_6  and  C_8
REMARK    7  A    between atoms: C_6  and  C_15
REMARK    8  A    between atoms: C_8  and  C_9
REMARK    9  A    between atoms: C_15  and  N_16
REMARK   10  A    between atoms: N_19  and  N_20
REMARK   11  A    between atoms: C_21  and  C_23
REMARK   12  A    between atoms: C_24  and  C_28
REMARK                            x       y       z     vdW  Elec       q    Type
REMARK                         _______ _______ _______ _____ _____    ______ ____
ROOT
ATOM      1  N   UNL     1      -1.251   2.192   1.438  0.00  0.00    -0.300 N 
ATOM      2  C   UNL     1      -1.320   3.529   1.596  0.00  0.00    +0.316 C 
ATOM      3  O   UNL     1      -2.395   4.063   1.791  0.00  0.00    -0.251 OA
ATOM      4  N   UNL     1      -0.198   4.273   1.537  0.00  0.00    -0.218 N 
ATOM      5  H   UNL     1      -0.388   1.757   1.356  0.00  0.00    +0.150 HD
ATOM      6  H   UNL     1      -0.237   5.224   1.723  0.00  0.00    +0.174 HD
ENDROOT
BRANCH   4   7
ATOM      7  N   UNL     1       1.024   3.673   1.208  0.00  0.00    -0.229 N 
ATOM      8  C   UNL     1       2.127   4.432   1.050  0.00  0.00    +0.267 C 
ATOM      9  O   UNL     1       2.061   5.638   1.194  0.00  0.00    -0.268 OA
ATOM     10  H   UNL     1       1.077   2.711   1.094  0.00  0.00    +0.173 HD
BRANCH   8  11
ATOM     11  C   UNL     1       3.406   3.804   0.706  0.00  0.00    +0.078 A 
ATOM     12  C   UNL     1       4.644   4.395   0.507  0.00  0.00    -0.031 A 
ATOM     13  C   UNL     1       5.671   3.538   0.192  0.00  0.00    +0.011 A 
ATOM     14  C   UNL     1       5.416   2.209   0.098  0.00  0.00    +0.046 A 
ATOM     15  S   UNL     1       3.776   2.080   0.442  0.00  0.00    -0.092 S 
ATOM     16  C   UNL     1       4.851   5.883   0.628  0.00  0.00    +0.045 C 
ENDBRANCH   8  11
ENDBRANCH   4   7
BRANCH   1  17
ATOM     17  C   UNL     1      -2.480   1.395   1.391  0.00  0.00    +0.091 C 
BRANCH  17  18
ATOM     18  C   UNL     1      -2.122  -0.090   1.318  0.00  0.00    -0.047 C 
BRANCH  18  19
ATOM     19  N   UNL     1      -1.428  -0.365   0.052  0.00  0.00    +0.382 N 
ATOM     20  H   UNL     1      -1.716  -1.265  -0.301  0.00  0.00    -0.081 HD
BRANCH  19  22
ATOM     21  C   UNL     1      -3.221   0.503  -1.373  0.00  0.00    -0.017 C 
ATOM     22  C   UNL     1      -1.767   0.676  -0.928  0.00  0.00    -0.082 C 
ENDBRANCH  19  22
BRANCH  19  23
ATOM     23  C   UNL     1       0.023  -0.369   0.280  0.00  0.00    -0.082 C 
ATOM     24  C   UNL     1       0.395  -1.552   1.176  0.00  0.00    -0.017 C 
ENDBRANCH  19  23
ENDBRANCH  18  19
BRANCH  18  25
ATOM     25  C   UNL     1      -3.401  -0.927   1.390  0.00  0.00    +0.021 C 
BRANCH  25  26
ATOM     26  C   UNL     1      -3.042  -2.390   1.443  0.00  0.00    -0.049 A 
ATOM     27  C   UNL     1      -2.849  -3.097   0.271  0.00  0.00    +0.003 A 
ATOM     28  C   UNL     1      -2.520  -4.438   0.319  0.00  0.00    +0.000 A 
ATOM     29  C   UNL     1      -2.382  -5.073   1.539  0.00  0.00    +0.000 A 
ATOM     30  C   UNL     1      -2.574  -4.366   2.712  0.00  0.00    +0.000 A 
ATOM     31  C   UNL     1      -2.899  -3.023   2.663  0.00  0.00    +0.003 A 
ENDBRANCH  25  26
ENDBRANCH  18  25
ENDBRANCH  17  18
ENDBRANCH   1  17
TORSDOF 9
