REMARK  Name = ZINC07126287
REMARK  5 active torsions:
REMARK  status: ('A' for Active; 'I' for Inactive)
REMARK    1  A    between atoms: C_4  and  C_7
REMARK    2  A    between atoms: C_8  and  C_16
REMARK    3  A    between atoms: N_10  and  C_12
REMARK    4  A    between atoms: C_12  and  C_13
REMARK    5  A    between atoms: C_13  and  C_14
REMARK                            x       y       z     vdW  Elec       q    Type
REMARK                         _______ _______ _______ _____ _____    ______ ____
ROOT
ATOM      1  C   UNL     1       3.072  -2.605   1.603  0.00  0.00    +0.212 C 
ATOM      2  N   UNL     1       2.886  -1.846   2.852  0.00  0.00    -0.293 N 
ATOM      3  C   UNL     1       3.820  -1.935   3.850  0.00  0.00    +0.183 C 
ATOM      4  N   UNL     1       4.534  -3.033   4.027  0.00  0.00    -0.183 NA
ATOM      5  C   UNL     1       4.369  -4.057   3.158  0.00  0.00    +0.236 A 
ATOM      6  N   UNL     1       3.662  -3.897   1.978  0.00  0.00    -0.285 N 
ATOM      7  C   UNL     1       3.660  -5.098   1.335  0.00  0.00    +0.072 A 
ATOM      8  C   UNL     1       3.101  -5.532   0.139  0.00  0.00    +0.028 A 
ATOM      9  C   UNL     1       3.307  -6.856  -0.212  0.00  0.00    +0.002 A 
ATOM     10  C   UNL     1       4.038  -7.722   0.584  0.00  0.00    +0.002 A 
ATOM     11  C   UNL     1       4.605  -7.316   1.778  0.00  0.00    +0.030 A 
ATOM     12  C   UNL     1       4.409  -5.982   2.155  0.00  0.00    +0.091 A 
ATOM     13  N   UNL     1       4.817  -5.288   3.235  0.00  0.00    -0.210 NA
ATOM     14  N   UNL     1       4.018  -0.865   4.680  0.00  0.00    -0.331 N 
ATOM     15  H   UNL     1       2.104  -1.284   2.967  0.00  0.00    +0.151 HD
ATOM     16  H   UNL     1       3.499  -0.055   4.559  0.00  0.00    +0.145 HD
ATOM     17  H   UNL     1       4.676  -0.918   5.390  0.00  0.00    +0.145 HD
ENDROOT
BRANCH   1  19
ATOM     18  C   UNL     1       3.672  -0.743  -0.108  0.00  0.00    +0.099 A 
ATOM     19  C   UNL     1       4.004  -1.861   0.681  0.00  0.00    +0.039 A 
ATOM     20  C   UNL     1       5.306  -2.149   0.465  0.00  0.00    +0.116 A 
ATOM     21  N   UNL     1       5.788  -1.254  -0.424  0.00  0.00    -0.270 N 
ATOM     22  N   UNL     1       4.748  -0.385  -0.776  0.00  0.00    -0.171 NA
BRANCH  18  26
ATOM     23  C   UNL     1      -0.139   1.132  -0.313  0.00  0.00    +0.000 A 
ATOM     24  C   UNL     1       1.006   1.905  -0.246  0.00  0.00    +0.001 A 
ATOM     25  C   UNL     1       2.246   1.301  -0.180  0.00  0.00    +0.010 A 
ATOM     26  C   UNL     1       2.342  -0.089  -0.180  0.00  0.00    +0.002 A 
ATOM     27  C   UNL     1       1.185  -0.862  -0.247  0.00  0.00    +0.010 A 
ATOM     28  C   UNL     1      -0.050  -0.248  -0.314  0.00  0.00    +0.001 A 
ENDBRANCH  18  26
BRANCH  21  29
ATOM     29  C   UNL     1       7.160  -1.205  -0.936  0.00  0.00    +0.158 C 
BRANCH  29  30
ATOM     30  C   UNL     1       7.136  -1.248  -2.465  0.00  0.00    +0.141 C 
BRANCH  30  31
ATOM     31  C   UNL     1       8.514  -1.199  -2.979  0.00  0.00    +0.064 C 
ATOM     32  N   UNL     1       9.578  -1.161  -3.376  0.00  0.00    -0.197 NA
ENDBRANCH  30  31
ENDBRANCH  29  30
ENDBRANCH  21  29
ENDBRANCH   1  19
TORSDOF 5
