REMARK  Name = ZINC01921783
REMARK  4 active torsions:
REMARK  status: ('A' for Active; 'I' for Inactive)
REMARK    1  A    between atoms: C_1  and  S_2
REMARK    2  A    between atoms: S_2  and  C_3
REMARK    3  A    between atoms: N_7  and  C_8
REMARK    4  A    between atoms: C_8  and  C_9
REMARK                            x       y       z     vdW  Elec       q    Type
REMARK                         _______ _______ _______ _____ _____    ______ ____
ROOT
ATOM      1  C   UNL     1      -1.213   2.208   0.020  0.00  0.00    +0.166 C 
ENDROOT
BRANCH   1   2
ATOM      2  C   UNL     1      -1.617   2.490   1.444  0.00  0.00    +0.016 A 
ATOM      3  C   UNL     1      -2.573   1.706   2.059  0.00  0.00    +0.029 A 
ATOM      4  C   UNL     1      -2.940   1.960   3.369  0.00  0.00    +0.042 A 
ATOM      5  C   UNL     1      -2.358   3.009   4.060  0.00  0.00    +0.029 A 
ATOM      6  C   UNL     1      -1.406   3.800   3.446  0.00  0.00    +0.022 A 
ATOM      7  C   UNL     1      -1.031   3.540   2.136  0.00  0.00    +0.134 A 
ATOM      8  O   UNL     1      -0.088   4.305   1.523  0.00  0.00    -0.465 OA
ATOM      9  C   UNL     1       0.214   5.566   2.127  0.00  0.00    +0.394 C 
ATOM     10  O   UNL     1       0.406   5.367   3.533  0.00  0.00    -0.339 OA
ATOM     11  C   UNL     1      -0.783   4.943   4.206  0.00  0.00    +0.202 C 
ATOM     12 CL   UNL     1      -4.136   0.969   4.143  0.00  0.00    -0.084 Cl
ENDBRANCH   1   2
BRANCH   1  17
ATOM     13  C   UNL     1       0.002  -0.004   0.002  0.00  0.00    +0.193 A 
ATOM     14  N   UNL     1       1.254  -0.392  -0.012  0.00  0.00    -0.121 NA
ATOM     15  N   UNL     1       2.062   0.753  -0.014  0.00  0.00    -0.113 NA
ATOM     16  C   UNL     1       1.277   1.802  -0.001  0.00  0.00    +0.215 A 
ATOM     17  N   UNL     1      -0.017   1.363   0.009  0.00  0.00    -0.286 N 
ATOM     18  N   UNL     1       1.688   3.129   0.002  0.00  0.00    -0.328 N 
ATOM     19  H   UNL     1       1.029   3.841   0.012  0.00  0.00    +0.145 HD
ATOM     20  H   UNL     1       2.634   3.344  -0.005  0.00  0.00    +0.145 HD
BRANCH  13  22
ATOM     21  C   UNL     1      -0.707  -2.732  -0.006  0.00  0.00    +0.093 C 
ATOM     22  S   UNL     1      -1.409  -1.059   0.010  0.00  0.00    -0.089 S 
ENDBRANCH  13  22
ENDBRANCH   1  17
TORSDOF 3
