REMARK  Name = ZINC52170608
REMARK  5 active torsions:
REMARK  status: ('A' for Active; 'I' for Inactive)
REMARK    1  A    between atoms: C_6  and  N_19
REMARK    2  A    between atoms: C_8  and  C_10
REMARK    3  A    between atoms: C_10  and  O_11
REMARK    4  A    between atoms: O_11  and  C_12
REMARK    5  A    between atoms: C_12  and  C_13
REMARK                            x       y       z     vdW  Elec       q    Type
REMARK                         _______ _______ _______ _____ _____    ______ ____
ROOT
ATOM      1  C   UNL     1      -0.018   1.448   0.010  0.00  0.00    +0.021 A 
ATOM      2  C   UNL     1       1.144   2.119   0.003  0.00  0.00    +0.048 A 
ATOM      3  S   UNL     1       2.371   0.826  -0.016  0.00  0.00    -0.077 S 
ATOM      4  C   UNL     1       1.291  -0.580  -0.013  0.00  0.00    +0.114 A 
ATOM      5  C   UNL     1       0.002  -0.004   0.002  0.00  0.00    +0.047 A 
ATOM      6  C   UNL     1      -1.078  -0.928   0.007  0.00  0.00    +0.128 A 
ATOM      7  N   UNL     1      -0.818  -2.226  -0.003  0.00  0.00    -0.215 NA
ATOM      8  C   UNL     1       0.417  -2.695  -0.017  0.00  0.00    +0.158 A 
ATOM      9  N   UNL     1       1.460  -1.888  -0.022  0.00  0.00    -0.222 NA
ENDROOT
BRANCH   6  10
ATOM     10  N   UNL     1      -2.386  -0.477   0.022  0.00  0.00    -0.343 N 
ATOM     11  H   UNL     1      -2.570   0.475   0.030  0.00  0.00    +0.144 HD
ATOM     12  H   UNL     1      -3.118  -1.113   0.025  0.00  0.00    +0.144 HD
ENDBRANCH   6  10
BRANCH   8  13
ATOM     13  C   UNL     1       0.639  -4.186  -0.028  0.00  0.00    +0.235 C 
BRANCH  13  14
ATOM     14  O   UNL     1       0.696  -4.649  -1.378  0.00  0.00    -0.372 OA
BRANCH  14  15
ATOM     15  C   UNL     1       0.905  -6.057  -1.501  0.00  0.00    +0.164 C 
BRANCH  15  16
ATOM     16  C   UNL     1       0.949  -6.439  -2.982  0.00  0.00    +0.019 C 
ATOM     17  C   UNL     1      -0.422  -6.186  -3.618  0.00  0.00    +0.034 C 
ATOM     18  C   UNL     1      -0.391  -6.644  -5.078  0.00  0.00    +0.160 C 
ATOM     19  O   UNL     1      -0.032  -8.026  -5.135  0.00  0.00    -0.380 OA
ATOM     20  C   UNL     1       1.261  -8.316  -4.598  0.00  0.00    +0.160 C 
ATOM     21  C   UNL     1       1.296  -7.925  -3.118  0.00  0.00    +0.034 C 
ENDBRANCH  15  16
ENDBRANCH  14  15
ENDBRANCH  13  14
ENDBRANCH   8  13
TORSDOF 5
