REMARK  Name = ZINC63129339
REMARK  14 active torsions:
REMARK  status: ('A' for Active; 'I' for Inactive)
REMARK    1  A    between atoms: C_1  and  C_2
REMARK    2  A    between atoms: C_4  and  C_23
REMARK    3  A    between atoms: C_5  and  C_22
REMARK    4  A    between atoms: C_7  and  C_8
REMARK    5  A    between atoms: N_10  and  N_11
REMARK    6  A    between atoms: C_12  and  C_13
REMARK    7  A    between atoms: C_17  and  O_20
REMARK    8  A    between atoms: C_18  and  O_19
REMARK    9  A    between atoms: O_20  and  C_21
REMARK   10  A    between atoms: N_25  and  N_26
REMARK   11  A    between atoms: C_27  and  C_28
REMARK   12  A    between atoms: C_32  and  O_35
REMARK   13  A    between atoms: C_33  and  O_34
REMARK   14  A    between atoms: O_35  and  C_36
REMARK                            x       y       z     vdW  Elec       q    Type
REMARK                         _______ _______ _______ _____ _____    ______ ____
ROOT
ATOM      1  C   UNL     1      -0.019   1.526   0.010  0.00  0.00    +0.019 C 
ATOM      2  C   UNL     1       0.002  -0.004   0.002  0.00  0.00    +0.077 C 
ATOM      3  C   UNL     1       0.761  -0.525  -1.205  0.00  0.00    +0.046 C 
ATOM      4  C   UNL     1       1.804  -1.218  -0.688  0.00  0.00    +0.048 C 
ATOM      5  N   UNL     1       1.806  -1.205   0.646  0.00  0.00    -0.251 NA
ATOM      6  C   UNL     1       0.812  -0.537   1.168  0.00  0.00    +0.112 C 
ATOM      7  C   UNL     1       2.842  -1.923  -1.523  0.00  0.00    +0.066 C 
ENDROOT
BRANCH   6   8
ATOM      8  C   UNL     1       0.532  -0.338   2.603  0.00  0.00    +0.278 C 
ATOM      9  O   UNL     1      -0.435   0.313   2.949  0.00  0.00    -0.267 OA
ATOM     10  N   UNL     1       1.349  -0.877   3.530  0.00  0.00    -0.202 N 
ATOM     11  H   UNL     1       2.120  -1.396   3.253  0.00  0.00    +0.178 HD
BRANCH  10  12
ATOM     12  N   UNL     1       1.083  -0.687   4.892  0.00  0.00    -0.187 NA
ATOM     13  C   UNL     1       1.870  -1.207   5.786  0.00  0.00    +0.142 C 
BRANCH  13  14
ATOM     14  C   UNL     1       1.591  -1.008   7.218  0.00  0.00    +0.040 A 
ATOM     15  C   UNL     1       2.439  -1.561   8.183  0.00  0.00    +0.013 A 
ATOM     16  C   UNL     1       2.174  -1.372   9.522  0.00  0.00    +0.004 A 
ATOM     17  C   UNL     1       1.071  -0.636   9.920  0.00  0.00    +0.049 A 
ATOM     18  C   UNL     1       0.221  -0.082   8.975  0.00  0.00    +0.162 A 
ATOM     19  C   UNL     1       0.478  -0.259   7.621  0.00  0.00    +0.167 A 
BRANCH  19  20
ATOM     20  O   UNL     1      -0.350   0.287   6.692  0.00  0.00    -0.503 OA
ATOM     21  H   UNL     1      -1.081  -0.289   6.429  0.00  0.00    +0.292 HD
ENDBRANCH  19  20
BRANCH  18  22
ATOM     22  O   UNL     1      -0.860   0.640   9.374  0.00  0.00    -0.491 OA
ATOM     23  C   UNL     1      -1.060   0.787  10.781  0.00  0.00    +0.277 C 
ENDBRANCH  18  22
ENDBRANCH  13  14
ENDBRANCH  10  12
ENDBRANCH   6   8
BRANCH   3  24
ATOM     24  C   UNL     1       0.437  -0.323  -2.619  0.00  0.00    +0.262 C 
ATOM     25  O   UNL     1       1.147  -0.807  -3.482  0.00  0.00    -0.269 OA
ATOM     26  N   UNL     1      -0.647   0.399  -2.966  0.00  0.00    -0.203 N 
ATOM     27  H   UNL     1      -1.212   0.785  -2.279  0.00  0.00    +0.178 HD
BRANCH  26  28
ATOM     28  N   UNL     1      -0.957   0.593  -4.318  0.00  0.00    -0.187 NA
ATOM     29  C   UNL     1      -2.002   1.288  -4.652  0.00  0.00    +0.142 C 
BRANCH  29  30
ATOM     30  C   UNL     1      -2.328   1.492  -6.074  0.00  0.00    +0.040 A 
ATOM     31  C   UNL     1      -3.448   2.245  -6.437  0.00  0.00    +0.013 A 
ATOM     32  C   UNL     1      -3.750   2.433  -7.769  0.00  0.00    +0.004 A 
ATOM     33  C   UNL     1      -2.948   1.879  -8.753  0.00  0.00    +0.049 A 
ATOM     34  C   UNL     1      -1.835   1.130  -8.408  0.00  0.00    +0.162 A 
ATOM     35  C   UNL     1      -1.514   0.936  -7.069  0.00  0.00    +0.167 A 
BRANCH  35  36
ATOM     36  O   UNL     1      -0.419   0.207  -6.727  0.00  0.00    -0.503 OA
ATOM     37  H   UNL     1      -0.594  -0.738  -6.620  0.00  0.00    +0.292 HD
ENDBRANCH  35  36
BRANCH  34  38
ATOM     38  O   UNL     1      -1.052   0.588  -9.379  0.00  0.00    -0.491 OA
ATOM     39  C   UNL     1      -1.437   0.832 -10.734  0.00  0.00    +0.277 C 
ENDBRANCH  34  38
ENDBRANCH  29  30
ENDBRANCH  26  28
ENDBRANCH   3  24
TORSDOF 10
