REMARK  Name = ZINC49502614
REMARK  7 active torsions:
REMARK  status: ('A' for Active; 'I' for Inactive)
REMARK    1  A    between atoms: C_1  and  C_2
REMARK    2  A    between atoms: C_2  and  C_4
REMARK    3  A    between atoms: C_2  and  N_11
REMARK    4  A    between atoms: C_4  and  N_5
REMARK    5  A    between atoms: N_11  and  S_12
REMARK    6  A    between atoms: S_12  and  C_15
REMARK    7  A    between atoms: N_21  and  N_22
REMARK                            x       y       z     vdW  Elec       q    Type
REMARK                         _______ _______ _______ _____ _____    ______ ____
ROOT
ATOM      1  S   UNL     1       2.263  -0.979  -1.012  0.00  0.00    +0.060 S 
ATOM      2  O   UNL     1       2.680  -1.301  -2.331  0.00  0.00    -0.153 OA
ATOM      3  O   UNL     1       2.951  -0.034  -0.204  0.00  0.00    -0.153 OA
ENDROOT
BRANCH   1   4
ATOM      4  C   UNL     1       2.239  -2.492  -0.108  0.00  0.00    +0.123 A 
ATOM      5  C   UNL     1       2.354  -2.484   1.276  0.00  0.00    +0.033 A 
ATOM      6  C   UNL     1       2.331  -3.693   1.947  0.00  0.00    +0.046 A 
ATOM      7  C   UNL     1       2.194  -4.870   1.217  0.00  0.00    +0.132 A 
ATOM      8  N   UNL     1       2.087  -4.835  -0.102  0.00  0.00    -0.237 NA
ATOM      9  C   UNL     1       2.100  -3.696  -0.768  0.00  0.00    +0.141 A 
ATOM     10  N   UNL     1       2.169  -6.092   1.878  0.00  0.00    -0.268 N 
ATOM     11  H   UNL     1       2.248  -6.122   2.845  0.00  0.00    +0.167 HD
BRANCH  10  12
ATOM     12  N   UNL     1       2.035  -7.250   1.168  0.00  0.00    -0.255 NA
ATOM     13  H   UNL     1       2.757  -7.331   0.468  0.00  0.00    +0.140 HD
ATOM     14  H   UNL     1       2.034  -8.052   1.780  0.00  0.00    +0.140 HD
ENDBRANCH  10  12
ENDBRANCH   1   4
BRANCH   1  15
ATOM     15  N   UNL     1       0.697  -0.452  -1.126  0.00  0.00    -0.189 NA
ATOM     16  H   UNL     1       0.264  -0.401  -1.993  0.00  0.00    +0.148 HD
BRANCH  15  18
ATOM     17  C   UNL     1       0.112   1.443   0.305  0.00  0.00    +0.024 C 
ATOM     18  C   UNL     1      -0.035  -0.064   0.082  0.00  0.00    +0.057 C 
BRANCH  18  19
ATOM     19  C   UNL     1      -1.516  -0.413  -0.084  0.00  0.00    -0.059 C 
BRANCH  19  20
ATOM     20  N   UNL     1      -1.653  -1.851  -0.352  0.00  0.00    +0.381 N 
ATOM     21  C   UNL     1      -3.053  -2.157  -0.670  0.00  0.00    -0.079 C 
ATOM     22  C   UNL     1      -3.186  -3.638  -1.029  0.00  0.00    -0.019 C 
ATOM     23  C   UNL     1      -2.733  -4.489   0.161  0.00  0.00    -0.004 C 
ATOM     24  C   UNL     1      -1.296  -4.109   0.530  0.00  0.00    -0.019 C 
ATOM     25  C   UNL     1      -1.232  -2.610   0.831  0.00  0.00    -0.079 C 
ATOM     26  H   UNL     1      -1.069  -2.102  -1.137  0.00  0.00    -0.082 HD
ENDBRANCH  19  20
ENDBRANCH  18  19
ENDBRANCH  15  18
ENDBRANCH   1  15
TORSDOF 6
