REMARK  Name = ZINC09092326
REMARK  8 active torsions:
REMARK  status: ('A' for Active; 'I' for Inactive)
REMARK    1  A    between atoms: C_1  and  C_2
REMARK    2  A    between atoms: C_2  and  C_4
REMARK    3  A    between atoms: C_2  and  S_15
REMARK    4  A    between atoms: N_6  and  C_7
REMARK    5  A    between atoms: C_7  and  C_13
REMARK    6  A    between atoms: S_15  and  C_16
REMARK    7  A    between atoms: C_19  and  C_22
REMARK    8  A    between atoms: N_20  and  N_21
REMARK                            x       y       z     vdW  Elec       q    Type
REMARK                         _______ _______ _______ _____ _____    ______ ____
ROOT
ATOM      1  S   UNL     1       4.647   1.207   2.110  0.00  0.00    -0.072 S 
ENDROOT
BRANCH   1   2
ATOM      2  C   UNL     1       6.233   1.864   1.715  0.00  0.00    +0.209 A 
ATOM      3  N   UNL     1       6.488   2.820   0.850  0.00  0.00    -0.121 NA
ATOM      4  N   UNL     1       7.751   3.054   0.809  0.00  0.00    -0.127 NA
ATOM      5  C   UNL     1       8.380   2.262   1.645  0.00  0.00    +0.183 A 
ATOM      6  N   UNL     1       7.427   1.479   2.255  0.00  0.00    -0.224 N 
BRANCH   5   7
ATOM      7  C   UNL     1       9.837   2.223   1.890  0.00  0.00    +0.035 A 
ATOM      8  C   UNL     1      10.512   1.001   1.911  0.00  0.00    +0.013 A 
ATOM      9  C   UNL     1      11.872   0.971   2.140  0.00  0.00    +0.001 A 
ATOM     10  C   UNL     1      12.568   2.149   2.349  0.00  0.00    +0.001 A 
ATOM     11  C   UNL     1      11.906   3.363   2.330  0.00  0.00    +0.016 A 
ATOM     12  C   UNL     1      10.546   3.408   2.096  0.00  0.00    +0.029 A 
ATOM     13 BR   UNL     1       9.644   5.070   2.062  0.00  0.00    -0.050 Br
ENDBRANCH   5   7
BRANCH   6  14
ATOM     14  N   UNL     1       7.632   0.515   3.201  0.00  0.00    -0.295 N 
ATOM     15  H   UNL     1       7.869  -0.367   2.773  0.00  0.00    +0.163 HD
ATOM     16  H   UNL     1       8.342   0.800   3.859  0.00  0.00    +0.163 HD
ENDBRANCH   6  14
ENDBRANCH   1   2
BRANCH   1  18
ATOM     17  C   UNL     1       3.679   3.675   1.451  0.00  0.00    +0.029 C 
ATOM     18  C   UNL     1       3.610   2.210   1.017  0.00  0.00    +0.137 C 
BRANCH  18  19
ATOM     19  C   UNL     1       2.184   1.729   1.097  0.00  0.00    +0.227 C 
ATOM     20  O   UNL     1       1.793   1.153   2.089  0.00  0.00    -0.275 OA
ATOM     21  N   UNL     1       1.343   1.941   0.065  0.00  0.00    -0.296 N 
ATOM     22  H   UNL     1       1.655   2.402  -0.729  0.00  0.00    +0.150 HD
BRANCH  21  23
ATOM     23  C   UNL     1      -0.044   1.474   0.143  0.00  0.00    +0.121 C 
ATOM     24  C   UNL     1      -0.741   2.140   1.331  0.00  0.00    +0.041 C 
ATOM     25  C   UNL     1      -2.188   1.652   1.412  0.00  0.00    +0.003 C 
ATOM     26  C   UNL     1      -2.922   2.017   0.119  0.00  0.00    +0.000 C 
ATOM     27  C   UNL     1      -2.226   1.350  -1.068  0.00  0.00    +0.003 C 
ATOM     28  C   UNL     1      -0.778   1.838  -1.149  0.00  0.00    +0.041 C 
BRANCH  23  29
ATOM     29  C   UNL     1      -0.060   0.013   0.321  0.00  0.00    +0.088 C 
ATOM     30  N   UNL     1      -0.072  -1.115   0.459  0.00  0.00    -0.194 NA
ENDBRANCH  23  29
ENDBRANCH  21  23
ENDBRANCH  18  19
ENDBRANCH   1  18
TORSDOF 7
