REMARK  Name = ZINC08768549
REMARK  12 active torsions:
REMARK  status: ('A' for Active; 'I' for Inactive)
REMARK    1  A    between atoms: C_1  and  C_2
REMARK    2  A    between atoms: C_2  and  C_3
REMARK    3  A    between atoms: C_3  and  S_4
REMARK    4  A    between atoms: S_4  and  C_7
REMARK    5  A    between atoms: C_8  and  N_31
REMARK    6  A    between atoms: C_9  and  C_22
REMARK    7  A    between atoms: C_11  and  N_12
REMARK    8  A    between atoms: N_12  and  C_13
REMARK    9  A    between atoms: C_14  and  C_21
REMARK   10  A    between atoms: C_18  and  C_19
REMARK   11  A    between atoms: C_19  and  C_20
REMARK   12  A    between atoms: C_22  and  C_24
REMARK                            x       y       z     vdW  Elec       q    Type
REMARK                         _______ _______ _______ _____ _____    ______ ____
ROOT
ATOM      1  C   UNL     1      -3.890  -1.745  -4.293  0.00  0.00    +0.138 A 
ATOM      2  C   UNL     1      -3.360  -2.751  -5.061  0.00  0.00    +0.070 A 
ATOM      3  C   UNL     1      -2.783  -3.848  -4.409  0.00  0.00    +0.084 A 
ATOM      4  S   UNL     1      -3.003  -3.419  -2.690  0.00  0.00    -0.066 S 
ATOM      5  C   UNL     1      -3.833  -1.855  -2.917  0.00  0.00    +0.097 A 
ENDROOT
BRANCH   1   6
ATOM      6  S   UNL     1      -4.630  -0.336  -5.049  0.00  0.00    +0.001 S 
ATOM      7  O   UNL     1      -5.394  -0.862  -6.125  0.00  0.00    -0.169 OA
ATOM      8  O   UNL     1      -5.262   0.357  -3.982  0.00  0.00    -0.169 OA
BRANCH   6   9
ATOM      9  C   UNL     1      -3.237   0.635  -5.688  0.00  0.00    +0.172 C 
BRANCH   9  11
ATOM     10  C   UNL     1      -2.593   2.716  -6.911  0.00  0.00    +0.005 C 
ATOM     11  C   UNL     1      -3.767   1.897  -6.373  0.00  0.00    +0.020 C 
ENDBRANCH   9  11
ENDBRANCH   6   9
ENDBRANCH   1   6
BRANCH   2  12
ATOM     12  N   UNL     1      -3.394  -2.683  -6.450  0.00  0.00    -0.355 N 
ATOM     13  H   UNL     1      -3.539  -1.832  -6.890  0.00  0.00    +0.142 HD
ATOM     14  H   UNL     1      -3.272  -3.488  -6.978  0.00  0.00    +0.142 HD
ENDBRANCH   2  12
BRANCH   5  15
ATOM     15  N   UNL     1      -4.297  -0.973  -1.958  0.00  0.00    -0.307 N 
ATOM     16  H   UNL     1      -4.838  -0.212  -2.220  0.00  0.00    +0.153 HD
BRANCH  15  17
ATOM     17  C   UNL     1      -3.987  -1.179  -0.611  0.00  0.00    +0.038 A 
ATOM     18  C   UNL     1      -2.861  -0.583  -0.057  0.00  0.00    -0.029 A 
ATOM     19  C   UNL     1      -2.554  -0.794   1.273  0.00  0.00    +0.005 A 
ATOM     20  C   UNL     1      -3.369  -1.592   2.054  0.00  0.00    +0.001 A 
ATOM     21  C   UNL     1      -4.494  -2.182   1.507  0.00  0.00    +0.005 A 
ATOM     22  C   UNL     1      -4.806  -1.976   0.178  0.00  0.00    -0.026 A 
ATOM     23  C   UNL     1      -1.972   0.287  -0.908  0.00  0.00    +0.045 C 
BRANCH  22  24
ATOM     24  C   UNL     1      -6.032  -2.620  -0.417  0.00  0.00    +0.033 C 
ATOM     25  C   UNL     1      -5.640  -3.936  -1.092  0.00  0.00    +0.009 C 
ENDBRANCH  22  24
ENDBRANCH  15  17
ENDBRANCH   5  15
BRANCH   3  26
ATOM     26  C   UNL     1      -2.181  -4.991  -4.964  0.00  0.00    +0.202 C 
ATOM     27  O   UNL     1      -2.050  -5.085  -6.173  0.00  0.00    -0.286 OA
BRANCH  26  28
ATOM     28  C   UNL     1      -1.707  -6.080  -4.083  0.00  0.00    +0.023 A 
ATOM     29  C   UNL     1      -0.779  -7.010  -4.555  0.00  0.00    +0.014 A 
ATOM     30  C   UNL     1      -0.335  -8.019  -3.727  0.00  0.00    +0.039 A 
ATOM     31  C   UNL     1      -0.820  -8.119  -2.431  0.00  0.00    +0.123 A 
ATOM     32  C   UNL     1      -1.746  -7.202  -1.960  0.00  0.00    +0.039 A 
ATOM     33  C   UNL     1      -2.191  -6.186  -2.777  0.00  0.00    +0.014 A 
ATOM     34  F   UNL     1      -0.386  -9.114  -1.626  0.00  0.00    -0.205 F 
ENDBRANCH  26  28
ENDBRANCH   3  26
TORSDOF 9
