REMARK  Name = ZINC49570822
REMARK  5 active torsions:
REMARK  status: ('A' for Active; 'I' for Inactive)
REMARK    1  A    between atoms: C_3  and  N_21
REMARK    2  A    between atoms: C_6  and  S_7
REMARK    3  A    between atoms: S_7  and  N_10
REMARK    4  A    between atoms: N_10  and  C_11
REMARK    5  A    between atoms: N_21  and  N_22
REMARK                            x       y       z     vdW  Elec       q    Type
REMARK                         _______ _______ _______ _____ _____    ______ ____
ROOT
ATOM      1  S   UNL     1      -1.506  -0.915   0.012  0.00  0.00    +0.060 S 
ATOM      2  O   UNL     1      -1.205  -2.194   0.553  0.00  0.00    -0.153 OA
ATOM      3  O   UNL     1      -2.492  -0.061   0.577  0.00  0.00    -0.153 OA
ENDROOT
BRANCH   1   9
ATOM      4  C   UNL     1      -0.017   1.384   0.010  0.00  0.00    +0.033 A 
ATOM      5  C   UNL     1       1.190   2.061   0.002  0.00  0.00    +0.046 A 
ATOM      6  C   UNL     1       2.374   1.332  -0.013  0.00  0.00    +0.132 A 
ATOM      7  N   UNL     1       2.350   0.008  -0.020  0.00  0.00    -0.237 NA
ATOM      8  C   UNL     1       1.215  -0.664  -0.013  0.00  0.00    +0.141 A 
ATOM      9  C   UNL     1       0.002  -0.004   0.002  0.00  0.00    +0.123 A 
BRANCH   6  10
ATOM     10  N   UNL     1       3.594   1.999  -0.022  0.00  0.00    -0.268 N 
ATOM     11  H   UNL     1       3.616   2.969  -0.017  0.00  0.00    +0.167 HD
BRANCH  10  12
ATOM     12  N   UNL     1       4.761   1.289  -0.037  0.00  0.00    -0.255 NA
ATOM     13  H   UNL     1       4.788   0.655  -0.822  0.00  0.00    +0.140 HD
ATOM     14  H   UNL     1       5.559   1.905  -0.042  0.00  0.00    +0.140 HD
ENDBRANCH  10  12
ENDBRANCH   6  10
ENDBRANCH   1   9
BRANCH   1  15
ATOM     15  N   UNL     1      -1.941  -1.159  -1.567  0.00  0.00    -0.188 NA
ATOM     16  H   UNL     1      -2.751  -0.755  -1.915  0.00  0.00    +0.148 HD
BRANCH  15  17
ATOM     17  C   UNL     1      -1.103  -1.986  -2.438  0.00  0.00    +0.061 C 
ATOM     18  C   UNL     1      -0.182  -1.100  -3.301  0.00  0.00    +0.000 C 
ATOM     19  C   UNL     1      -0.070  -1.848  -4.640  0.00  0.00    -0.077 C 
ATOM     20  N   UNL     1      -1.183  -2.802  -4.715  0.00  0.00    +0.383 N 
ATOM     21  C   UNL     1      -1.969  -2.742  -3.463  0.00  0.00    -0.050 C 
ATOM     22  C   UNL     1      -3.201  -1.866  -3.802  0.00  0.00    -0.016 C 
ATOM     23  C   UNL     1      -3.481  -2.258  -5.275  0.00  0.00    -0.020 C 
ATOM     24  C   UNL     1      -2.062  -2.479  -5.851  0.00  0.00    -0.078 C 
ATOM     25  H   UNL     1      -0.820  -3.737  -4.824  0.00  0.00    -0.081 HD
ENDBRANCH  15  17
ENDBRANCH   1  15
TORSDOF 5
