REMARK  Name = ZINC10364789
REMARK  10 active torsions:
REMARK  status: ('A' for Active; 'I' for Inactive)
REMARK    1  A    between atoms: C_1  and  C_2
REMARK    2  A    between atoms: C_2  and  C_3
REMARK    3  A    between atoms: C_2  and  C_4
REMARK    4  A    between atoms: C_2  and  C_5
REMARK    5  A    between atoms: N_7  and  C_29
REMARK    6  A    between atoms: N_16  and  C_21
REMARK    7  A    between atoms: N_19  and  C_20
REMARK    8  A    between atoms: C_21  and  C_22
REMARK    9  A    between atoms: C_29  and  C_30
REMARK   10  A    between atoms: N_32  and  N_33
REMARK                            x       y       z     vdW  Elec       q    Type
REMARK                         _______ _______ _______ _____ _____    ______ ____
ROOT
ATOM      1  C   UNL     1       0.926   5.818  -0.258  0.00  0.00    +0.062 C 
ATOM      2  N   UNL     1      -0.343   5.849  -0.243  0.00  0.00    -0.184 NA
ATOM      3  N   UNL     1      -1.130   4.718   0.028  0.00  0.00    -0.184 N 
ATOM      4  C   UNL     1      -0.493   3.492   0.024  0.00  0.00    +0.221 A 
ATOM      5  N   UNL     1      -1.000   2.287   0.019  0.00  0.00    -0.195 NA
ATOM      6  C   UNL     1      -0.017   1.381   0.010  0.00  0.00    +0.170 A 
ATOM      7  C   UNL     1       1.195   2.070   0.002  0.00  0.00    +0.153 A 
ATOM      8  N   UNL     1       0.873   3.410   0.013  0.00  0.00    -0.299 N 
ATOM      9  C   UNL     1       1.743   4.585   0.017  0.00  0.00    +0.178 C 
ATOM     10  C   UNL     1       2.396   1.337  -0.014  0.00  0.00    +0.283 A 
ATOM     11  O   UNL     1       3.469   1.915  -0.022  0.00  0.00    -0.265 OA
ATOM     12  N   UNL     1       2.350  -0.011  -0.020  0.00  0.00    -0.255 N 
ATOM     13  C   UNL     1       1.175  -0.664  -0.012  0.00  0.00    +0.334 A 
ATOM     14  O   UNL     1       1.172  -1.880  -0.018  0.00  0.00    -0.246 OA
ATOM     15  N   UNL     1       0.002  -0.004   0.002  0.00  0.00    -0.279 N 
ATOM     16  C   UNL     1      -1.258  -0.752   0.010  0.00  0.00    +0.155 C 
ENDROOT
BRANCH   1  18
ATOM     17  C   UNL     1       0.650   8.217  -0.818  0.00  0.00    +0.017 C 
ATOM     18  C   UNL     1       1.661   7.096  -0.572  0.00  0.00    +0.004 C 
ATOM     19  C   UNL     1       2.560   7.470   0.608  0.00  0.00    +0.017 C 
ATOM     20  C   UNL     1       2.518   6.898  -1.823  0.00  0.00    +0.017 C 
ENDBRANCH   1  18
BRANCH  12  21
ATOM     21  C   UNL     1       3.600  -0.775  -0.035  0.00  0.00    +0.168 C 
BRANCH  21  22
ATOM     22  C   UNL     1       4.015  -1.030  -1.461  0.00  0.00    +0.008 A 
ATOM     23  C   UNL     1       5.059  -0.314  -2.016  0.00  0.00    +0.008 A 
ATOM     24  C   UNL     1       5.440  -0.548  -3.324  0.00  0.00    +0.000 A 
ATOM     25  C   UNL     1       4.779  -1.499  -4.079  0.00  0.00    +0.003 A 
ATOM     26  C   UNL     1       3.735  -2.217  -3.526  0.00  0.00    +0.039 A 
ATOM     27  C   UNL     1       3.355  -1.986  -2.214  0.00  0.00    +0.128 A 
ATOM     28  F   UNL     1       2.338  -2.691  -1.671  0.00  0.00    -0.205 F 
ENDBRANCH  21  22
ENDBRANCH  12  21
BRANCH   3  29
ATOM     29  C   UNL     1      -2.564   4.833   0.304  0.00  0.00    +0.232 C 
BRANCH  29  30
ATOM     30  C   UNL     1      -2.778   5.012   1.785  0.00  0.00    +0.246 C 
ATOM     31  O   UNL     1      -1.827   5.041   2.536  0.00  0.00    -0.273 OA
ATOM     32  N   UNL     1      -4.027   5.140   2.275  0.00  0.00    -0.252 N 
ATOM     33  H   UNL     1      -4.789   5.117   1.674  0.00  0.00    +0.169 HD
BRANCH  32  34
ATOM     34  N   UNL     1      -4.222   5.303   3.617  0.00  0.00    -0.254 NA
ATOM     35  H   UNL     1      -5.204   5.385   3.833  0.00  0.00    +0.140 HD
ATOM     36  H   UNL     1      -3.799   4.549   4.137  0.00  0.00    +0.140 HD
ENDBRANCH  32  34
ENDBRANCH  29  30
ENDBRANCH   3  29
TORSDOF 6
