REMARK  Name = ZINC42280926
REMARK  8 active torsions:
REMARK  status: ('A' for Active; 'I' for Inactive)
REMARK    1  A    between atoms: C_1  and  C_2
REMARK    2  A    between atoms: C_7  and  S_8
REMARK    3  A    between atoms: S_8  and  N_11
REMARK    4  A    between atoms: C_12  and  C_14
REMARK    5  A    between atoms: C_14  and  C_15
REMARK    6  A    between atoms: C_15  and  C_16
REMARK    7  A    between atoms: C_15  and  C_17
REMARK    8  A    between atoms: C_15  and  C_18
REMARK                            x       y       z     vdW  Elec       q    Type
REMARK                         _______ _______ _______ _____ _____    ______ ____
ROOT
ATOM      1  S   UNL     1       0.025   0.172   2.726  0.00  0.00    +0.102 S 
ATOM      2  O   UNL     1      -1.014   1.137   2.644  0.00  0.00    -0.146 OA
ATOM      3  O   UNL     1       0.076  -0.809   3.753  0.00  0.00    -0.146 OA
ENDROOT
BRANCH   1  10
ATOM      4  C   UNL     1      -0.018   1.503   0.010  0.00  0.00    +0.046 C 
ATOM      5  C   UNL     1       0.002  -0.004   0.002  0.00  0.00    -0.024 A 
ATOM      6  C   UNL     1       0.006  -0.689  -1.199  0.00  0.00    +0.006 A 
ATOM      7  C   UNL     1       0.025  -2.070  -1.207  0.00  0.00    +0.015 A 
ATOM      8  C   UNL     1       0.041  -2.769  -0.013  0.00  0.00    +0.020 A 
ATOM      9  C   UNL     1       0.037  -2.084   1.188  0.00  0.00    +0.044 A 
ATOM     10  C   UNL     1       0.023  -0.701   1.195  0.00  0.00    +0.117 A 
ATOM     11 BR   UNL     1       0.066  -4.660  -0.024  0.00  0.00    -0.050 Br
ENDBRANCH   1  10
BRANCH   1  12
ATOM     12  N   UNL     1       1.449   1.015   2.806  0.00  0.00    -0.091 NA
ATOM     13  C   UNL     1       1.708   1.747   3.837  0.00  0.00    +0.265 C 
ATOM     14  O   UNL     1       0.819   1.825   4.849  0.00  0.00    -0.269 OA
BRANCH  13  15
ATOM     15  C   UNL     1       3.003   2.514   3.910  0.00  0.00    +0.108 C 
BRANCH  15  16
ATOM     16  C   UNL     1       3.823   2.252   2.645  0.00  0.00    -0.029 C 
ATOM     17  C   UNL     1       3.029   2.708   1.419  0.00  0.00    +0.011 C 
ATOM     18  C   UNL     1       5.138   3.031   2.719  0.00  0.00    +0.011 C 
ATOM     19  C   UNL     1       4.122   0.756   2.531  0.00  0.00    +0.011 C 
ENDBRANCH  15  16
ENDBRANCH  13  15
ENDBRANCH   1  12
TORSDOF 4
