REMARK  Name = ZINC40284686
REMARK  5 active torsions:
REMARK  status: ('A' for Active; 'I' for Inactive)
REMARK    1  A    between atoms: C_3  and  O_26
REMARK    2  A    between atoms: C_6  and  C_7
REMARK    3  A    between atoms: N_17  and  C_18
REMARK    4  A    between atoms: O_26  and  C_27
REMARK    5  A    between atoms: C_27  and  C_28
REMARK                            x       y       z     vdW  Elec       q    Type
REMARK                         _______ _______ _______ _____ _____    ______ ____
ROOT
ATOM      1  C   UNL     1      -1.293  -0.774   0.011  0.00  0.00    +0.080 C 
ATOM      2  C   UNL     1      -1.375  -1.660  -1.236  0.00  0.00    +0.110 C 
ATOM      3  C   UNL     1      -0.496  -2.871  -1.107  0.00  0.00    +0.219 C 
ATOM      4  O   UNL     1       0.079  -3.286  -2.091  0.00  0.00    -0.275 OA
ATOM      5  N   UNL     1      -0.326  -3.513   0.069  0.00  0.00    -0.270 N 
ATOM      6  C   UNL     1      -0.885  -2.942   1.214  0.00  0.00    +0.133 A 
ATOM      7  C   UNL     1      -1.349  -1.659   1.230  0.00  0.00    +0.089 A 
ATOM      8  N   UNL     1      -1.816  -1.402   2.450  0.00  0.00    -0.238 NA
ATOM      9  C   UNL     1      -1.669  -2.463   3.202  0.00  0.00    +0.205 A 
ATOM     10  N   UNL     1      -1.087  -3.453   2.457  0.00  0.00    -0.287 N 
ATOM     11  H   UNL     1       0.170  -4.345   0.117  0.00  0.00    +0.156 HD
ENDROOT
BRANCH  10  12
ATOM     12  C   UNL     1      -0.761  -4.747   2.892  0.00  0.00    +0.051 A 
ATOM     13  C   UNL     1      -1.152  -5.850   2.145  0.00  0.00    +0.029 A 
ATOM     14  C   UNL     1      -0.831  -7.123   2.575  0.00  0.00    +0.042 A 
ATOM     15  C   UNL     1      -0.120  -7.300   3.749  0.00  0.00    +0.142 A 
ATOM     16  C   UNL     1       0.271  -6.200   4.497  0.00  0.00    +0.078 A 
ATOM     17  C   UNL     1      -0.043  -4.925   4.066  0.00  0.00    +0.049 A 
ATOM     18 CL   UNL     1       1.162  -6.424   5.970  0.00  0.00    -0.081 Cl
ATOM     19  F   UNL     1       0.192  -8.546   4.168  0.00  0.00    -0.204 F 
ENDBRANCH  10  12
BRANCH   1  25
ATOM     20  C   UNL     1      -0.017   1.378   0.010  0.00  0.00    +0.008 A 
ATOM     21  C   UNL     1       1.169   2.087   0.002  0.00  0.00    +0.046 A 
ATOM     22  C   UNL     1       2.380   1.409  -0.013  0.00  0.00    +0.121 A 
ATOM     23  C   UNL     1       2.396   0.022  -0.021  0.00  0.00    +0.046 A 
ATOM     24  C   UNL     1       1.207  -0.681  -0.013  0.00  0.00    +0.008 A 
ATOM     25  C   UNL     1       0.002  -0.004   0.002  0.00  0.00    -0.038 A 
BRANCH  22  26
ATOM     26  O   UNL     1       3.548   2.104  -0.021  0.00  0.00    -0.483 OA
BRANCH  26  27
ATOM     27  C   UNL     1       4.756   1.341  -0.036  0.00  0.00    +0.324 C 
BRANCH  27  28
ATOM     28  C   UNL     1       5.940   2.274  -0.043  0.00  0.00    +0.248 C 
ATOM     29  O   UNL     1       5.766   3.474  -0.036  0.00  0.00    -0.272 OA
ATOM     30  N   UNL     1       7.192   1.774  -0.058  0.00  0.00    -0.327 N 
ATOM     31  H   UNL     1       7.331   0.814  -0.064  0.00  0.00    +0.145 HD
ATOM     32  H   UNL     1       7.953   2.375  -0.062  0.00  0.00    +0.145 HD
ENDBRANCH  27  28
ENDBRANCH  26  27
ENDBRANCH  22  26
ENDBRANCH   1  25
TORSDOF 5
