REMARK  Name = ZINC29627439
REMARK  3 active torsions:
REMARK  status: ('A' for Active; 'I' for Inactive)
REMARK    1  A    between atoms: C_3  and  N_17
REMARK    2  A    between atoms: C_6  and  C_7
REMARK    3  A    between atoms: C_7  and  N_8
REMARK                            x       y       z     vdW  Elec       q    Type
REMARK                         _______ _______ _______ _____ _____    ______ ____
ROOT
ATOM      1  C   UNL     1       6.435  -1.516   1.130  0.00  0.00    +0.007 A 
ATOM      2  C   UNL     1       7.464  -2.437   1.118  0.00  0.00    +0.023 A 
ATOM      3  C   UNL     1       7.973  -2.892  -0.092  0.00  0.00    +0.030 A 
ATOM      4  C   UNL     1       7.441  -2.423  -1.286  0.00  0.00    +0.023 A 
ATOM      5  C   UNL     1       6.408  -1.507  -1.267  0.00  0.00    +0.007 A 
ATOM      6  C   UNL     1       5.903  -1.056  -0.061  0.00  0.00    -0.030 A 
ENDROOT
BRANCH   3   7
ATOM      7  N   UNL     1       9.018  -3.819  -0.107  0.00  0.00    -0.320 N 
ATOM      8  C   UNL     1       9.442  -4.158   1.261  0.00  0.00    +0.124 C 
ATOM      9  C   UNL     1      10.355  -5.385   1.202  0.00  0.00    +0.123 C 
ATOM     10  N   UNL     1      11.403  -5.181   0.207  0.00  0.00    -0.313 N 
ATOM     11  C   UNL     1      11.322  -4.256  -0.756  0.00  0.00    +0.230 C 
ATOM     12  O   UNL     1      12.226  -4.175  -1.561  0.00  0.00    -0.274 OA
ATOM     13  C   UNL     1      10.159  -3.314  -0.881  0.00  0.00    +0.200 C 
ATOM     14  H   UNL     1      12.310  -5.803   0.228  0.00  0.00    +0.149 HD
ENDBRANCH   3   7
BRANCH   6  15
ATOM     15  C   UNL     1       4.776  -0.056  -0.044  0.00  0.00    +0.138 C 
BRANCH  15  16
ATOM     16  N   UNL     1       3.494  -0.765  -0.036  0.00  0.00    -0.325 N 
ATOM     17  C   UNL     1       2.307  -0.050  -0.020  0.00  0.00    +0.125 A 
ATOM     18  C   UNL     1       2.321   1.346  -0.013  0.00  0.00    +0.083 A 
ATOM     19  C   UNL     1       1.113   2.017   0.002  0.00  0.00    +0.136 A 
ATOM     20  N   UNL     1      -0.016   1.320   0.009  0.00  0.00    -0.203 NA
ATOM     21  C   UNL     1       0.002  -0.004   0.002  0.00  0.00    +0.216 A 
ATOM     22  N   UNL     1       1.139  -0.684  -0.013  0.00  0.00    -0.200 NA
ATOM     23  N   UNL     1      -1.197  -0.695   0.010  0.00  0.00    -0.327 N 
ATOM     24 CL   UNL     1       1.073   3.753   0.011  0.00  0.00    -0.062 Cl
ATOM     25  H   UNL     1       3.474  -1.865  -0.042  0.00  0.00    +0.148 HD
ATOM     26  H   UNL     1      -1.198  -1.795   0.004  0.00  0.00    +0.145 HD
ATOM     27  H   UNL     1      -2.149  -0.144   0.023  0.00  0.00    +0.145 HD
ENDBRANCH  15  16
ENDBRANCH   6  15
TORSDOF 3
