REMARK  Name = ZINC14510337
REMARK  9 active torsions:
REMARK  status: ('A' for Active; 'I' for Inactive)
REMARK    1  A    between atoms: C_1  and  C_2
REMARK    2  A    between atoms: C_2  and  C_3
REMARK    3  A    between atoms: C_3  and  C_4
REMARK    4  A    between atoms: C_4  and  N_5
REMARK    5  A    between atoms: N_5  and  C_6
REMARK    6  A    between atoms: C_7  and  N_22
REMARK    7  A    between atoms: N_8  and  C_15
REMARK    8  A    between atoms: C_15  and  C_16
REMARK    9  A    between atoms: C_23  and  C_25
REMARK                            x       y       z     vdW  Elec       q    Type
REMARK                         _______ _______ _______ _____ _____    ______ ____
ROOT
ATOM      1  C   UNL     1      -1.932   0.988   1.726  0.00  0.00    +0.140 A 
ATOM      2  C   UNL     1      -3.100   1.581   2.161  0.00  0.00    +0.128 A 
ATOM      3  N   UNL     1      -4.082   0.799   2.723  0.00  0.00    -0.276 N 
ATOM      4  C   UNL     1      -3.903  -0.527   2.855  0.00  0.00    +0.331 A 
ATOM      5  O   UNL     1      -4.781  -1.201   3.359  0.00  0.00    -0.246 OA
ATOM      6  N   UNL     1      -2.770  -1.123   2.442  0.00  0.00    -0.273 N 
ATOM      7  H   UNL     1      -2.662  -2.111   2.552  0.00  0.00    +0.173 HD
ATOM      8  C   UNL     1      -1.779  -0.403   1.881  0.00  0.00    +0.277 A 
ATOM      9  O   UNL     1      -0.756  -0.952   1.509  0.00  0.00    -0.266 OA
ENDROOT
BRANCH   1  10
ATOM     10  N   UNL     1      -0.908   1.762   1.141  0.00  0.00    -0.264 N 
ATOM     11  C   UNL     1      -0.272   2.701   1.872  0.00  0.00    +0.226 C 
ATOM     12  O   UNL     1      -0.520   2.822   3.053  0.00  0.00    -0.275 OA
BRANCH  11  13
ATOM     13  C   UNL     1       0.747   3.600   1.220  0.00  0.00    +0.048 C 
ATOM     14  C   UNL     1       0.146   4.222  -0.042  0.00  0.00    +0.019 C 
ATOM     15  C   UNL     1       1.180   5.135  -0.704  0.00  0.00    -0.009 C 
ATOM     16  C   UNL     1       1.579   6.245   0.271  0.00  0.00    +0.007 C 
ATOM     17  C   UNL     1       2.180   5.623   1.534  0.00  0.00    -0.009 C 
ATOM     18  C   UNL     1       1.146   4.710   2.195  0.00  0.00    +0.019 C 
ATOM     19  C   UNL     1       3.417   4.804   1.159  0.00  0.00    +0.007 C 
ATOM     20  C   UNL     1       3.019   3.695   0.184  0.00  0.00    -0.009 C 
ATOM     21  C   UNL     1       2.418   4.316  -1.078  0.00  0.00    +0.007 C 
ATOM     22  C   UNL     1       1.984   2.782   0.846  0.00  0.00    +0.019 C 
ENDBRANCH  11  13
BRANCH  10  23
ATOM     23  C   UNL     1      -0.536   1.547  -0.259  0.00  0.00    +0.114 C 
BRANCH  23  24
ATOM     24  C   UNL     1      -1.608   2.147  -1.171  0.00  0.00    +0.019 C 
BRANCH  24  26
ATOM     25  C   UNL     1      -2.219   2.662  -3.538  0.00  0.00    +0.004 C 
ATOM     26  C   UNL     1      -1.146   2.062  -2.627  0.00  0.00    -0.002 C 
ENDBRANCH  24  26
ENDBRANCH  23  24
ENDBRANCH  10  23
ENDBRANCH   1  10
BRANCH   2  27
ATOM     27  N   UNL     1      -3.280   2.938   2.030  0.00  0.00    -0.343 N 
ATOM     28  H   UNL     1      -2.622   3.471   1.559  0.00  0.00    +0.144 HD
ATOM     29  H   UNL     1      -4.066   3.361   2.410  0.00  0.00    +0.144 HD
ENDBRANCH   2  27
BRANCH   3  30
ATOM     30  C   UNL     1      -5.328   1.415   3.185  0.00  0.00    +0.163 C 
BRANCH  30  31
ATOM     31  C   UNL     1      -5.178   1.833   4.625  0.00  0.00    -0.028 A 
ATOM     32  C   UNL     1      -5.514   0.954   5.638  0.00  0.00    +0.005 A 
ATOM     33  C   UNL     1      -5.372   1.335   6.959  0.00  0.00    +0.000 A 
ATOM     34  C   UNL     1      -4.904   2.599   7.267  0.00  0.00    +0.000 A 
ATOM     35  C   UNL     1      -4.572   3.479   6.255  0.00  0.00    +0.000 A 
ATOM     36  C   UNL     1      -4.710   3.096   4.933  0.00  0.00    +0.005 A 
ENDBRANCH  30  31
ENDBRANCH   3  30
TORSDOF 8
