REMARK  Name = ZINC66157937
REMARK  8 active torsions:
REMARK  status: ('A' for Active; 'I' for Inactive)
REMARK    1  A    between atoms: C_1  and  C_2
REMARK    2  A    between atoms: C_2  and  C_3
REMARK    3  A    between atoms: C_3  and  C_4
REMARK    4  A    between atoms: C_3  and  C_5
REMARK    5  A    between atoms: C_3  and  O_20
REMARK    6  A    between atoms: C_5  and  N_6
REMARK    7  A    between atoms: N_9  and  C_10
REMARK    8  A    between atoms: C_14  and  N_16
REMARK                            x       y       z     vdW  Elec       q    Type
REMARK                         _______ _______ _______ _____ _____    ______ ____
ROOT
ATOM      1  N   UNL     1      -2.788  -2.566   0.146  0.00  0.00    -0.296 N 
ATOM      2  C   UNL     1      -3.017  -3.891   0.236  0.00  0.00    +0.304 C 
ATOM      3  O   UNL     1      -2.082  -4.665   0.306  0.00  0.00    -0.253 OA
ATOM      4  N   UNL     1      -4.281  -4.357   0.247  0.00  0.00    -0.269 N 
ATOM      5  H   UNL     1      -3.534  -1.948   0.091  0.00  0.00    +0.150 HD
ATOM      6  H   UNL     1      -5.027  -3.737   0.259  0.00  0.00    +0.156 HD
ENDROOT
BRANCH   4   7
ATOM      7  C   UNL     1      -4.518  -5.737   0.242  0.00  0.00    +0.037 A 
ATOM      8  C   UNL     1      -5.610  -6.253  -0.445  0.00  0.00    +0.025 A 
ATOM      9  C   UNL     1      -5.841  -7.614  -0.449  0.00  0.00    +0.024 A 
ATOM     10  C   UNL     1      -4.987  -8.464   0.231  0.00  0.00    +0.071 A 
ATOM     11  C   UNL     1      -3.898  -7.953   0.916  0.00  0.00    +0.146 A 
ATOM     12  C   UNL     1      -3.659  -6.593   0.918  0.00  0.00    +0.057 A 
ATOM     13 CL   UNL     1      -5.281 -10.175   0.225  0.00  0.00    -0.081 Cl
BRANCH  11  14
ATOM     14  N   UNL     1      -2.986  -8.866   1.642  0.00  0.00    +0.058 N 
ATOM     15  O   UNL     1      -2.035  -8.419   2.241  0.00  0.00    -0.126 OA
ATOM     16  O   UNL     1      -3.193 -10.057   1.637  0.00  0.00    -0.126 OA
ENDBRANCH  11  14
ENDBRANCH   4   7
BRANCH   1  17
ATOM     17  C   UNL     1      -1.414  -2.058   0.134  0.00  0.00    +0.140 C 
BRANCH  17  18
ATOM     18  C   UNL     1      -1.434  -0.532   0.027  0.00  0.00    +0.078 C 
ATOM     19  C   UNL     1      -2.183   0.053   1.226  0.00  0.00    +0.043 C 
BRANCH  18  21
ATOM     20  C   UNL     1      -0.019   1.527   0.032  0.00  0.00    +0.007 C 
ATOM     21  C   UNL     1       0.001  -0.003   0.014  0.00  0.00    +0.032 C 
ENDBRANCH  18  21
BRANCH  18  22
ATOM     22  O   UNL     1      -2.094  -0.149  -1.181  0.00  0.00    -0.387 OA
ATOM     23  H   UNL     1      -1.673  -0.485  -1.984  0.00  0.00    +0.210 HD
ENDBRANCH  18  22
ENDBRANCH  17  18
ENDBRANCH   1  17
TORSDOF 6
