REMARK  Name = ZINC35767089
REMARK  7 active torsions:
REMARK  status: ('A' for Active; 'I' for Inactive)
REMARK    1  A    between atoms: C_1  and  C_2
REMARK    2  A    between atoms: C_2  and  C_4
REMARK    3  A    between atoms: C_2  and  S_16
REMARK    4  A    between atoms: N_6  and  C_7
REMARK    5  A    between atoms: C_10  and  C_13
REMARK    6  A    between atoms: C_13  and  C_15
REMARK    7  A    between atoms: S_16  and  C_17
REMARK                            x       y       z     vdW  Elec       q    Type
REMARK                         _______ _______ _______ _____ _____    ______ ____
ROOT
ATOM      1  S   UNL     1       1.406   0.174  -1.374  0.00  0.00    -0.073 S 
ENDROOT
BRANCH   1   2
ATOM      2  C   UNL     1       0.096   0.246  -2.550  0.00  0.00    +0.192 A 
ATOM      3  N   UNL     1      -1.035   0.862  -2.229  0.00  0.00    -0.207 NA
ATOM      4  C   UNL     1      -2.052   0.948  -3.070  0.00  0.00    +0.129 A 
ATOM      5  C   UNL     1      -1.937   0.363  -4.362  0.00  0.00    +0.051 A 
ATOM      6  C   UNL     1      -2.924   0.333  -5.445  0.00  0.00    -0.025 A 
ATOM      7  C   UNL     1      -2.564  -0.292  -6.583  0.00  0.00    -0.004 A 
ATOM      8  S   UNL     1      -0.915  -0.872  -6.291  0.00  0.00    -0.073 S 
ATOM      9  C   UNL     1      -0.710  -0.273  -4.634  0.00  0.00    +0.115 A 
ATOM     10  N   UNL     1       0.261  -0.312  -3.742  0.00  0.00    -0.214 NA
ATOM     11  C   UNL     1      -3.386  -0.460  -7.825  0.00  0.00    +0.043 C 
ATOM     12  C   UNL     1      -4.848  -0.136  -7.487  0.00  0.00    +0.005 C 
ATOM     13  C   UNL     1      -4.891   1.181  -6.705  0.00  0.00    +0.005 C 
ATOM     14  C   UNL     1      -4.302   0.975  -5.309  0.00  0.00    +0.037 C 
ATOM     15  N   UNL     1      -3.214   1.598  -2.698  0.00  0.00    -0.343 N 
ATOM     16  H   UNL     1      -3.212   2.197  -1.935  0.00  0.00    +0.144 HD
ATOM     17  H   UNL     1      -4.032   1.456  -3.200  0.00  0.00    +0.144 HD
ENDBRANCH   1   2
BRANCH   1  19
ATOM     18  C   UNL     1       0.512   2.517  -0.281  0.00  0.00    +0.029 C 
ATOM     19  C   UNL     1       0.744   1.047   0.073  0.00  0.00    +0.137 C 
BRANCH  19  20
ATOM     20  C   UNL     1       1.729   0.953   1.210  0.00  0.00    +0.230 C 
ATOM     21  O   UNL     1       2.908   0.783   0.979  0.00  0.00    -0.274 OA
ATOM     22  N   UNL     1       1.300   1.057   2.483  0.00  0.00    -0.285 N 
ATOM     23  H   UNL     1       0.370   1.262   2.666  0.00  0.00    +0.155 HD
BRANCH  22  24
ATOM     24  C   UNL     1       2.192   0.870   3.536  0.00  0.00    +0.033 A 
ATOM     25  C   UNL     1       1.765   0.245   4.705  0.00  0.00    +0.024 A 
ATOM     26  C   UNL     1       2.640   0.058   5.744  0.00  0.00    +0.013 A 
ATOM     27  C   UNL     1       3.965   0.497   5.628  0.00  0.00    +0.017 A 
ATOM     28  C   UNL     1       4.390   1.125   4.451  0.00  0.00    +0.013 A 
ATOM     29  C   UNL     1       3.510   1.303   3.415  0.00  0.00    +0.024 A 
BRANCH  27  30
ATOM     30  C   UNL     1       4.906   0.300   6.739  0.00  0.00    +0.160 C 
ATOM     31  O   UNL     1       4.535  -0.244   7.758  0.00  0.00    -0.292 OA
ATOM     32  C   UNL     1       6.331   0.773   6.612  0.00  0.00    +0.091 C 
ENDBRANCH  27  30
ENDBRANCH  22  24
ENDBRANCH  19  20
ENDBRANCH   1  19
TORSDOF 5
