REMARK  Name = ZINC50430262
REMARK  7 active torsions:
REMARK  status: ('A' for Active; 'I' for Inactive)
REMARK    1  A    between atoms: C_1  and  C_2
REMARK    2  A    between atoms: C_5  and  C_20
REMARK    3  A    between atoms: C_7  and  N_8
REMARK    4  A    between atoms: N_8  and  C_9
REMARK    5  A    between atoms: C_9  and  C_10
REMARK    6  A    between atoms: C_10  and  C_11
REMARK    7  A    between atoms: C_14  and  N_17
REMARK                            x       y       z     vdW  Elec       q    Type
REMARK                         _______ _______ _______ _____ _____    ______ ____
ROOT
ATOM      1  N   UNL     1       0.025  -0.009   2.416  0.00  0.00    -0.343 N 
ATOM      2  H   UNL     1       0.011   0.961   2.419  0.00  0.00    +0.146 HD
ENDROOT
BRANCH   1   9
ATOM      3  C   UNL     1      -0.018   1.503   0.010  0.00  0.00    +0.045 C 
ATOM      4  C   UNL     1       0.002  -0.004   0.002  0.00  0.00    -0.030 A 
ATOM      5  C   UNL     1       0.006  -0.686  -1.200  0.00  0.00    +0.006 A 
ATOM      6  C   UNL     1       0.024  -2.066  -1.216  0.00  0.00    +0.019 A 
ATOM      7  C   UNL     1       0.040  -2.778  -0.015  0.00  0.00    +0.054 A 
ATOM      8  C   UNL     1       0.037  -2.090   1.198  0.00  0.00    +0.042 A 
ATOM      9  C   UNL     1       0.023  -0.703   1.203  0.00  0.00    +0.031 A 
BRANCH   7  10
ATOM     10  C   UNL     1       0.059  -4.210  -0.029  0.00  0.00    +0.099 C 
ATOM     11  N   UNL     1       0.074  -5.346  -0.040  0.00  0.00    -0.191 NA
ENDBRANCH   7  10
ENDBRANCH   1   9
BRANCH   1  12
ATOM     12  C   UNL     1       0.046  -0.745   3.682  0.00  0.00    +0.106 C 
BRANCH  12  13
ATOM     13  C   UNL     1       0.043   0.245   4.848  0.00  0.00    +0.054 C 
BRANCH  13  14
ATOM     14  C   UNL     1       0.066  -0.513   6.150  0.00  0.00    -0.046 A 
ATOM     15  C   UNL     1      -1.120  -0.882   6.756  0.00  0.00    +0.006 A 
ATOM     16  C   UNL     1      -1.100  -1.577   7.951  0.00  0.00    +0.033 A 
ATOM     17  C   UNL     1       0.108  -1.903   8.540  0.00  0.00    +0.126 A 
ATOM     18  C   UNL     1       1.294  -1.535   7.934  0.00  0.00    +0.033 A 
ATOM     19  C   UNL     1       1.274  -0.844   6.737  0.00  0.00    +0.006 A 
BRANCH  17  20
ATOM     20  N   UNL     1       0.130  -2.647   9.819  0.00  0.00    +0.056 N 
ATOM     21  O   UNL     1      -0.908  -2.969  10.349  0.00  0.00    -0.126 OA
ATOM     22  O   UNL     1       1.186  -2.932  10.334  0.00  0.00    -0.126 OA
ENDBRANCH  17  20
ENDBRANCH  13  14
ENDBRANCH  12  13
ENDBRANCH   1  12
TORSDOF 6
