REMARK  Name = ZINC67251450
REMARK  13 active torsions:
REMARK  status: ('A' for Active; 'I' for Inactive)
REMARK    1  A    between atoms: C_1  and  C_2
REMARK    2  A    between atoms: C_5  and  C_30
REMARK    3  A    between atoms: N_8  and  C_10
REMARK    4  A    between atoms: C_10  and  C_11
REMARK    5  A    between atoms: C_11  and  C_13
REMARK    6  A    between atoms: C_11  and  N_14
REMARK    7  A    between atoms: N_14  and  C_15
REMARK    8  A    between atoms: C_15  and  C_16
REMARK    9  A    between atoms: C_18  and  O_28
REMARK   10  A    between atoms: C_19  and  O_23
REMARK   11  A    between atoms: O_23  and  C_24
REMARK   12  A    between atoms: C_24  and  C_25
REMARK   13  A    between atoms: O_28  and  C_29
REMARK                            x       y       z     vdW  Elec       q    Type
REMARK                         _______ _______ _______ _____ _____    ______ ____
ROOT
ATOM      1  C   UNL     1       1.018   3.776   4.048  0.00  0.00    -0.029 A 
ATOM      2  C   UNL     1       1.756   4.589   4.888  0.00  0.00    +0.054 A 
ATOM      3  C   UNL     1       1.761   5.961   4.697  0.00  0.00    +0.163 A 
ATOM      4  C   UNL     1       1.022   6.519   3.659  0.00  0.00    +0.181 A 
ATOM      5  C   UNL     1       0.284   5.699   2.819  0.00  0.00    +0.086 A 
ATOM      6  C   UNL     1       0.288   4.329   3.013  0.00  0.00    +0.028 A 
ATOM      7 CL   UNL     1      -0.641   6.391   1.523  0.00  0.00    -0.080 Cl
ENDROOT
BRANCH   3   8
ATOM      8  O   UNL     1       2.486   6.761   5.524  0.00  0.00    -0.491 OA
ATOM      9  C   UNL     1       3.221   6.120   6.568  0.00  0.00    +0.277 C 
ENDBRANCH   3   8
BRANCH   1  10
ATOM     10  C   UNL     1       1.014   2.284   4.257  0.00  0.00    +0.116 C 
BRANCH  10  11
ATOM     11  N   UNL     1       2.109   1.678   3.488  0.00  0.00    -0.311 NA
ATOM     12  H   UNL     1       2.996   2.090   3.736  0.00  0.00    +0.122 HD
BRANCH  11  13
ATOM     13  C   UNL     1       2.136   0.221   3.668  0.00  0.00    +0.034 C 
ATOM     14  C   UNL     1       2.924  -0.122   4.934  0.00  0.00    +0.022 C 
BRANCH  13  15
ATOM     15  C   UNL     1       2.808  -0.431   2.458  0.00  0.00    -0.060 C 
BRANCH  15  21
ATOM     16  C   UNL     1      -0.019   1.526   0.010  0.00  0.00    +0.005 C 
ATOM     17  C   UNL     1       0.002  -0.004   0.002  0.00  0.00    -0.031 C 
ATOM     18  C   UNL     1       0.721  -0.499  -1.257  0.00  0.00    +0.003 C 
ATOM     19  C   UNL     1       2.177  -0.027  -1.220  0.00  0.00    -0.031 C 
ATOM     20  C   UNL     1       2.839  -0.534   0.063  0.00  0.00    -0.076 C 
ATOM     21  N   UNL     1       2.123  -0.005   1.230  0.00  0.00    +0.381 N 
ATOM     22  C   UNL     1       0.744  -0.512   1.240  0.00  0.00    -0.076 C 
ATOM     23  C   UNL     1       2.924  -0.581  -2.434  0.00  0.00    +0.005 C 
ATOM     24  H   UNL     1       2.109   1.003   1.187  0.00  0.00    -0.082 HD
ENDBRANCH  15  21
ENDBRANCH  13  15
ENDBRANCH  11  13
ENDBRANCH  10  11
ENDBRANCH   1  10
BRANCH   4  25
ATOM     25  O   UNL     1       1.023   7.866   3.468  0.00  0.00    -0.478 OA
BRANCH  25  26
ATOM     26  C   UNL     1       2.028   8.397   2.602  0.00  0.00    +0.324 C 
BRANCH  26  27
ATOM     27  C   UNL     1       1.873   9.894   2.513  0.00  0.00    +0.248 C 
ATOM     28  O   UNL     1       0.990  10.450   3.130  0.00  0.00    -0.272 OA
ATOM     29  N   UNL     1       2.717  10.614   1.748  0.00  0.00    -0.327 N 
ATOM     30  H   UNL     1       3.424  10.169   1.254  0.00  0.00    +0.145 HD
ATOM     31  H   UNL     1       2.618  11.577   1.690  0.00  0.00    +0.145 HD
ENDBRANCH  26  27
ENDBRANCH  25  26
ENDBRANCH   4  25
TORSDOF 9
