REMARK  Name = ZINC39667515
REMARK  7 active torsions:
REMARK  status: ('A' for Active; 'I' for Inactive)
REMARK    1  A    between atoms: C_1  and  C_2
REMARK    2  A    between atoms: C_6  and  C_9
REMARK    3  A    between atoms: C_7  and  C_8
REMARK    4  A    between atoms: C_9  and  N_10
REMARK    5  A    between atoms: C_11  and  C_13
REMARK    6  A    between atoms: C_24  and  C_26
REMARK    7  A    between atoms: C_30  and  C_32
REMARK                            x       y       z     vdW  Elec       q    Type
REMARK                         _______ _______ _______ _____ _____    ______ ____
ROOT
ATOM      1  C   UNL     1      -3.604  -3.470   4.815  0.00  0.00    +0.100 C 
ATOM      2  C   UNL     1      -4.260  -4.266   3.665  0.00  0.00    +0.121 C 
ATOM      3  N   UNL     1      -4.218  -5.677   4.114  0.00  0.00    -0.296 N 
ATOM      4  C   UNL     1      -4.525  -5.612   5.564  0.00  0.00    +0.115 C 
ATOM      5  C   UNL     1      -3.783  -4.355   6.060  0.00  0.00    -0.004 C 
ATOM      6  C   UNL     1      -4.619  -3.628   7.109  0.00  0.00    -0.010 C 
ATOM      7  C   UNL     1      -4.734  -4.505   8.360  0.00  0.00    -0.082 C 
ATOM      8  N   UNL     1      -3.393  -4.790   8.885  0.00  0.00    +0.379 N 
ATOM      9  C   UNL     1      -2.627  -5.570   7.906  0.00  0.00    -0.082 C 
ATOM     10  C   UNL     1      -2.423  -4.739   6.636  0.00  0.00    -0.010 C 
ATOM     11  C   UNL     1      -3.960  -6.773   3.373  0.00  0.00    +0.247 C 
ATOM     12  O   UNL     1      -3.601  -6.654   2.218  0.00  0.00    -0.270 OA
ATOM     13  H   UNL     1      -2.914  -3.921   9.070  0.00  0.00    -0.086 HD
ATOM     14  H   UNL     1      -3.474  -5.315   9.743  0.00  0.00    -0.086 HD
ENDROOT
BRANCH  11  15
ATOM     15  C   UNL     1      -4.112  -8.118   3.965  0.00  0.00    +0.038 A 
ATOM     16  C   UNL     1      -4.914  -8.300   5.095  0.00  0.00    +0.016 A 
ATOM     17  C   UNL     1      -5.053  -9.556   5.643  0.00  0.00    +0.039 A 
ATOM     18  C   UNL     1      -4.399 -10.639   5.074  0.00  0.00    +0.135 A 
ATOM     19  C   UNL     1      -3.603 -10.465   3.954  0.00  0.00    +0.091 A 
ATOM     20  C   UNL     1      -3.461  -9.213   3.394  0.00  0.00    +0.028 A 
ATOM     21  F   UNL     1      -4.539 -11.869   5.616  0.00  0.00    -0.205 F 
BRANCH  19  22
ATOM     22  C   UNL     1      -2.895 -11.646   3.342  0.00  0.00    +0.420 C 
ATOM     23  F   UNL     1      -2.158 -11.224   2.230  0.00  0.00    -0.166 F 
ATOM     24  F   UNL     1      -2.031 -12.212   4.286  0.00  0.00    -0.166 F 
ATOM     25  F   UNL     1      -3.838 -12.599   2.942  0.00  0.00    -0.166 F 
ENDBRANCH  19  22
ENDBRANCH  11  15
BRANCH   1  27
ATOM     26  N   UNL     1      -1.491  -2.217   5.105  0.00  0.00    -0.311 N 
ATOM     27  C   UNL     1      -2.140  -3.251   4.534  0.00  0.00    +0.218 C 
ATOM     28  O   UNL     1      -1.546  -4.005   3.792  0.00  0.00    -0.275 OA
ATOM     29  H   UNL     1      -1.966  -1.614   5.698  0.00  0.00    +0.149 HD
BRANCH  26  30
ATOM     30  C   UNL     1      -0.068  -2.004   4.831  0.00  0.00    +0.139 C 
BRANCH  30  36
ATOM     31  C   UNL     1       1.498   0.110   9.088  0.00  0.00    +0.044 C 
ATOM     32  C   UNL     1       1.162   0.220   7.623  0.00  0.00    -0.047 A 
ATOM     33  C   UNL     1       1.295   1.432   6.972  0.00  0.00    +0.003 A 
ATOM     34  C   UNL     1       0.987   1.532   5.629  0.00  0.00    +0.001 A 
ATOM     35  C   UNL     1       0.546   0.420   4.936  0.00  0.00    +0.005 A 
ATOM     36  C   UNL     1       0.414  -0.792   5.586  0.00  0.00    -0.027 A 
ATOM     37  C   UNL     1       0.726  -0.893   6.929  0.00  0.00    -0.043 A 
ATOM     38  C   UNL     1       0.587  -2.216   7.638  0.00  0.00    +0.044 C 
ENDBRANCH  30  36
ENDBRANCH  26  30
ENDBRANCH   1  27
TORSDOF 5
