REMARK  Name = ZINC35266229
REMARK  11 active torsions:
REMARK  status: ('A' for Active; 'I' for Inactive)
REMARK    1  A    between atoms: C_1  and  C_2
REMARK    2  A    between atoms: N_5  and  C_8
REMARK    3  A    between atoms: C_11  and  N_21
REMARK    4  A    between atoms: C_13  and  C_14
REMARK    5  A    between atoms: N_16  and  C_17
REMARK    6  A    between atoms: C_17  and  C_18
REMARK    7  A    between atoms: C_18  and  O_19
REMARK    8  A    between atoms: O_19  and  C_20
REMARK    9  A    between atoms: C_22  and  C_24
REMARK   10  A    between atoms: C_25  and  C_26
REMARK   11  A    between atoms: C_29  and  N_32
REMARK                            x       y       z     vdW  Elec       q    Type
REMARK                         _______ _______ _______ _____ _____    ______ ____
ROOT
ATOM      1  C   UNL     1      -0.994  -3.488   1.877  0.00  0.00    +0.042 A 
ATOM      2  C   UNL     1      -0.971  -4.846   1.584  0.00  0.00    +0.026 A 
ATOM      3  C   UNL     1      -1.483  -5.757   2.484  0.00  0.00    +0.025 A 
ATOM      4  C   UNL     1      -2.024  -5.325   3.692  0.00  0.00    +0.034 A 
ATOM      5  C   UNL     1      -2.053  -3.977   3.999  0.00  0.00    +0.038 A 
ATOM      6  C   UNL     1      -1.533  -3.046   3.095  0.00  0.00    +0.059 A 
ENDROOT
BRANCH   1  11
ATOM      7  C   UNL     1       1.554  -1.837  -2.697  0.00  0.00    +0.007 C 
ATOM      8  C   UNL     1       0.824  -1.647  -1.366  0.00  0.00    -0.011 C 
ATOM      9  C   UNL     1       1.623  -2.317  -0.246  0.00  0.00    +0.022 C 
ATOM     10  C   UNL     1       0.907  -2.095   1.090  0.00  0.00    +0.105 C 
ATOM     11  N   UNL     1      -0.478  -2.570   0.969  0.00  0.00    -0.329 N 
ATOM     12  C   UNL     1      -1.307  -2.057  -0.130  0.00  0.00    +0.105 C 
ATOM     13  C   UNL     1      -0.567  -2.280  -1.452  0.00  0.00    +0.022 C 
ENDBRANCH   1  11
BRANCH   6  14
ATOM     14  C   UNL     1      -1.556  -1.608   3.417  0.00  0.00    +0.246 C 
ATOM     15  O   UNL     1      -1.193  -0.794   2.590  0.00  0.00    -0.270 OA
ATOM     16  N   UNL     1      -1.978  -1.195   4.628  0.00  0.00    -0.309 N 
ATOM     17  H   UNL     1      -2.268  -1.844   5.288  0.00  0.00    +0.149 HD
BRANCH  16  18
ATOM     18  C   UNL     1      -2.001   0.234   4.948  0.00  0.00    +0.132 C 
BRANCH  18  19
ATOM     19  C   UNL     1      -2.518   0.430   6.375  0.00  0.00    +0.178 C 
BRANCH  19  20
ATOM     20  O   UNL     1      -1.596  -0.150   7.300  0.00  0.00    -0.381 OA
ATOM     21  C   UNL     1      -1.987  -0.022   8.668  0.00  0.00    +0.194 C 
ENDBRANCH  19  20
ENDBRANCH  18  19
ENDBRANCH  16  18
ENDBRANCH   6  14
BRANCH   4  22
ATOM     22  N   UNL     1      -2.541  -6.259   4.599  0.00  0.00    -0.282 N 
ATOM     23  C   UNL     1      -1.960  -7.469   4.725  0.00  0.00    +0.241 C 
ATOM     24  O   UNL     1      -1.039  -7.781   3.994  0.00  0.00    -0.270 OA
ATOM     25  H   UNL     1      -3.317  -6.035   5.136  0.00  0.00    +0.155 HD
BRANCH  23  26
ATOM     26  C   UNL     1      -2.438  -8.408   5.742  0.00  0.00    +0.068 C 
ATOM     27  C   UNL     1      -1.857  -9.618   5.868  0.00  0.00    +0.013 C 
BRANCH  27  28
ATOM     28  C   UNL     1      -2.337 -10.562   6.891  0.00  0.00    -0.025 A 
ATOM     29  C   UNL     1      -3.400 -10.209   7.729  0.00  0.00    +0.010 A 
ATOM     30  C   UNL     1      -3.844 -11.098   8.684  0.00  0.00    +0.033 A 
ATOM     31  C   UNL     1      -3.241 -12.338   8.815  0.00  0.00    +0.126 A 
ATOM     32  C   UNL     1      -2.189 -12.694   7.989  0.00  0.00    +0.033 A 
ATOM     33  C   UNL     1      -1.738 -11.818   7.025  0.00  0.00    +0.010 A 
BRANCH  31  34
ATOM     34  N   UNL     1      -3.724 -13.287   9.843  0.00  0.00    +0.056 N 
ATOM     35  O   UNL     1      -4.643 -12.978  10.566  0.00  0.00    -0.126 OA
ATOM     36  O   UNL     1      -3.200 -14.370   9.960  0.00  0.00    -0.126 OA
ENDBRANCH  31  34
ENDBRANCH  27  28
ENDBRANCH  23  26
ENDBRANCH   4  22
TORSDOF 9
