REMARK  Name = ZINC00103469
REMARK  4 active torsions:
REMARK  status: ('A' for Active; 'I' for Inactive)
REMARK    1  A    between atoms: C_1  and  C_2
REMARK    2  A    between atoms: C_2  and  O_4
REMARK    3  A    between atoms: O_4  and  C_5
REMARK    4  A    between atoms: C_10  and  C_11
REMARK                            x       y       z     vdW  Elec       q    Type
REMARK                         _______ _______ _______ _____ _____    ______ ____
ROOT
ATOM      1  C   UNL     1      -0.072   5.344  -0.262  0.00  0.00    +0.194 C 
ATOM      2  N   UNL     1      -1.329   5.751  -0.917  0.00  0.00    -0.316 N 
ATOM      3  C   UNL     1      -1.361   5.677  -2.285  0.00  0.00    +0.080 A 
ATOM      4  C   UNL     1      -0.205   5.715  -3.079  0.00  0.00    +0.068 A 
ATOM      5  C   UNL     1      -0.420   5.641  -4.516  0.00  0.00    -0.023 A 
ATOM      6  C   UNL     1      -1.709   5.534  -4.909  0.00  0.00    -0.005 A 
ATOM      7  S   UNL     1      -2.648   5.534  -3.405  0.00  0.00    -0.078 S 
ATOM      8  C   UNL     1      -2.221   5.439  -6.313  0.00  0.00    +0.043 C 
ATOM      9  C   UNL     1      -1.094   5.856  -7.269  0.00  0.00    +0.005 C 
ATOM     10  C   UNL     1       0.190   5.123  -6.867  0.00  0.00    +0.005 C 
ATOM     11  C   UNL     1       0.709   5.677  -5.539  0.00  0.00    +0.037 C 
ATOM     12  C   UNL     1       1.098   5.838  -2.386  0.00  0.00    +0.248 C 
ATOM     13  O   UNL     1       2.133   5.999  -3.006  0.00  0.00    -0.270 OA
ATOM     14  N   UNL     1       1.090   5.763  -1.039  0.00  0.00    -0.289 N 
ATOM     15  H   UNL     1      -2.094   6.057  -0.405  0.00  0.00    +0.149 HD
ATOM     16  H   UNL     1       1.900   6.001  -0.561  0.00  0.00    +0.151 HD
ENDROOT
BRANCH   1  22
ATOM     17  C   UNL     1       1.153   3.172   0.007  0.00  0.00    +0.138 A 
ATOM     18  C   UNL     1       1.166   1.791   0.139  0.00  0.00    +0.047 A 
ATOM     19  C   UNL     1      -0.023   1.088   0.145  0.00  0.00    +0.004 A 
ATOM     20  C   UNL     1      -1.225   1.759   0.015  0.00  0.00    +0.001 A 
ATOM     21  C   UNL     1      -1.241   3.136  -0.111  0.00  0.00    +0.011 A 
ATOM     22  C   UNL     1      -0.054   3.844  -0.118  0.00  0.00    +0.033 A 
BRANCH  17  23
ATOM     23  O   UNL     1       2.322   3.867   0.001  0.00  0.00    -0.426 OA
BRANCH  23  25
ATOM     24  C   UNL     1       3.973   5.229   1.231  0.00  0.00    +0.136 C 
ATOM     25  C   UNL     1       2.749   4.352   1.177  0.00  0.00    +0.309 C 
ATOM     26  O   UNL     1       2.152   4.085   2.193  0.00  0.00    -0.251 OA
ENDBRANCH  23  25
ENDBRANCH  17  23
ENDBRANCH   1  22
TORSDOF 3
