REMARK  Name = ZINC37409640
REMARK  5 active torsions:
REMARK  status: ('A' for Active; 'I' for Inactive)
REMARK    1  A    between atoms: C_1  and  C_2
REMARK    2  A    between atoms: C_2  and  C_3
REMARK    3  A    between atoms: C_6  and  C_9
REMARK    4  A    between atoms: C_11  and  C_14
REMARK    5  A    between atoms: C_15  and  C_20
REMARK                            x       y       z     vdW  Elec       q    Type
REMARK                         _______ _______ _______ _____ _____    ______ ____
ROOT
ATOM      1  C   UNL     1       2.788  -1.913   4.668  0.00  0.00    +0.202 A 
ATOM      2  N   UNL     1       2.225  -2.198   5.856  0.00  0.00    -0.190 NA
ATOM      3  C   UNL     1       3.134  -2.607   6.694  0.00  0.00    +0.245 A 
ATOM      4  O   UNL     1       4.320  -2.598   6.071  0.00  0.00    -0.336 OA
ATOM      5  N   UNL     1       4.074  -2.146   4.748  0.00  0.00    -0.056 NA
ENDROOT
BRANCH   3   6
ATOM      6  C   UNL     1       2.893  -3.019   8.123  0.00  0.00    +0.167 C 
ATOM      7  C   UNL     1       2.959  -4.525   8.273  0.00  0.00    -0.048 C 
ATOM      8  C   UNL     1       3.884  -5.008   9.050  0.00  0.00    +0.034 C 
ATOM      9  C   UNL     1       4.816  -4.098   9.744  0.00  0.00    +0.089 C 
ATOM     10  S   UNL     1       4.279  -2.481   9.207  0.00  0.00    -0.089 S 
ATOM     11  N   UNL     1       5.795  -4.401  10.553  0.00  0.00    -0.293 NA
ATOM     12  C   UNL     1       1.993  -5.428   7.550  0.00  0.00    +0.041 C 
ATOM     13  H   UNL     1       6.336  -3.697  10.945  0.00  0.00    +0.187 HD
ENDBRANCH   3   6
BRANCH   1  17
ATOM     14  C   UNL     1       0.731  -0.503   1.223  0.00  0.00    -0.048 A 
ATOM     15  C   UNL     1       2.098  -0.709   1.173  0.00  0.00    +0.004 A 
ATOM     16  C   UNL     1       2.770  -1.166   2.289  0.00  0.00    +0.012 A 
ATOM     17  C   UNL     1       2.070  -1.420   3.466  0.00  0.00    +0.022 A 
ATOM     18  C   UNL     1       0.693  -1.212   3.510  0.00  0.00    +0.012 A 
ATOM     19  C   UNL     1       0.031  -0.749   2.391  0.00  0.00    +0.004 A 
BRANCH  14  21
ATOM     20  C   UNL     1      -0.019   1.526   0.010  0.00  0.00    +0.009 C 
ATOM     21  C   UNL     1       0.002  -0.004   0.002  0.00  0.00    +0.032 C 
ENDBRANCH  14  21
ENDBRANCH   1  17
TORSDOF 3
