REMARK  Name = ZINC59040032
REMARK  10 active torsions:
REMARK  status: ('A' for Active; 'I' for Inactive)
REMARK    1  A    between atoms: C_1  and  O_2
REMARK    2  A    between atoms: O_2  and  C_3
REMARK    3  A    between atoms: C_5  and  C_13
REMARK    4  A    between atoms: C_6  and  N_10
REMARK    5  A    between atoms: C_8  and  O_9
REMARK    6  A    between atoms: N_14  and  N_15
REMARK    7  A    between atoms: C_18  and  S_21
REMARK    8  A    between atoms: S_21  and  C_22
REMARK    9  A    between atoms: C_22  and  C_23
REMARK   10  A    between atoms: N_25  and  C_26
REMARK                            x       y       z     vdW  Elec       q    Type
REMARK                         _______ _______ _______ _____ _____    ______ ____
ROOT
ATOM      1  N   UNL     1       3.859   0.705  -5.836  0.00  0.00    -0.205 N 
ATOM      2  C   UNL     1       4.456   0.158  -6.917  0.00  0.00    +0.232 A 
ATOM      3  N   UNL     1       4.759  -1.126  -7.086  0.00  0.00    -0.186 NA
ATOM      4  C   UNL     1       5.333  -1.246  -8.278  0.00  0.00    +0.211 A 
ATOM      5  N   UNL     1       5.385  -0.042  -8.847  0.00  0.00    -0.144 NA
ATOM      6  N   UNL     1       4.857   0.820  -8.047  0.00  0.00    -0.245 N 
ATOM      7  H   UNL     1       3.677   1.658  -5.813  0.00  0.00    +0.177 HD
ATOM      8  H   UNL     1       4.763   1.771  -8.214  0.00  0.00    +0.192 HD
ENDROOT
BRANCH   1  10
ATOM      9  C   UNL     1       2.944   0.501  -3.770  0.00  0.00    +0.140 C 
ATOM     10  N   UNL     1       3.532  -0.038  -4.834  0.00  0.00    -0.187 NA
BRANCH   9  13
ATOM     11  C   UNL     1       1.728  -0.519  -0.445  0.00  0.00    +0.162 A 
ATOM     12  C   UNL     1       2.072   0.274  -1.500  0.00  0.00    +0.061 A 
ATOM     13  C   UNL     1       2.587  -0.310  -2.678  0.00  0.00    +0.028 A 
ATOM     14  C   UNL     1       2.742  -1.716  -2.756  0.00  0.00    +0.138 A 
ATOM     15  C   UNL     1       2.394  -2.496  -1.697  0.00  0.00    +0.082 A 
ATOM     16  C   UNL     1       1.890  -1.914  -0.529  0.00  0.00    +0.161 A 
BRANCH  14  17
ATOM     17  N   UNL     1       3.280  -2.336  -3.988  0.00  0.00    +0.057 N 
ATOM     18  O   UNL     1       2.718  -2.084  -5.152  0.00  0.00    -0.126 OA
ATOM     19  O   UNL     1       4.322  -3.140  -3.920  0.00  0.00    -0.126 OA
ENDBRANCH  14  17
BRANCH  11  21
ATOM     20  C   UNL     1       1.094   1.461   0.707  0.00  0.00    +0.277 C 
ATOM     21  O   UNL     1       1.232   0.039   0.690  0.00  0.00    -0.491 OA
ENDBRANCH  11  21
BRANCH  16  22
ATOM     22  O   UNL     1       1.552  -2.696   0.521  0.00  0.00    -0.503 OA
ATOM     23  H   UNL     1       0.634  -2.999   0.507  0.00  0.00    +0.292 HD
ENDBRANCH  16  22
ENDBRANCH   9  13
ENDBRANCH   1  10
BRANCH   4  24
ATOM     24  S   UNL     1       5.925  -2.746  -8.989  0.00  0.00    -0.075 S 
BRANCH  24  25
ATOM     25  C   UNL     1       6.583  -2.239 -10.601  0.00  0.00    +0.173 C 
BRANCH  25  26
ATOM     26  C   UNL     1       7.129  -3.444 -11.323  0.00  0.00    +0.227 C 
ATOM     27  O   UNL     1       7.079  -4.537 -10.801  0.00  0.00    -0.275 OA
ATOM     28  N   UNL     1       7.672  -3.306 -12.549  0.00  0.00    -0.285 N 
ATOM     29  H   UNL     1       7.780  -2.423 -12.935  0.00  0.00    +0.155 HD
BRANCH  28  30
ATOM     30  C   UNL     1       8.081  -4.438 -13.264  0.00  0.00    +0.035 A 
ATOM     31  C   UNL     1       9.182  -4.367 -14.107  0.00  0.00    +0.026 A 
ATOM     32  C   UNL     1       9.584  -5.485 -14.812  0.00  0.00    +0.041 A 
ATOM     33  C   UNL     1       8.890  -6.675 -14.680  0.00  0.00    +0.142 A 
ATOM     34  C   UNL     1       7.790  -6.748 -13.840  0.00  0.00    +0.078 A 
ATOM     35  C   UNL     1       7.389  -5.633 -13.128  0.00  0.00    +0.046 A 
ATOM     36 CL   UNL     1       6.922  -8.242 -13.676  0.00  0.00    -0.081 Cl
ATOM     37  F   UNL     1       9.284  -7.767 -15.371  0.00  0.00    -0.204 F 
ENDBRANCH  28  30
ENDBRANCH  25  26
ENDBRANCH  24  25
ENDBRANCH   4  24
TORSDOF 9
