REMARK  Name = ZINC67558719
REMARK  6 active torsions:
REMARK  status: ('A' for Active; 'I' for Inactive)
REMARK    1  A    between atoms: C_3  and  C_16
REMARK    2  A    between atoms: C_5  and  N_7
REMARK    3  A    between atoms: C_8  and  C_10
REMARK    4  A    between atoms: C_16  and  N_17
REMARK    5  A    between atoms: N_20  and  C_21
REMARK    6  A    between atoms: C_24  and  C_28
REMARK                            x       y       z     vdW  Elec       q    Type
REMARK                         _______ _______ _______ _____ _____    ______ ____
ROOT
ATOM      1  C   UNL     1       2.514   2.907  -1.331  0.00  0.00    +0.141 C 
ENDROOT
BRANCH   1   4
ATOM      2  C   UNL     1      -0.433   0.634  -0.690  0.00  0.00    +0.002 A 
ATOM      3  C   UNL     1       0.320   1.740  -1.040  0.00  0.00    +0.005 A 
ATOM      4  C   UNL     1       1.699   1.699  -0.948  0.00  0.00    -0.029 A 
ATOM      5  C   UNL     1       2.329   0.552  -0.508  0.00  0.00    +0.028 A 
ATOM      6  C   UNL     1       1.577  -0.561  -0.156  0.00  0.00    +0.034 A 
ATOM      7  C   UNL     1       0.192  -0.516  -0.249  0.00  0.00    +0.023 A 
BRANCH   6   8
ATOM      8  N   UNL     1       2.213  -1.724   0.290  0.00  0.00    -0.283 N 
ATOM      9  C   UNL     1       3.350  -1.638   1.009  0.00  0.00    +0.246 C 
ATOM     10  O   UNL     1       3.773  -0.552   1.345  0.00  0.00    -0.273 OA
ATOM     11  H   UNL     1       1.835  -2.593   0.083  0.00  0.00    +0.155 HD
BRANCH   9  12
ATOM     12  C   UNL     1       4.095  -2.890   1.394  0.00  0.00    +0.204 C 
ATOM     13  C   UNL     1       3.235  -3.736   2.358  0.00  0.00    +0.043 C 
ATOM     14  C   UNL     1       4.292  -4.264   3.365  0.00  0.00    +0.031 C 
ATOM     15  C   UNL     1       5.271  -3.065   3.420  0.00  0.00    +0.161 C 
ATOM     16  O   UNL     1       5.304  -2.544   2.080  0.00  0.00    -0.367 OA
ENDBRANCH   9  12
ENDBRANCH   6   8
ENDBRANCH   1   4
BRANCH   1  17
ATOM     17  N   UNL     1       2.707   3.759  -0.154  0.00  0.00    -0.295 N 
ATOM     18  C   UNL     1       3.411   4.903  -0.259  0.00  0.00    +0.304 C 
ATOM     19  O   UNL     1       3.887   5.229  -1.329  0.00  0.00    -0.252 OA
ATOM     20  N   UNL     1       3.588   5.687   0.824  0.00  0.00    -0.269 N 
ATOM     21  H   UNL     1       2.327   3.499   0.700  0.00  0.00    +0.151 HD
ATOM     22  H   UNL     1       3.275   5.391   1.693  0.00  0.00    +0.156 HD
BRANCH  20  23
ATOM     23  C   UNL     1       4.221   6.923   0.694  0.00  0.00    +0.036 A 
ATOM     24  C   UNL     1       4.052   7.671  -0.467  0.00  0.00    +0.025 A 
ATOM     25  C   UNL     1       4.675   8.892  -0.600  0.00  0.00    +0.022 A 
ATOM     26  C   UNL     1       5.479   9.380   0.434  0.00  0.00    +0.070 A 
ATOM     27  C   UNL     1       5.647   8.626   1.601  0.00  0.00    +0.060 A 
ATOM     28  C   UNL     1       5.016   7.407   1.727  0.00  0.00    +0.044 A 
ATOM     29 CL   UNL     1       6.644   9.227   2.888  0.00  0.00    -0.082 Cl
BRANCH  26  30
ATOM     30  C   UNL     1       6.129  10.649   0.300  0.00  0.00    +0.101 C 
ATOM     31  N   UNL     1       6.644  11.656   0.194  0.00  0.00    -0.191 NA
ENDBRANCH  26  30
ENDBRANCH  20  23
ENDBRANCH   1  17
TORSDOF 6
