REMARK  Name = ZINC39696297
REMARK  7 active torsions:
REMARK  status: ('A' for Active; 'I' for Inactive)
REMARK    1  A    between atoms: C_1  and  C_2
REMARK    2  A    between atoms: C_2  and  C_3
REMARK    3  A    between atoms: C_6  and  C_9
REMARK    4  A    between atoms: C_9  and  C_11
REMARK    5  A    between atoms: C_9  and  N_12
REMARK    6  A    between atoms: C_13  and  C_15
REMARK    7  A    between atoms: C_26  and  C_28
REMARK                            x       y       z     vdW  Elec       q    Type
REMARK                         _______ _______ _______ _____ _____    ______ ____
ROOT
ATOM      1  C   UNL     1       2.463  -0.469   8.198  0.00  0.00    +0.100 C 
ATOM      2  C   UNL     1       1.187  -1.186   8.693  0.00  0.00    +0.121 C 
ATOM      3  N   UNL     1       1.667  -2.135   9.725  0.00  0.00    -0.295 N 
ATOM      4  C   UNL     1       2.718  -1.386  10.454  0.00  0.00    +0.115 C 
ATOM      5  C   UNL     1       3.464  -0.599   9.358  0.00  0.00    -0.004 C 
ATOM      6  C   UNL     1       3.857   0.782   9.875  0.00  0.00    -0.010 C 
ATOM      7  C   UNL     1       4.897   0.628  10.988  0.00  0.00    -0.082 C 
ATOM      8  N   UNL     1       6.075  -0.075  10.467  0.00  0.00    +0.379 N 
ATOM      9  C   UNL     1       5.706  -1.436  10.058  0.00  0.00    -0.082 C 
ATOM     10  C   UNL     1       4.700  -1.370   8.905  0.00  0.00    -0.010 C 
ATOM     11  C   UNL     1       1.243  -3.395   9.949  0.00  0.00    +0.265 C 
ATOM     12  O   UNL     1       0.438  -3.908   9.198  0.00  0.00    -0.268 OA
ATOM     13  H   UNL     1       6.439   0.427   9.671  0.00  0.00    -0.086 HD
ATOM     14  H   UNL     1       6.783  -0.121  11.184  0.00  0.00    -0.086 HD
ENDROOT
BRANCH  11  15
ATOM     15  C   UNL     1       1.761  -4.155  11.113  0.00  0.00    +0.126 A 
ATOM     16  C   UNL     1       1.401  -5.502  11.266  0.00  0.00    +0.033 A 
ATOM     17  C   UNL     1       1.871  -6.213  12.333  0.00  0.00    +0.012 A 
ATOM     18  C   UNL     1       2.712  -5.557  13.252  0.00  0.00    +0.000 A 
ATOM     19  C   UNL     1       3.232  -6.226  14.371  0.00  0.00    +0.010 A 
ATOM     20  C   UNL     1       4.041  -5.560  15.239  0.00  0.00    +0.001 A 
ATOM     21  C   UNL     1       4.363  -4.219  15.033  0.00  0.00    +0.002 A 
ATOM     22  C   UNL     1       3.878  -3.538  13.960  0.00  0.00    +0.028 A 
ATOM     23  C   UNL     1       3.037  -4.192  13.039  0.00  0.00    +0.072 A 
ATOM     24  N   UNL     1       2.553  -3.550  11.977  0.00  0.00    -0.242 NA
ENDBRANCH  11  15
BRANCH   1  26
ATOM     25  N   UNL     1       3.663  -0.427   6.036  0.00  0.00    -0.308 N 
ATOM     26  C   UNL     1       3.000  -1.145   6.963  0.00  0.00    +0.219 C 
ATOM     27  O   UNL     1       2.835  -2.336   6.804  0.00  0.00    -0.275 OA
ATOM     28  H   UNL     1       3.795   0.526   6.163  0.00  0.00    +0.149 HD
BRANCH  25  29
ATOM     29  C   UNL     1       4.185  -1.085   4.836  0.00  0.00    +0.100 C 
ATOM     30  C   UNL     1       3.084  -1.161   3.776  0.00  0.00    +0.033 C 
BRANCH  29  34
ATOM     31  C   UNL     1       7.481   1.158   3.301  0.00  0.00    -0.048 A 
ATOM     32  C   UNL     1       7.527  -0.223   3.305  0.00  0.00    +0.004 A 
ATOM     33  C   UNL     1       6.461  -0.949   3.802  0.00  0.00    +0.006 A 
ATOM     34  C   UNL     1       5.348  -0.293   4.295  0.00  0.00    -0.027 A 
ATOM     35  C   UNL     1       5.303   1.088   4.292  0.00  0.00    +0.006 A 
ATOM     36  C   UNL     1       6.371   1.814   3.799  0.00  0.00    +0.004 A 
BRANCH  31  38
ATOM     37  C   UNL     1       9.636   2.235   3.889  0.00  0.00    +0.009 C 
ATOM     38  C   UNL     1       8.644   1.949   2.760  0.00  0.00    +0.032 C 
ENDBRANCH  31  38
ENDBRANCH  29  34
ENDBRANCH  25  29
ENDBRANCH   1  26
TORSDOF 5
