REMARK  Name = ZINC57898337
REMARK  8 active torsions:
REMARK  status: ('A' for Active; 'I' for Inactive)
REMARK    1  A    between atoms: C_1  and  C_2
REMARK    2  A    between atoms: C_7  and  C_9
REMARK    3  A    between atoms: C_7  and  C_10
REMARK    4  A    between atoms: C_13  and  C_15
REMARK    5  A    between atoms: C_16  and  C_17
REMARK    6  A    between atoms: C_20  and  O_24
REMARK    7  A    between atoms: C_21  and  N_23
REMARK    8  A    between atoms: O_24  and  C_25
REMARK                            x       y       z     vdW  Elec       q    Type
REMARK                         _______ _______ _______ _____ _____    ______ ____
ROOT
ATOM      1  C   UNL     1      -0.054   1.606  -0.033  0.00  0.00    +0.013 C 
ATOM      2  C   UNL     1      -0.020   0.114  -0.399  0.00  0.00    -0.014 C 
ATOM      3  C   UNL     1       0.385  -0.121  -1.881  0.00  0.00    +0.030 C 
ATOM      4  C   UNL     1      -0.137  -1.569  -2.063  0.00  0.00    +0.077 C 
ATOM      5  C   UNL     1       0.845  -2.496  -1.351  0.00  0.00    +0.029 C 
ATOM      6  C   UNL     1       1.062  -2.154   0.112  0.00  0.00    -0.033 C 
ATOM      7  C   UNL     1       0.950  -0.684   0.470  0.00  0.00    +0.014 C 
ATOM      8  C   UNL     1       2.498  -2.605   0.477  0.00  0.00    +0.011 C 
ATOM      9  C   UNL     1       0.112  -2.985   0.987  0.00  0.00    +0.011 C 
ATOM     10  N   UNL     1      -1.432  -1.597  -1.355  0.00  0.00    -0.294 N 
ATOM     11  C   UNL     1      -1.419  -0.539  -0.334  0.00  0.00    +0.115 C 
ATOM     12  C   UNL     1      -2.455  -2.438  -1.608  0.00  0.00    +0.240 C 
ATOM     13  O   UNL     1      -2.355  -3.271  -2.490  0.00  0.00    -0.271 OA
ENDROOT
BRANCH  12  14
ATOM     14  C   UNL     1      -3.685  -2.350  -0.821  0.00  0.00    +0.068 C 
ATOM     15  C   UNL     1      -4.655  -3.275  -0.979  0.00  0.00    +0.013 C 
BRANCH  15  16
ATOM     16  C   UNL     1      -4.384  -4.501  -1.743  0.00  0.00    -0.023 A 
ATOM     17  C   UNL     1      -3.213  -5.230  -1.507  0.00  0.00    +0.011 A 
ATOM     18  C   UNL     1      -2.960  -6.380  -2.224  0.00  0.00    +0.048 A 
ATOM     19  C   UNL     1      -3.865  -6.819  -3.181  0.00  0.00    +0.141 A 
ATOM     20  C   UNL     1      -5.036  -6.098  -3.422  0.00  0.00    +0.067 A 
ATOM     21  C   UNL     1      -5.299  -4.946  -2.704  0.00  0.00    +0.034 A 
BRANCH  20  22
ATOM     22  N   UNL     1      -5.945  -6.544  -4.388  0.00  0.00    -0.355 N 
ATOM     23  H   UNL     1      -5.762  -7.354  -4.890  0.00  0.00    +0.142 HD
ATOM     24  H   UNL     1      -6.759  -6.043  -4.556  0.00  0.00    +0.142 HD
ENDBRANCH  20  22
BRANCH  19  25
ATOM     25  O   UNL     1      -3.610  -7.953  -3.884  0.00  0.00    -0.493 OA
ATOM     26  C   UNL     1      -2.394  -8.641  -3.587  0.00  0.00    +0.277 C 
ENDBRANCH  19  25
ENDBRANCH  15  16
ENDBRANCH  12  14
TORSDOF 4
