REMARK  Name = ZINC61812346
REMARK  6 active torsions:
REMARK  status: ('A' for Active; 'I' for Inactive)
REMARK    1  A    between atoms: C_1  and  C_2
REMARK    2  A    between atoms: C_2  and  C_4
REMARK    3  A    between atoms: C_2  and  N_12
REMARK    4  A    between atoms: N_12  and  C_13
REMARK    5  A    between atoms: C_17  and  C_19
REMARK    6  A    between atoms: C_19  and  N_21
REMARK                            x       y       z     vdW  Elec       q    Type
REMARK                         _______ _______ _______ _____ _____    ______ ____
ROOT
ATOM      1  N   UNL     1      -1.372  -0.511   0.012  0.00  0.00    -0.337 N 
ATOM      2  H   UNL     1      -1.810  -0.743  -0.822  0.00  0.00    +0.147 HD
ENDROOT
BRANCH   1   3
ATOM      3  C   UNL     1      -2.050  -0.660   1.219  0.00  0.00    +0.031 A 
ATOM      4  C   UNL     1      -1.440  -0.326   2.428  0.00  0.00    +0.040 A 
ATOM      5  C   UNL     1      -2.142  -0.486   3.607  0.00  0.00    +0.085 A 
ATOM      6  N   UNL     1      -3.375  -0.949   3.604  0.00  0.00    -0.359 N 
ATOM      7  C   UNL     1      -3.997  -1.280   2.478  0.00  0.00    +0.069 A 
ATOM      8  C   UNL     1      -3.358  -1.141   1.249  0.00  0.00    +0.051 A 
ATOM      9  H   UNL     1      -3.842  -1.051   4.449  0.00  0.00    +0.165 HD
BRANCH   7  10
ATOM     10  C   UNL     1      -5.382  -1.796   2.529  0.00  0.00    +0.093 C 
ATOM     11  S   UNL     1      -6.487  -1.408   1.281  0.00  0.00    -0.034 S 
BRANCH  10  12
ATOM     12  N   UNL     1      -5.774  -2.571   3.559  0.00  0.00    -0.351 N 
ATOM     13  H   UNL     1      -5.148  -2.791   4.267  0.00  0.00    +0.143 HD
ATOM     14  H   UNL     1      -6.683  -2.910   3.593  0.00  0.00    +0.143 HD
ENDBRANCH  10  12
ENDBRANCH   7  10
ENDBRANCH   1   3
BRANCH   1  16
ATOM     15  C   UNL     1      -0.019   1.526   0.010  0.00  0.00    +0.033 C 
ATOM     16  C   UNL     1       0.002  -0.004   0.002  0.00  0.00    +0.099 C 
BRANCH  16  17
ATOM     17  C   UNL     1       0.707  -0.490  -1.238  0.00  0.00    -0.009 A 
ATOM     18  C   UNL     1      -0.023  -0.817  -2.365  0.00  0.00    +0.008 A 
ATOM     19  C   UNL     1       0.623  -1.263  -3.502  0.00  0.00    +0.020 A 
ATOM     20  C   UNL     1       2.002  -1.382  -3.514  0.00  0.00    +0.042 A 
ATOM     21  C   UNL     1       2.733  -1.054  -2.386  0.00  0.00    +0.040 A 
ATOM     22  C   UNL     1       2.086  -0.603  -1.250  0.00  0.00    +0.047 A 
ATOM     23 CL   UNL     1       3.004  -0.186   0.164  0.00  0.00    -0.083 Cl
ATOM     24 CL   UNL     1       2.813  -1.942  -4.942  0.00  0.00    -0.083 Cl
ENDBRANCH  16  17
ENDBRANCH   1  16
TORSDOF 5
