REMARK  Name = ZINC20266729
REMARK  3 active torsions:
REMARK  status: ('A' for Active; 'I' for Inactive)
REMARK    1  A    between atoms: C_2  and  C_3
REMARK    2  A    between atoms: C_3  and  N_4
REMARK    3  A    between atoms: C_7  and  N_14
REMARK                            x       y       z     vdW  Elec       q    Type
REMARK                         _______ _______ _______ _____ _____    ______ ____
ROOT
ATOM      1  N   UNL     1      -1.318  -1.700  -1.126  0.00  0.00    -0.270 N 
ATOM      2  C   UNL     1      -1.814  -1.427  -2.400  0.00  0.00    +0.092 A 
ATOM      3  C   UNL     1      -2.384  -0.303  -2.977  0.00  0.00    +0.052 A 
ATOM      4  C   UNL     1      -2.783  -0.338  -4.306  0.00  0.00    +0.027 A 
ATOM      5  C   UNL     1      -2.607  -1.496  -5.055  0.00  0.00    +0.026 A 
ATOM      6  C   UNL     1      -2.035  -2.614  -4.482  0.00  0.00    +0.050 A 
ATOM      7  C   UNL     1      -1.634  -2.586  -3.155  0.00  0.00    +0.157 A 
ATOM      8  O   UNL     1      -1.057  -3.508  -2.345  0.00  0.00    -0.407 OA
ATOM      9  C   UNL     1      -0.870  -2.971  -1.129  0.00  0.00    +0.422 A 
ATOM     10  O   UNL     1      -0.373  -3.543  -0.178  0.00  0.00    -0.223 OA
ENDROOT
BRANCH   4  11
ATOM     11  N   UNL     1      -3.364   0.791  -4.891  0.00  0.00    -0.358 N 
ATOM     12  H   UNL     1      -3.681   0.764  -5.944  0.00  0.00    +0.142 HD
ATOM     13  H   UNL     1      -3.504   1.707  -4.298  0.00  0.00    +0.142 HD
ENDBRANCH   4  11
BRANCH   1  14
ATOM     14  C   UNL     1      -1.293  -0.775   0.010  0.00  0.00    +0.155 C 
BRANCH  14  16
ATOM     15  C   UNL     1      -0.016   1.306   0.009  0.00  0.00    +0.005 C 
ATOM     16  C   UNL     1       0.002  -0.004   0.002  0.00  0.00    -0.013 C 
ENDBRANCH  14  16
ENDBRANCH   1  14
TORSDOF 3
