REMARK  Name = ZINC39920668
REMARK  6 active torsions:
REMARK  status: ('A' for Active; 'I' for Inactive)
REMARK    1  A    between atoms: C_1  and  C_2
REMARK    2  A    between atoms: C_2  and  C_4
REMARK    3  A    between atoms: C_2  and  O_25
REMARK    4  A    between atoms: N_6  and  N_7
REMARK    5  A    between atoms: C_8  and  C_20
REMARK    6  A    between atoms: O_25  and  C_26
REMARK                            x       y       z     vdW  Elec       q    Type
REMARK                         _______ _______ _______ _____ _____    ______ ____
ROOT
ATOM      1  N   UNL     1       0.984  -1.126  -3.560  0.00  0.00    -0.188 N 
ATOM      2  C   UNL     1       1.570  -0.150  -4.479  0.00  0.00    +0.247 C 
ATOM      3  N   UNL     1       2.839  -0.654  -5.016  0.00  0.00    -0.318 N 
ATOM      4  C   UNL     1       2.913  -1.982  -5.424  0.00  0.00    +0.041 A 
ATOM      5  C   UNL     1       3.779  -2.389  -6.425  0.00  0.00    +0.025 A 
ATOM      6  C   UNL     1       3.825  -3.721  -6.789  0.00  0.00    +0.017 A 
ATOM      7  C   UNL     1       3.012  -4.652  -6.160  0.00  0.00    +0.019 A 
ATOM      8  C   UNL     1       2.141  -4.262  -5.164  0.00  0.00    +0.030 A 
ATOM      9  C   UNL     1       2.081  -2.921  -4.790  0.00  0.00    +0.060 A 
ATOM     10  C   UNL     1       1.154  -2.450  -3.747  0.00  0.00    +0.267 C 
ATOM     11  O   UNL     1       0.544  -3.249  -3.063  0.00  0.00    -0.268 OA
ATOM     12 BR   UNL     1       3.098  -6.471  -6.672  0.00  0.00    -0.050 Br
ATOM     13  H   UNL     1       3.612  -0.073  -5.085  0.00  0.00    +0.148 HD
ENDROOT
BRANCH   2  14
ATOM     14  C   UNL     1       0.615   0.100  -5.617  0.00  0.00    +0.145 A 
ATOM     15  C   UNL     1       0.959   0.433  -6.874  0.00  0.00    +0.048 A 
ATOM     16  C   UNL     1      -0.243   0.570  -7.605  0.00  0.00    +0.041 A 
ATOM     17  C   UNL     1      -1.250   0.312  -6.752  0.00  0.00    +0.195 A 
ATOM     18  O   UNL     1      -0.724   0.023  -5.550  0.00  0.00    -0.464 OA
ENDBRANCH   2  14
BRANCH   1  21
ATOM     19  C   UNL     1       0.769  -0.714  -1.225  0.00  0.00    +0.270 C 
ATOM     20  O   UNL     1       1.893  -1.137  -1.061  0.00  0.00    -0.270 OA
ATOM     21  N   UNL     1       0.237  -0.676  -2.463  0.00  0.00    -0.226 N 
ATOM     22  H   UNL     1      -0.662  -0.338  -2.594  0.00  0.00    +0.173 HD
BRANCH  19  24
ATOM     23  C   UNL     1      -0.293   1.271  -0.185  0.00  0.00    +0.062 C 
ATOM     24  C   UNL     1      -0.034  -0.230  -0.045  0.00  0.00    +0.257 C 
BRANCH  24  25
ATOM     25  O   UNL     1       0.693  -0.477   1.160  0.00  0.00    -0.479 OA
BRANCH  25  26
ATOM     26  C   UNL     1      -0.030  -0.600   2.303  0.00  0.00    +0.129 A 
ATOM     27  C   UNL     1      -1.378  -0.375   2.291  0.00  0.00    +0.046 A 
ATOM     28  C   UNL     1      -2.134  -0.496   3.454  0.00  0.00    +0.004 A 
ATOM     29  C   UNL     1      -1.553  -0.842   4.636  0.00  0.00    +0.009 A 
ATOM     30  C   UNL     1      -0.169  -1.082   4.690  0.00  0.00    -0.014 A 
ATOM     31  C   UNL     1       0.603  -0.965   3.508  0.00  0.00    +0.024 A 
ATOM     32  C   UNL     1       1.985  -1.209   3.561  0.00  0.00    +0.012 A 
ATOM     33  C   UNL     1       2.563  -1.559   4.742  0.00  0.00    +0.001 A 
ATOM     34  C   UNL     1       1.803  -1.680   5.904  0.00  0.00    +0.001 A 
ATOM     35  C   UNL     1       0.463  -1.440   5.893  0.00  0.00    +0.008 A 
ENDBRANCH  25  26
ENDBRANCH  24  25
ENDBRANCH  19  24
ENDBRANCH   1  21
TORSDOF 5
