REMARK  Name = ZINC58983016
REMARK  6 active torsions:
REMARK  status: ('A' for Active; 'I' for Inactive)
REMARK    1  A    between atoms: C_1  and  C_2
REMARK    2  A    between atoms: C_3  and  C_14
REMARK    3  A    between atoms: C_5  and  C_7
REMARK    4  A    between atoms: N_16  and  C_17
REMARK    5  A    between atoms: C_21  and  C_23
REMARK    6  A    between atoms: C_23  and  C_30
REMARK                            x       y       z     vdW  Elec       q    Type
REMARK                         _______ _______ _______ _____ _____    ______ ____
ROOT
ATOM      1  C   UNL     1      -0.009  -0.258  -2.570  0.00  0.00    +0.257 C 
ATOM      2  O   UNL     1      -0.036   0.936  -2.806  0.00  0.00    -0.269 OA
ATOM      3  N   UNL     1      -0.001  -1.145  -3.584  0.00  0.00    -0.281 N 
ATOM      4  H   UNL     1       0.088  -2.093  -3.398  0.00  0.00    +0.155 HD
ENDROOT
BRANCH   1   7
ATOM      5  C   UNL     1      -0.021   1.502   0.011  0.00  0.00    +0.067 C 
ATOM      6  C   UNL     1       0.009  -0.004   0.002  0.00  0.00    +0.058 A 
ATOM      7  C   UNL     1       0.013  -0.730  -1.183  0.00  0.00    +0.097 A 
ATOM      8  S   UNL     1       0.052  -2.398  -0.546  0.00  0.00    -0.062 S 
ATOM      9  C   UNL     1       0.059  -2.022   1.094  0.00  0.00    +0.109 A 
ATOM     10  N   UNL     1       0.038  -0.699   1.109  0.00  0.00    -0.243 NA
BRANCH   9  11
ATOM     11  C   UNL     1       0.087  -2.948   2.244  0.00  0.00    +0.007 A 
ATOM     12  C   UNL     1       0.083  -2.447   3.548  0.00  0.00    +0.013 A 
ATOM     13  C   UNL     1       0.109  -3.316   4.618  0.00  0.00    +0.039 A 
ATOM     14  C   UNL     1       0.141  -4.685   4.402  0.00  0.00    +0.123 A 
ATOM     15  C   UNL     1       0.146  -5.188   3.110  0.00  0.00    +0.039 A 
ATOM     16  C   UNL     1       0.114  -4.328   2.033  0.00  0.00    +0.013 A 
ATOM     17  F   UNL     1       0.168  -5.532   5.454  0.00  0.00    -0.205 F 
ENDBRANCH   9  11
ENDBRANCH   1   7
BRANCH   3  18
ATOM     18  C   UNL     1      -0.120  -0.700  -4.904  0.00  0.00    +0.034 A 
ATOM     19  C   UNL     1       0.458   0.504  -5.287  0.00  0.00    +0.023 A 
ATOM     20  C   UNL     1       0.338   0.942  -6.591  0.00  0.00    +0.002 A 
ATOM     21  C   UNL     1      -0.355   0.182  -7.516  0.00  0.00    +0.006 A 
ATOM     22  C   UNL     1      -0.931  -1.017  -7.138  0.00  0.00    -0.014 A 
ATOM     23  C   UNL     1      -0.810  -1.463  -5.837  0.00  0.00    +0.029 A 
BRANCH  22  24
ATOM     24  C   UNL     1      -1.685  -1.841  -8.149  0.00  0.00    +0.135 C 
ATOM     25  C   UNL     1      -0.971  -3.153  -8.408  0.00  0.00    +0.248 C 
ATOM     26  O   UNL     1      -0.740  -4.032  -7.605  0.00  0.00    -0.273 OA
ATOM     27  N   UNL     1      -0.646  -3.140  -9.716  0.00  0.00    -0.238 N 
ATOM     28  C   UNL     1      -1.052  -2.014 -10.314  0.00  0.00    +0.307 C 
ATOM     29  O   UNL     1      -0.875  -1.773 -11.491  0.00  0.00    -0.252 OA
ATOM     30  N   UNL     1      -1.680  -1.179  -9.466  0.00  0.00    -0.282 N 
ATOM     31  C   UNL     1      -3.119  -2.089  -7.677  0.00  0.00    +0.047 C 
ATOM     32  H   UNL     1      -0.176  -3.858 -10.168  0.00  0.00    +0.159 HD
ATOM     33  H   UNL     1      -2.056  -0.311  -9.679  0.00  0.00    +0.152 HD
ENDBRANCH  22  24
ENDBRANCH   3  18
TORSDOF 4
