REMARK  Name = ZINC08951532
REMARK  15 active torsions:
REMARK  status: ('A' for Active; 'I' for Inactive)
REMARK    1  A    between atoms: C_1  and  C_2
REMARK    2  A    between atoms: C_5  and  C_32
REMARK    3  A    between atoms: C_6  and  C_8
REMARK    4  A    between atoms: C_8  and  C_10
REMARK    5  A    between atoms: C_11  and  O_31
REMARK    6  A    between atoms: N_14  and  C_26
REMARK    7  A    between atoms: C_15  and  C_17
REMARK    8  A    between atoms: C_20  and  O_25
REMARK    9  A    between atoms: C_21  and  O_23
REMARK   10  A    between atoms: O_23  and  C_24
REMARK   11  A    between atoms: C_26  and  C_27
REMARK   12  A    between atoms: C_27  and  C_28
REMARK   13  A    between atoms: C_28  and  N_62
REMARK   14  A    between atoms: C_29  and  N_62
REMARK   15  A    between atoms: C_30  and  N_62
REMARK                            x       y       z     vdW  Elec       q    Type
REMARK                         _______ _______ _______ _____ _____    ______ ____
ROOT
ATOM      1  C   UNL     1      -2.639  -6.298  -1.565  0.00  0.00    +0.071 C 
ATOM      2  C   UNL     1      -2.647  -6.496  -0.226  0.00  0.00    +0.188 C 
ATOM      3  C   UNL     1      -2.905  -5.209   0.455  0.00  0.00    +0.282 C 
ATOM      4  O   UNL     1      -2.972  -5.058   1.658  0.00  0.00    -0.267 OA
ATOM      5  N   UNL     1      -3.055  -4.231  -0.456  0.00  0.00    -0.284 N 
ATOM      6  C   UNL     1      -2.908  -4.828  -1.789  0.00  0.00    +0.145 C 
ENDROOT
BRANCH   6   7
ATOM      7  C   UNL     1      -1.748  -4.197  -2.514  0.00  0.00    -0.019 A 
ATOM      8  C   UNL     1      -0.529  -4.056  -1.876  0.00  0.00    +0.009 A 
ATOM      9  C   UNL     1       0.540  -3.483  -2.539  0.00  0.00    +0.049 A 
ATOM     10  C   UNL     1       0.389  -3.038  -3.843  0.00  0.00    +0.158 A 
ATOM     11  C   UNL     1      -0.839  -3.174  -4.483  0.00  0.00    +0.162 A 
ATOM     12  C   UNL     1      -1.905  -3.754  -3.814  0.00  0.00    +0.055 A 
BRANCH  11  13
ATOM     13  O   UNL     1      -0.993  -2.738  -5.762  0.00  0.00    -0.491 OA
ATOM     14  C   UNL     1      -2.308  -2.804  -6.316  0.00  0.00    +0.277 C 
ENDBRANCH  11  13
BRANCH  10  15
ATOM     15  O   UNL     1       1.438  -2.468  -4.494  0.00  0.00    -0.503 OA
ATOM     16  H   UNL     1       1.496  -1.509  -4.383  0.00  0.00    +0.292 HD
ENDBRANCH  10  15
ENDBRANCH   6   7
BRANCH   1  17
ATOM     17  C   UNL     1      -2.418  -7.314  -2.598  0.00  0.00    +0.195 C 
ATOM     18  O   UNL     1      -2.541  -7.023  -3.773  0.00  0.00    -0.287 OA
BRANCH  17  24
ATOM     19  C   UNL     1      -3.668 -12.103  -1.962  0.00  0.00    +0.044 C 
ATOM     20  C   UNL     1      -2.645 -10.998  -1.905  0.00  0.00    -0.050 A 
ATOM     21  C   UNL     1      -1.353 -11.274  -1.490  0.00  0.00    +0.003 A 
ATOM     22  C   UNL     1      -0.408 -10.265  -1.434  0.00  0.00    +0.004 A 
ATOM     23  C   UNL     1      -0.745  -8.978  -1.798  0.00  0.00    -0.040 A 
ATOM     24  C   UNL     1      -2.048  -8.692  -2.212  0.00  0.00    +0.025 A 
ATOM     25  C   UNL     1      -2.997  -9.715  -2.266  0.00  0.00    +0.015 A 
ATOM     26  C   UNL     1       0.287  -7.882  -1.742  0.00  0.00    +0.044 C 
ENDBRANCH  17  24
ENDBRANCH   1  17
BRANCH   2  27
ATOM     27  O   UNL     1      -2.449  -7.683   0.392  0.00  0.00    -0.502 OA
ATOM     28  H   UNL     1      -2.505  -7.557   1.382  0.00  0.00    +0.292 HD
ENDBRANCH   2  27
BRANCH   5  29
ATOM     29  C   UNL     1      -3.323  -2.819  -0.169  0.00  0.00    +0.107 C 
BRANCH  29  30
ATOM     30  C   UNL     1      -1.999  -2.068  -0.023  0.00  0.00    +0.000 C 
BRANCH  30  31
ATOM     31  C   UNL     1      -2.279  -0.594   0.277  0.00  0.00    -0.078 C 
BRANCH  31  34
ATOM     32  C   UNL     1      -1.228   1.579   0.470  0.00  0.00    -0.097 C 
ATOM     33  C   UNL     1      -0.267  -0.335   1.599  0.00  0.00    -0.097 C 
ATOM     34  N   UNL     1      -0.991   0.122   0.394  0.00  0.00    +0.376 N 
ATOM     35  H   UNL     1      -0.420  -0.080  -0.435  0.00  0.00    -0.083 HD
ENDBRANCH  31  34
ENDBRANCH  30  31
ENDBRANCH  29  30
ENDBRANCH   5  29
TORSDOF 10
