REMARK  Name = ZINC39345299
REMARK  4 active torsions:
REMARK  status: ('A' for Active; 'I' for Inactive)
REMARK    1  A    between atoms: C_4  and  O_7
REMARK    2  A    between atoms: O_7  and  C_8
REMARK    3  A    between atoms: C_8  and  C_9
REMARK    4  A    between atoms: C_15  and  C_16
REMARK                            x       y       z     vdW  Elec       q    Type
REMARK                         _______ _______ _______ _____ _____    ______ ____
ROOT
ATOM      1  C   UNL     1       5.654  -2.093   1.804  0.00  0.00    +0.137 C 
ATOM      2  N   UNL     1       6.845  -1.634   1.542  0.00  0.00    -0.166 NA
ATOM      3  N   UNL     1       7.774  -2.495   0.991  0.00  0.00    -0.152 N 
ATOM      4  C   UNL     1       9.128  -2.182   0.737  0.00  0.00    +0.152 C 
ATOM      5  N   UNL     1       9.774  -1.234   1.359  0.00  0.00    -0.283 NA
ATOM      6  C   UNL     1       9.745  -3.043  -0.312  0.00  0.00    +0.080 C 
ATOM      7  C   UNL     1      10.721  -2.565  -1.171  0.00  0.00    +0.022 C 
ATOM      8  C   UNL     1       9.254  -4.443  -0.383  0.00  0.00    +0.273 C 
ATOM      9  O   UNL     1       9.951  -5.329  -0.851  0.00  0.00    -0.268 OA
ATOM     10  N   UNL     1       8.021  -4.709   0.083  0.00  0.00    -0.152 NA
ATOM     11  C   UNL     1       7.340  -3.764   0.694  0.00  0.00    +0.181 C 
ATOM     12  S   UNL     1       5.775  -3.794   1.279  0.00  0.00    -0.035 S 
ATOM     13  H   UNL     1       9.325  -0.702   2.034  0.00  0.00    +0.188 HD
ENDROOT
BRANCH   7  14
ATOM     14  C   UNL     1      10.856  -1.188  -1.379  0.00  0.00    -0.018 C 
ATOM     15  C   UNL     1      11.875  -0.537  -2.067  0.00  0.00    +0.003 A 
ATOM     16  C   UNL     1      13.028  -1.000  -2.737  0.00  0.00    +0.010 A 
ATOM     17  C   UNL     1      13.868  -0.123  -3.335  0.00  0.00    +0.001 A 
ATOM     18  C   UNL     1      13.644   1.260  -3.321  0.00  0.00    +0.002 A 
ATOM     19  C   UNL     1      12.569   1.803  -2.705  0.00  0.00    +0.026 A 
ATOM     20  C   UNL     1      11.608   0.917  -2.033  0.00  0.00    +0.043 A 
ATOM     21  N   UNL     1      10.506   1.166  -1.374  0.00  0.00    -0.380 N 
ATOM     22  C   UNL     1       9.922  -0.095  -0.908  0.00  0.00    +0.149 C 
ATOM     23  H   UNL     1      10.131   2.048  -1.222  0.00  0.00    +0.160 HD
ENDBRANCH   7  14
BRANCH   1  24
ATOM     24  C   UNL     1       4.475  -1.371   2.403  0.00  0.00    +0.293 C 
BRANCH  24  25
ATOM     25  O   UNL     1       4.833  -0.014   2.671  0.00  0.00    -0.485 OA
BRANCH  25  29
ATOM     26  C   UNL     1       1.925   2.398   4.328  0.00  0.00    +0.000 A 
ATOM     27  C   UNL     1       3.179   2.915   4.058  0.00  0.00    +0.004 A 
ATOM     28  C   UNL     1       4.154   2.109   3.503  0.00  0.00    +0.045 A 
ATOM     29  C   UNL     1       3.875   0.780   3.217  0.00  0.00    +0.121 A 
ATOM     30  C   UNL     1       2.617   0.264   3.490  0.00  0.00    +0.045 A 
ATOM     31  C   UNL     1       1.645   1.074   4.045  0.00  0.00    +0.004 A 
ENDBRANCH  25  29
ENDBRANCH  24  25
ENDBRANCH   1  24
TORSDOF 4
