REMARK  Name = ZINC49102190
REMARK  11 active torsions:
REMARK  status: ('A' for Active; 'I' for Inactive)
REMARK    1  A    between atoms: C_1  and  C_2
REMARK    2  A    between atoms: C_2  and  C_3
REMARK    3  A    between atoms: C_3  and  C_4
REMARK    4  A    between atoms: C_4  and  C_5
REMARK    5  A    between atoms: C_5  and  C_6
REMARK    6  A    between atoms: C_6  and  C_8
REMARK    7  A    between atoms: C_6  and  N_9
REMARK    8  A    between atoms: N_9  and  S_10
REMARK    9  A    between atoms: S_10  and  C_13
REMARK   10  A    between atoms: C_18  and  N_19
REMARK   11  A    between atoms: N_19  and  N_20
REMARK                            x       y       z     vdW  Elec       q    Type
REMARK                         _______ _______ _______ _____ _____    ______ ____
ROOT
ATOM      1  S   UNL     1       1.794  -5.819  -0.598  0.00  0.00    +0.062 S 
ATOM      2  O   UNL     1       2.608  -6.032   0.547  0.00  0.00    -0.153 OA
ATOM      3  O   UNL     1       0.400  -5.561  -0.505  0.00  0.00    -0.153 OA
ENDROOT
BRANCH   1   4
ATOM      4  C   UNL     1       1.976  -7.245  -1.617  0.00  0.00    +0.147 A 
ATOM      5  C   UNL     1       0.861  -7.901  -2.109  0.00  0.00    +0.048 A 
ATOM      6  C   UNL     1       1.051  -9.022  -2.908  0.00  0.00    +0.038 A 
ATOM      7  C   UNL     1       2.337  -9.445  -3.185  0.00  0.00    +0.128 A 
ATOM      8  N   UNL     1       3.380  -8.799  -2.701  0.00  0.00    -0.236 NA
ATOM      9  C   UNL     1       3.241  -7.724  -1.941  0.00  0.00    +0.159 A 
ATOM     10 BR   UNL     1      -0.435  -9.958  -3.608  0.00  0.00    -0.049 Br
BRANCH   9  11
ATOM     11  N   UNL     1       4.369  -7.070  -1.458  0.00  0.00    -0.266 N 
ATOM     12  H   UNL     1       4.273  -6.255  -0.942  0.00  0.00    +0.167 HD
BRANCH  11  13
ATOM     13  N   UNL     1       5.612  -7.577  -1.711  0.00  0.00    -0.255 NA
ATOM     14  H   UNL     1       5.763  -7.688  -2.702  0.00  0.00    +0.140 HD
ATOM     15  H   UNL     1       6.329  -6.998  -1.299  0.00  0.00    +0.140 HD
ENDBRANCH  11  13
ENDBRANCH   9  11
ENDBRANCH   1   4
BRANCH   1  16
ATOM     16  N   UNL     1       2.459  -4.543  -1.419  0.00  0.00    -0.187 NA
ATOM     17  H   UNL     1       3.242  -4.094  -1.065  0.00  0.00    +0.148 HD
BRANCH  16  18
ATOM     18  C   UNL     1       1.863  -4.095  -2.681  0.00  0.00    +0.073 C 
ATOM     19  C   UNL     1       2.848  -4.342  -3.826  0.00  0.00    +0.025 C 
BRANCH  18  20
ATOM     20  C   UNL     1       1.549  -2.600  -2.593  0.00  0.00    +0.020 C 
BRANCH  20  21
ATOM     21  C   UNL     1       0.472  -2.366  -1.531  0.00  0.00    +0.002 C 
BRANCH  21  22
ATOM     22  C   UNL     1       0.158  -0.872  -1.443  0.00  0.00    -0.000 C 
BRANCH  22  24
ATOM     23  C   UNL     1      -1.233   0.857  -0.294  0.00  0.00    +0.004 C 
ATOM     24  C   UNL     1      -0.919  -0.638  -0.382  0.00  0.00    -0.003 C 
ENDBRANCH  22  24
ENDBRANCH  21  22
ENDBRANCH  20  21
ENDBRANCH  18  20
ENDBRANCH  16  18
ENDBRANCH   1  16
TORSDOF 9
