REMARK  Name = ZINC41026388
REMARK  11 active torsions:
REMARK  status: ('A' for Active; 'I' for Inactive)
REMARK    1  A    between atoms: C_1  and  C_2
REMARK    2  A    between atoms: C_2  and  N_3
REMARK    3  A    between atoms: N_3  and  C_4
REMARK    4  A    between atoms: N_3  and  C_6
REMARK    5  A    between atoms: C_4  and  C_5
REMARK    6  A    between atoms: C_6  and  C_7
REMARK    7  A    between atoms: C_7  and  N_8
REMARK    8  A    between atoms: C_12  and  N_28
REMARK    9  A    between atoms: C_13  and  N_15
REMARK   10  A    between atoms: N_15  and  C_16
REMARK   11  A    between atoms: C_17  and  C_25
REMARK                            x       y       z     vdW  Elec       q    Type
REMARK                         _______ _______ _______ _____ _____    ______ ____
ROOT
ATOM      1  N   UNL     1      -0.803  -3.594   2.129  0.00  0.00    -0.315 N 
ATOM      2  C   UNL     1      -0.259  -4.060   3.313  0.00  0.00    +0.219 A 
ATOM      3  N   UNL     1       0.294  -3.197   4.152  0.00  0.00    -0.198 NA
ATOM      4  C   UNL     1       0.826  -3.608   5.301  0.00  0.00    +0.154 A 
ATOM      5  C   UNL     1       0.796  -4.964   5.614  0.00  0.00    +0.205 A 
ATOM      6  C   UNL     1       0.206  -5.840   4.708  0.00  0.00    +0.161 A 
ATOM      7  N   UNL     1      -0.310  -5.356   3.581  0.00  0.00    -0.197 NA
ATOM      8  N   UNL     1       1.404  -2.699   6.173  0.00  0.00    -0.341 N 
ATOM      9  H   UNL     1      -1.214  -4.215   1.507  0.00  0.00    +0.149 HD
ATOM     10  H   UNL     1       1.422  -1.755   5.948  0.00  0.00    +0.144 HD
ATOM     11  H   UNL     1       1.790  -3.006   7.008  0.00  0.00    +0.144 HD
ENDROOT
BRANCH   5  12
ATOM     12  N   UNL     1       1.377  -5.463   6.881  0.00  0.00    +0.063 N 
ATOM     13  O   UNL     1       0.691  -5.535   7.874  0.00  0.00    -0.126 OA
ATOM     14  O   UNL     1       2.538  -5.797   6.923  0.00  0.00    -0.126 OA
ENDBRANCH   5  12
BRANCH   6  15
ATOM     15  N   UNL     1       0.153  -7.201   4.978  0.00  0.00    -0.291 N 
ATOM     16  H   UNL     1       0.529  -7.546   5.803  0.00  0.00    +0.154 HD
BRANCH  15  17
ATOM     17  C   UNL     1      -0.435  -8.064   4.070  0.00  0.00    +0.084 A 
ATOM     18  C   UNL     1      -0.583  -9.439   4.173  0.00  0.00    +0.068 A 
ATOM     19  C   UNL     1      -1.244 -10.120   3.073  0.00  0.00    -0.023 A 
ATOM     20  C   UNL     1      -1.636  -9.302   2.073  0.00  0.00    -0.004 A 
ATOM     21  S   UNL     1      -1.142  -7.686   2.595  0.00  0.00    -0.077 S 
ATOM     22  C   UNL     1      -2.336  -9.697   0.810  0.00  0.00    +0.043 C 
ATOM     23  C   UNL     1      -2.210 -11.219   0.644  0.00  0.00    +0.005 C 
ATOM     24  C   UNL     1      -2.579 -11.894   1.968  0.00  0.00    +0.005 C 
ATOM     25  C   UNL     1      -1.494 -11.620   3.012  0.00  0.00    +0.037 C 
BRANCH  18  26
ATOM     26  C   UNL     1      -0.092 -10.174   5.342  0.00  0.00    +0.244 C 
ATOM     27  O   UNL     1      -0.820 -10.345   6.303  0.00  0.00    -0.270 OA
ATOM     28  N   UNL     1       1.164 -10.662   5.353  0.00  0.00    -0.325 N 
ATOM     29  H   UNL     1       1.744 -10.526   4.587  0.00  0.00    +0.145 HD
ATOM     30  H   UNL     1       1.489 -11.149   6.126  0.00  0.00    +0.145 HD
ENDBRANCH  18  26
ENDBRANCH  15  17
ENDBRANCH   6  15
BRANCH   1  31
ATOM     31  C   UNL     1      -0.756  -2.164   1.814  0.00  0.00    +0.086 C 
BRANCH  31  32
ATOM     32  C   UNL     1      -1.421  -1.919   0.458  0.00  0.00    -0.060 C 
BRANCH  32  33
ATOM     33  N   UNL     1      -1.374  -0.485   0.142  0.00  0.00    +0.380 N 
ATOM     34  H   UNL     1      -1.792   0.039   0.895  0.00  0.00    -0.082 HD
BRANCH  33  36
ATOM     35  C   UNL     1       0.082   1.451  -0.216  0.00  0.00    -0.017 C 
ATOM     36  C   UNL     1       0.024  -0.066  -0.029  0.00  0.00    -0.082 C 
ENDBRANCH  33  36
BRANCH  33  37
ATOM     37  C   UNL     1      -2.116  -0.233  -1.101  0.00  0.00    -0.082 C 
ATOM     38  C   UNL     1      -3.600  -0.533  -0.879  0.00  0.00    -0.017 C 
ENDBRANCH  33  37
ENDBRANCH  32  33
ENDBRANCH  31  32
ENDBRANCH   1  31
TORSDOF 9
