REMARK  Name = ZINC18200558
REMARK  6 active torsions:
REMARK  status: ('A' for Active; 'I' for Inactive)
REMARK    1  A    between atoms: C_1  and  O_2
REMARK    2  A    between atoms: O_2  and  C_3
REMARK    3  A    between atoms: C_7  and  C_11
REMARK    4  A    between atoms: C_8  and  O_9
REMARK    5  A    between atoms: O_9  and  C_10
REMARK    6  A    between atoms: C_29  and  C_32
REMARK                            x       y       z     vdW  Elec       q    Type
REMARK                         _______ _______ _______ _____ _____    ______ ____
ROOT
ATOM      1  C   UNL     1       3.867  -0.465  -0.706  0.00  0.00    +0.096 C 
ATOM      2  C   UNL     1       4.830  -0.390   0.441  0.00  0.00    +0.067 A 
ATOM      3  C   UNL     1       5.789   0.577   0.488  0.00  0.00    +0.113 A 
ATOM      4  N   UNL     1       6.652   0.625   1.556  0.00  0.00    -0.295 N 
ATOM      5  H   UNL     1       7.356   1.335   1.595  0.00  0.00    +0.172 HD
ATOM      6  C   UNL     1       6.555  -0.277   2.550  0.00  0.00    +0.328 A 
ATOM      7  O   UNL     1       7.326  -0.220   3.489  0.00  0.00    -0.247 OA
ATOM      8  N   UNL     1       5.618  -1.242   2.519  0.00  0.00    -0.275 N 
ATOM      9  H   UNL     1       5.564  -1.904   3.267  0.00  0.00    +0.173 HD
ATOM     10  C   UNL     1       4.752  -1.324   1.490  0.00  0.00    +0.260 A 
ATOM     11  O   UNL     1       3.906  -2.201   1.469  0.00  0.00    -0.267 OA
ATOM     12  N   UNL     1       5.891   1.496  -0.526  0.00  0.00    -0.303 N 
ATOM     13  C   UNL     1       5.337   1.247  -1.752  0.00  0.00    +0.017 C 
ATOM     14  C   UNL     1       4.367   0.319  -1.893  0.00  0.00    +0.024 C 
ATOM     15  C   UNL     1       3.789   0.059  -3.149  0.00  0.00    +0.162 C 
ATOM     16  O   UNL     1       2.928  -0.793  -3.244  0.00  0.00    -0.292 OA
ATOM     17  C   UNL     1       4.219   0.815  -4.376  0.00  0.00    +0.088 C 
ATOM     18  C   UNL     1       4.714   2.203  -3.958  0.00  0.00    +0.039 C 
ATOM     19  C   UNL     1       5.842   2.030  -2.940  0.00  0.00    +0.060 C 
ATOM     20  H   UNL     1       6.360   2.331  -0.371  0.00  0.00    +0.153 HD
ENDROOT
BRANCH   1  25
ATOM     21  C   UNL     1       1.249   1.814   0.804  0.00  0.00    +0.162 A 
ATOM     22  C   UNL     1       0.086   1.113   0.526  0.00  0.00    +0.049 A 
ATOM     23  C   UNL     1       0.150  -0.092  -0.148  0.00  0.00    +0.004 A 
ATOM     24  C   UNL     1       1.373  -0.601  -0.546  0.00  0.00    +0.008 A 
ATOM     25  C   UNL     1       2.536   0.093  -0.271  0.00  0.00    +0.010 A 
ATOM     26  C   UNL     1       2.479   1.301   0.404  0.00  0.00    +0.166 A 
BRANCH  21  28
ATOM     27  C   UNL     1      -0.110   3.464   1.847  0.00  0.00    +0.277 C 
ATOM     28  O   UNL     1       1.187   3.000   1.467  0.00  0.00    -0.491 OA
ENDBRANCH  21  28
BRANCH  26  29
ATOM     29  O   UNL     1       3.623   1.985   0.676  0.00  0.00    -0.491 OA
ATOM     30  C   UNL     1       4.078   1.977   2.030  0.00  0.00    +0.277 C 
ENDBRANCH  26  29
ENDBRANCH   1  25
BRANCH  18  31
ATOM     31  C   UNL     1       5.227   2.943  -5.167  0.00  0.00    -0.006 A 
ATOM     32  C   UNL     1       4.801   4.117  -5.694  0.00  0.00    +0.011 A 
ATOM     33  C   UNL     1       5.428   4.613  -6.821  0.00  0.00    +0.008 A 
ATOM     34  C   UNL     1       6.451   3.911  -7.367  0.00  0.00    +0.045 A 
ATOM     35  S   UNL     1       6.558   2.504  -6.273  0.00  0.00    -0.101 S 
ENDBRANCH  18  31
TORSDOF 4
