REMARK  Name = ZINC31054890
REMARK  3 active torsions:
REMARK  status: ('A' for Active; 'I' for Inactive)
REMARK    1  A    between atoms: C_5  and  C_7
REMARK    2  A    between atoms: C_7  and  S_8
REMARK    3  A    between atoms: S_8  and  C_9
REMARK                            x       y       z     vdW  Elec       q    Type
REMARK                         _______ _______ _______ _____ _____    ______ ____
ROOT
ATOM      1  C   UNL     1      -0.362   7.643  -1.369  0.00  0.00    +0.191 A 
ATOM      2  N   UNL     1      -0.413   8.481  -2.397  0.00  0.00    -0.207 NA
ATOM      3  C   UNL     1      -0.490   9.791  -2.234  0.00  0.00    +0.129 A 
ATOM      4  C   UNL     1      -0.509  10.329  -0.916  0.00  0.00    +0.047 A 
ATOM      5  C   UNL     1      -0.583  11.713  -0.480  0.00  0.00    +0.021 A 
ATOM      6  C   UNL     1      -0.586  11.987   0.832  0.00  0.00    +0.048 A 
ATOM      7  S   UNL     1      -0.489  10.378   1.593  0.00  0.00    -0.077 S 
ATOM      8  C   UNL     1      -0.446   9.381   0.128  0.00  0.00    +0.114 A 
ATOM      9  N   UNL     1      -0.376   8.087  -0.119  0.00  0.00    -0.215 NA
ATOM     10  N   UNL     1      -0.547  10.630  -3.332  0.00  0.00    -0.343 N 
ATOM     11  H   UNL     1      -0.611  11.719  -3.189  0.00  0.00    +0.144 HD
ATOM     12  H   UNL     1      -0.528  10.209  -4.347  0.00  0.00    +0.144 HD
ENDROOT
BRANCH   1  13
ATOM     13  S   UNL     1      -0.267   5.910  -1.669  0.00  0.00    -0.080 S 
BRANCH  13  14
ATOM     14  C   UNL     1      -0.217   5.298   0.033  0.00  0.00    +0.132 C 
BRANCH  14  19
ATOM     15  C   UNL     1       1.174   1.794   0.001  0.00  0.00    +0.003 A 
ATOM     16  C   UNL     1      -0.013   1.076   0.008  0.00  0.00    +0.020 A 
ATOM     17  C   UNL     1      -1.214   1.759   0.017  0.00  0.00    +0.111 A 
ATOM     18  N   UNL     1      -1.239   3.078   0.030  0.00  0.00    -0.259 NA
ATOM     19  C   UNL     1      -0.132   3.793   0.024  0.00  0.00    +0.051 A 
ATOM     20  C   UNL     1       1.107   3.179   0.009  0.00  0.00    +0.024 A 
ENDBRANCH  14  19
ENDBRANCH  13  14
ENDBRANCH   1  13
TORSDOF 3
