REMARK  Name = ZINC03844880
REMARK  2 active torsions:
REMARK  status: ('A' for Active; 'I' for Inactive)
REMARK    1  A    between atoms: C_12  and  C_18
REMARK    2  A    between atoms: C_13  and  N_17
REMARK                            x       y       z     vdW  Elec       q    Type
REMARK                         _______ _______ _______ _____ _____    ______ ____
ROOT
ATOM      1  C   UNL     1      -3.639   1.920  -0.915  0.00  0.00    +0.001 A 
ATOM      2  C   UNL     1      -3.656   3.303  -0.908  0.00  0.00    +0.001 A 
ATOM      3  C   UNL     1      -2.487   4.018  -0.715  0.00  0.00    +0.012 A 
ATOM      4  C   UNL     1      -1.281   3.343  -0.544  0.00  0.00    +0.033 A 
ATOM      5  C   UNL     1      -1.263   1.937  -0.557  0.00  0.00    +0.033 A 
ATOM      6  C   UNL     1      -2.450   1.233  -0.741  0.00  0.00    +0.012 A 
ATOM      7  C   UNL     1       0.011   1.213  -0.371  0.00  0.00    +0.195 C 
ATOM      8  O   UNL     1       0.028  -0.002  -0.376  0.00  0.00    -0.287 OA
ATOM      9  C   UNL     1       1.269   1.971  -0.183  0.00  0.00    +0.035 A 
ATOM     10  C   UNL     1       2.473   1.292  -0.013  0.00  0.00    +0.013 A 
ATOM     11  C   UNL     1       3.652   1.991   0.162  0.00  0.00    +0.013 A 
ATOM     12  C   UNL     1       3.651   3.388   0.172  0.00  0.00    +0.036 A 
ATOM     13  C   UNL     1       2.441   4.090   0.001  0.00  0.00    +0.047 A 
ATOM     14  C   UNL     1       1.247   3.377  -0.177  0.00  0.00    +0.054 A 
ATOM     15  C   UNL     1      -0.024   4.098  -0.357  0.00  0.00    +0.196 C 
ATOM     16  O   UNL     1      -0.040   5.313  -0.350  0.00  0.00    -0.287 OA
ENDROOT
BRANCH  13  17
ATOM     17  N   UNL     1       2.432   5.469   0.009  0.00  0.00    -0.357 N 
ATOM     18  H   UNL     1       1.736   5.952  -0.463  0.00  0.00    +0.142 HD
ATOM     19  H   UNL     1       3.122   5.956   0.487  0.00  0.00    +0.142 HD
ENDBRANCH  13  17
BRANCH  12  20
ATOM     20  C   UNL     1       4.909   4.123   0.358  0.00  0.00    +0.260 C 
ATOM     21  O   UNL     1       5.949   3.518   0.504  0.00  0.00    -0.296 OA
ENDBRANCH  12  20
TORSDOF 2
