REMARK  Name = ZINC39211626
REMARK  7 active torsions:
REMARK  status: ('A' for Active; 'I' for Inactive)
REMARK    1  A    between atoms: C_1  and  C_2
REMARK    2  A    between atoms: C_2  and  C_3
REMARK    3  A    between atoms: C_6  and  N_10
REMARK    4  A    between atoms: N_8  and  N_9
REMARK    5  A    between atoms: N_10  and  N_11
REMARK    6  A    between atoms: C_12  and  C_13
REMARK    7  A    between atoms: C_18  and  C_19
REMARK                            x       y       z     vdW  Elec       q    Type
REMARK                         _______ _______ _______ _____ _____    ______ ____
ROOT
ATOM      1  N   UNL     1      -4.927  -3.280   1.224  0.00  0.00    -0.196 NA
ATOM      2  C   UNL     1      -5.343  -3.875   2.279  0.00  0.00    +0.118 C 
ENDROOT
BRANCH   2   3
ATOM      3  C   UNL     1      -6.675  -4.579   2.270  0.00  0.00    +0.125 C 
ATOM      4  C   UNL     1      -6.513  -6.034   2.663  0.00  0.00    +0.123 C 
ATOM      5  N   UNL     1      -7.206  -6.194   3.743  0.00  0.00    -0.161 NA
ATOM      6  N   UNL     1      -7.833  -5.022   4.152  0.00  0.00    -0.153 NA
ATOM      7  C   UNL     1      -7.582  -4.020   3.349  0.00  0.00    +0.084 C 
BRANCH   7   8
ATOM      8  C   UNL     1      -8.074  -2.639   3.466  0.00  0.00    -0.001 A 
ATOM      9  C   UNL     1      -7.712  -1.681   2.513  0.00  0.00    +0.012 A 
ATOM     10  C   UNL     1      -8.176  -0.389   2.628  0.00  0.00    +0.039 A 
ATOM     11  C   UNL     1      -9.000  -0.037   3.687  0.00  0.00    +0.123 A 
ATOM     12  C   UNL     1      -9.363  -0.981   4.635  0.00  0.00    +0.039 A 
ATOM     13  C   UNL     1      -8.910  -2.279   4.528  0.00  0.00    +0.012 A 
ATOM     14  F   UNL     1      -9.451   1.232   3.795  0.00  0.00    -0.205 F 
ENDBRANCH   7   8
ENDBRANCH   2   3
BRANCH   1  15
ATOM     15  N   UNL     1      -3.688  -2.625   1.232  0.00  0.00    -0.230 N 
ATOM     16  H   UNL     1      -3.146  -2.623   2.036  0.00  0.00    +0.172 HD
BRANCH  15  20
ATOM     17  C   UNL     1      -1.412  -0.526   0.013  0.00  0.00    +0.132 C 
ATOM     18  N   UNL     1      -2.452   0.224   0.021  0.00  0.00    -0.172 NA
ATOM     19  N   UNL     1      -3.632  -0.531   0.030  0.00  0.00    -0.229 N 
ATOM     20  C   UNL     1      -3.212  -1.944   0.026  0.00  0.00    +0.297 C 
ATOM     21  N   UNL     1      -1.741  -1.873   0.009  0.00  0.00    -0.216 N 
ATOM     22  H   UNL     1      -4.541  -0.193   0.037  0.00  0.00    +0.172 HD
BRANCH  21  23
ATOM     23  N   UNL     1      -0.872  -2.926  -0.006  0.00  0.00    -0.250 NA
ATOM     24  H   UNL     1       0.085  -2.606  -0.014  0.00  0.00    +0.141 HD
ATOM     25  H   UNL     1      -1.040  -3.545   0.773  0.00  0.00    +0.141 HD
ENDBRANCH  21  23
BRANCH  17  27
ATOM     26  C   UNL     1      -0.019   1.526   0.010  0.00  0.00    +0.012 C 
ATOM     27  C   UNL     1       0.002  -0.004   0.002  0.00  0.00    +0.071 C 
ENDBRANCH  17  27
ENDBRANCH  15  20
ENDBRANCH   1  15
TORSDOF 6
