REMARK  Name = ZINC56797254
REMARK  10 active torsions:
REMARK  status: ('A' for Active; 'I' for Inactive)
REMARK    1  A    between atoms: C_1  and  N_2
REMARK    2  A    between atoms: N_2  and  C_3
REMARK    3  A    between atoms: N_2  and  C_4
REMARK    4  A    between atoms: C_4  and  C_6
REMARK    5  A    between atoms: C_4  and  C_22
REMARK    6  A    between atoms: C_6  and  N_7
REMARK    7  A    between atoms: N_10  and  C_11
REMARK    8  A    between atoms: N_10  and  C_12
REMARK    9  A    between atoms: C_12  and  C_13
REMARK   10  A    between atoms: C_17  and  C_19
REMARK                            x       y       z     vdW  Elec       q    Type
REMARK                         _______ _______ _______ _____ _____    ______ ____
ROOT
ATOM      1  N   UNL     1      -0.964  -2.611   0.830  0.00  0.00    -0.300 N 
ATOM      2  C   UNL     1      -1.054  -3.952   0.934  0.00  0.00    +0.302 C 
ATOM      3  O   UNL     1      -1.722  -4.580   0.136  0.00  0.00    -0.253 OA
ATOM      4  N   UNL     1      -0.403  -4.596   1.923  0.00  0.00    -0.284 N 
ATOM      5  C   UNL     1       0.402  -3.839   2.885  0.00  0.00    +0.134 C 
ATOM      6  H   UNL     1      -0.431  -2.110   1.467  0.00  0.00    +0.150 HD
ENDROOT
BRANCH   1   7
ATOM      7  C   UNL     1      -1.672  -1.911  -0.245  0.00  0.00    +0.095 C 
BRANCH   7   8
ATOM      8  C   UNL     1      -1.510  -0.400  -0.062  0.00  0.00    -0.020 C 
BRANCH   8   9
ATOM      9  C   UNL     1      -0.062  -0.024  -0.246  0.00  0.00    -0.041 A 
ATOM     10  C   UNL     1       0.770   0.082   0.853  0.00  0.00    +0.003 A 
ATOM     11  C   UNL     1       2.098   0.426   0.684  0.00  0.00    +0.000 A 
ATOM     12  C   UNL     1       2.595   0.666  -0.583  0.00  0.00    +0.001 A 
ATOM     13  C   UNL     1       1.764   0.561  -1.683  0.00  0.00    +0.020 A 
ATOM     14  C   UNL     1       0.436   0.210  -1.515  0.00  0.00    +0.043 A 
ATOM     15 CL   UNL     1      -0.607   0.071  -2.896  0.00  0.00    -0.083 Cl
ENDBRANCH   8   9
BRANCH   8  17
ATOM     16  C   UNL     1      -1.833   1.435   1.449  0.00  0.00    -0.096 C 
ATOM     17  N   UNL     1      -1.946  -0.021   1.288  0.00  0.00    +0.382 N 
ATOM     18  C   UNL     1      -3.345  -0.427   1.483  0.00  0.00    -0.096 C 
ATOM     19  H   UNL     1      -1.364  -0.481   1.972  0.00  0.00    -0.082 HD
ENDBRANCH   8  17
ENDBRANCH   7   8
ENDBRANCH   1   7
BRANCH   4  20
ATOM     20  C   UNL     1      -0.501  -6.053   2.036  0.00  0.00    +0.144 C 
BRANCH  20  21
ATOM     21  C   UNL     1       0.602  -6.694   1.234  0.00  0.00    -0.029 A 
ATOM     22  C   UNL     1       0.395  -7.010  -0.097  0.00  0.00    +0.005 A 
ATOM     23  C   UNL     1       1.402  -7.598  -0.840  0.00  0.00    +0.001 A 
ATOM     24  C   UNL     1       2.622  -7.875  -0.258  0.00  0.00    +0.013 A 
ATOM     25  C   UNL     1       2.838  -7.559   1.085  0.00  0.00    +0.037 A 
ATOM     26  C   UNL     1       1.819  -6.961   1.827  0.00  0.00    +0.018 A 
BRANCH  25  27
ATOM     27  C   UNL     1       4.142  -7.854   1.716  0.00  0.00    +0.242 C 
ATOM     28  O   UNL     1       4.328  -7.578   2.885  0.00  0.00    -0.270 OA
ATOM     29  N   UNL     1       5.126  -8.427   0.995  0.00  0.00    -0.325 N 
ATOM     30  H   UNL     1       4.978  -8.648   0.061  0.00  0.00    +0.145 HD
ATOM     31  H   UNL     1       5.981  -8.620   1.409  0.00  0.00    +0.145 HD
ENDBRANCH  25  27
ENDBRANCH  20  21
ENDBRANCH   4  20
TORSDOF 7
