REMARK  Name = ZINC33363855
REMARK  6 active torsions:
REMARK  status: ('A' for Active; 'I' for Inactive)
REMARK    1  A    between atoms: C_1  and  C_2
REMARK    2  A    between atoms: C_9  and  N_28
REMARK    3  A    between atoms: C_10  and  C_13
REMARK    4  A    between atoms: N_17  and  C_21
REMARK    5  A    between atoms: C_21  and  C_22
REMARK    6  A    between atoms: C_31  and  C_34
REMARK                            x       y       z     vdW  Elec       q    Type
REMARK                         _______ _______ _______ _____ _____    ______ ____
ROOT
ATOM      1  C   UNL     1       9.658  -3.442  -3.109  0.00  0.00    +0.047 C 
ATOM      2  C   UNL     1       8.486  -3.033  -2.255  0.00  0.00    -0.007 A 
ATOM      3  C   UNL     1       8.684  -2.616  -0.972  0.00  0.00    +0.008 A 
ATOM      4  C   UNL     1       7.583  -2.240  -0.190  0.00  0.00    +0.019 A 
ATOM      5  C   UNL     1       6.335  -2.289  -0.708  0.00  0.00    +0.096 A 
ATOM      6  N   UNL     1       6.127  -2.704  -1.990  0.00  0.00    -0.267 N 
ATOM      7  C   UNL     1       7.180  -3.078  -2.776  0.00  0.00    +0.145 A 
ATOM      8  N   UNL     1       6.997  -3.487  -4.032  0.00  0.00    -0.213 NA
ATOM      9  C   UNL     1       5.789  -3.553  -4.572  0.00  0.00    +0.136 A 
ATOM     10  C   UNL     1       4.661  -3.173  -3.808  0.00  0.00    +0.081 A 
ATOM     11  C   UNL     1       4.867  -2.741  -2.475  0.00  0.00    +0.267 A 
ATOM     12  O   UNL     1       3.924  -2.408  -1.779  0.00  0.00    -0.267 OA
ENDROOT
BRANCH  10  13
ATOM     13  C   UNL     1       3.359  -3.228  -4.358  0.00  0.00    +0.037 C 
ATOM     14  C   UNL     1       2.446  -4.113  -3.863  0.00  0.00    +0.077 C 
ATOM     15  C   UNL     1       2.601  -5.106  -2.855  0.00  0.00    +0.259 C 
ATOM     16  O   UNL     1       3.670  -5.266  -2.292  0.00  0.00    -0.269 OA
ATOM     17  N   UNL     1       1.553  -5.850  -2.547  0.00  0.00    -0.251 N 
ATOM     18  C   UNL     1       0.369  -5.677  -3.175  0.00  0.00    +0.121 C 
ATOM     19  S   UNL     1      -1.102  -6.522  -2.945  0.00  0.00    -0.027 S 
ATOM     20  S   UNL     1       0.729  -4.341  -4.305  0.00  0.00    -0.061 S 
BRANCH  17  21
ATOM     21  C   UNL     1       1.679  -6.882  -1.514  0.00  0.00    +0.150 C 
BRANCH  21  22
ATOM     22  C   UNL     1       1.341  -6.290  -0.170  0.00  0.00    -0.030 A 
ATOM     23  C   UNL     1       0.038  -6.316   0.290  0.00  0.00    +0.005 A 
ATOM     24  C   UNL     1      -0.271  -5.774   1.523  0.00  0.00    +0.000 A 
ATOM     25  C   UNL     1       0.723  -5.206   2.297  0.00  0.00    +0.000 A 
ATOM     26  C   UNL     1       2.027  -5.179   1.837  0.00  0.00    +0.000 A 
ATOM     27  C   UNL     1       2.336  -5.722   0.605  0.00  0.00    +0.005 A 
ENDBRANCH  21  22
ENDBRANCH  17  21
ENDBRANCH  10  13
BRANCH   9  28
ATOM     28  N   UNL     1       5.632  -3.985  -5.871  0.00  0.00    -0.314 N 
ATOM     29  C   UNL     1       4.885  -5.248  -5.920  0.00  0.00    +0.107 C 
ATOM     30  C   UNL     1       4.605  -5.621  -7.377  0.00  0.00    +0.031 C 
ATOM     31  C   UNL     1       5.933  -5.763  -8.127  0.00  0.00    +0.078 C 
ATOM     32  C   UNL     1       6.713  -4.449  -8.020  0.00  0.00    +0.031 C 
ATOM     33  C   UNL     1       6.932  -4.110  -6.544  0.00  0.00    +0.107 C 
BRANCH  31  34
ATOM     34  C   UNL     1       5.663  -6.072  -9.577  0.00  0.00    +0.214 C 
ATOM     35  O   UNL     1       6.055  -5.317 -10.441  0.00  0.00    -0.276 OA
ATOM     36  N   UNL     1       4.986  -7.188  -9.914  0.00  0.00    -0.329 N 
ATOM     37  H   UNL     1       4.789  -7.413 -10.972  0.00  0.00    +0.145 HD
ATOM     38  H   UNL     1       4.630  -7.872  -9.130  0.00  0.00    +0.145 HD
ENDBRANCH  31  34
ENDBRANCH   9  28
TORSDOF 5
