REMARK  Name = ZINC10157393
REMARK  6 active torsions:
REMARK  status: ('A' for Active; 'I' for Inactive)
REMARK    1  A    between atoms: C_1  and  C_2
REMARK    2  A    between atoms: C_7  and  N_8
REMARK    3  A    between atoms: C_9  and  O_24
REMARK    4  A    between atoms: C_11  and  C_13
REMARK    5  A    between atoms: C_13  and  S_14
REMARK    6  A    between atoms: S_14  and  C_15
REMARK                            x       y       z     vdW  Elec       q    Type
REMARK                         _______ _______ _______ _____ _____    ______ ____
ROOT
ATOM      1  N   UNL     1       2.201   4.073  -0.392  0.00  0.00    -0.200 N 
ATOM      2  C   UNL     1       3.485   3.645  -0.527  0.00  0.00    +0.216 A 
ATOM      3  C   UNL     1       4.265   4.743  -0.712  0.00  0.00    +0.093 A 
ATOM      4  C   UNL     1       3.436   5.869  -0.678  0.00  0.00    +0.077 A 
ATOM      5  N   UNL     1       2.204   5.471  -0.487  0.00  0.00    -0.167 NA
ENDROOT
BRANCH   1  12
ATOM      6  C   UNL     1       0.382   4.790   1.676  0.00  0.00    +0.046 C 
ATOM      7  C   UNL     1       0.165   3.576   0.811  0.00  0.00    -0.025 A 
ATOM      8  C   UNL     1      -0.943   2.775   1.010  0.00  0.00    +0.005 A 
ATOM      9  C   UNL     1      -1.145   1.663   0.213  0.00  0.00    +0.000 A 
ATOM     10  C   UNL     1      -0.236   1.344  -0.778  0.00  0.00    +0.002 A 
ATOM     11  C   UNL     1       0.873   2.141  -0.982  0.00  0.00    +0.028 A 
ATOM     12  C   UNL     1       1.077   3.261  -0.187  0.00  0.00    +0.072 A 
ENDBRANCH   1  12
BRANCH   2  13
ATOM     13  O   UNL     1       3.909   2.356  -0.489  0.00  0.00    -0.492 OA
ATOM     14  H   UNL     1       3.919   1.919  -1.351  0.00  0.00    +0.294 HD
ENDBRANCH   2  13
BRANCH   4  15
ATOM     15  C   UNL     1       3.885   7.299  -0.836  0.00  0.00    +0.136 C 
BRANCH  15  16
ATOM     16  S   UNL     1       4.289   7.986   0.789  0.00  0.00    -0.061 S 
BRANCH  16  17
ATOM     17  C   UNL     1       4.769   9.616   0.321  0.00  0.00    +0.258 A 
ATOM     18  N   UNL     1       5.165  10.549   1.150  0.00  0.00    -0.203 NA
ATOM     19  C   UNL     1       5.454  11.672   0.438  0.00  0.00    +0.110 A 
ATOM     20  C   UNL     1       5.909  12.944   0.787  0.00  0.00    +0.031 A 
ATOM     21  C   UNL     1       6.110  13.891  -0.194  0.00  0.00    +0.002 A 
ATOM     22  C   UNL     1       5.865  13.586  -1.524  0.00  0.00    +0.004 A 
ATOM     23  C   UNL     1       5.415  12.331  -1.883  0.00  0.00    +0.048 A 
ATOM     24  C   UNL     1       5.207  11.368  -0.909  0.00  0.00    +0.156 A 
ATOM     25  O   UNL     1       4.788  10.081  -0.940  0.00  0.00    -0.431 OA
ENDBRANCH  16  17
ENDBRANCH  15  16
ENDBRANCH   4  15
TORSDOF 5
