REMARK  Name = ZINC40028360
REMARK  8 active torsions:
REMARK  status: ('A' for Active; 'I' for Inactive)
REMARK    1  A    between atoms: C_2  and  C_3
REMARK    2  A    between atoms: C_3  and  N_4
REMARK    3  A    between atoms: C_5  and  C_23
REMARK    4  A    between atoms: C_7  and  C_12
REMARK    5  A    between atoms: C_12  and  C_14
REMARK    6  A    between atoms: C_26  and  O_29
REMARK    7  A    between atoms: O_29  and  C_30
REMARK    8  A    between atoms: C_30  and  C_31
REMARK                            x       y       z     vdW  Elec       q    Type
REMARK                         _______ _______ _______ _____ _____    ______ ____
ROOT
ATOM      1  N   UNL     1       1.318  -1.670   1.094  0.00  0.00    -0.280 N 
ATOM      2  C   UNL     1       1.872  -1.371   2.420  0.00  0.00    +0.145 C 
ATOM      3  C   UNL     1       1.749  -2.645   3.224  0.00  0.00    +0.079 C 
ATOM      4  C   UNL     1       1.178  -3.565   2.412  0.00  0.00    +0.249 C 
ATOM      5  C   UNL     1       0.909  -2.952   1.096  0.00  0.00    +0.288 C 
ATOM      6  O   UNL     1       0.397  -3.521   0.153  0.00  0.00    -0.266 OA
ATOM      7  O   UNL     1       0.894  -4.843   2.754  0.00  0.00    -0.282 OA
ENDROOT
BRANCH   2   8
ATOM      8  C   UNL     1       3.319  -0.971   2.300  0.00  0.00    -0.022 A 
ATOM      9  C   UNL     1       4.174  -1.703   1.496  0.00  0.00    +0.009 A 
ATOM     10  C   UNL     1       5.501  -1.339   1.385  0.00  0.00    +0.046 A 
ATOM     11  C   UNL     1       5.977  -0.235   2.079  0.00  0.00    +0.121 A 
ATOM     12  C   UNL     1       5.118   0.498   2.883  0.00  0.00    +0.046 A 
ATOM     13  C   UNL     1       3.790   0.132   2.988  0.00  0.00    +0.009 A 
BRANCH  11  14
ATOM     14  O   UNL     1       7.283   0.125   1.970  0.00  0.00    -0.483 OA
BRANCH  14  15
ATOM     15  C   UNL     1       7.703   1.271   2.713  0.00  0.00    +0.324 C 
BRANCH  15  16
ATOM     16  C   UNL     1       9.170   1.517   2.471  0.00  0.00    +0.248 C 
ATOM     17  O   UNL     1       9.794   0.783   1.735  0.00  0.00    -0.272 OA
ATOM     18  N   UNL     1       9.788   2.553   3.073  0.00  0.00    -0.327 N 
ATOM     19  H   UNL     1       9.289   3.140   3.662  0.00  0.00    +0.145 HD
ATOM     20  H   UNL     1      10.732   2.711   2.917  0.00  0.00    +0.145 HD
ENDBRANCH  15  16
ENDBRANCH  14  15
ENDBRANCH  11  14
ENDBRANCH   2   8
BRANCH   3  21
ATOM     21  C   UNL     1       2.168  -2.845   4.615  0.00  0.00    +0.230 C 
ATOM     22  O   UNL     1       3.076  -3.616   4.873  0.00  0.00    -0.283 OA
BRANCH  21  23
ATOM     23  C   UNL     1       1.493  -2.117   5.698  0.00  0.00    +0.176 A 
ATOM     24  C   UNL     1       1.858  -2.147   7.009  0.00  0.00    +0.061 A 
ATOM     25  C   UNL     1       0.912  -1.282   7.712  0.00  0.00    +0.021 A 
ATOM     26  C   UNL     1       0.748  -0.900   9.046  0.00  0.00    +0.011 A 
ATOM     27  C   UNL     1      -0.267  -0.052   9.387  0.00  0.00    +0.001 A 
ATOM     28  C   UNL     1      -1.136   0.431   8.418  0.00  0.00    +0.004 A 
ATOM     29  C   UNL     1      -0.992   0.066   7.097  0.00  0.00    +0.047 A 
ATOM     30  C   UNL     1       0.034  -0.795   6.725  0.00  0.00    +0.136 A 
ATOM     31  O   UNL     1       0.421  -1.313   5.543  0.00  0.00    -0.452 OA
ENDBRANCH  21  23
ENDBRANCH   3  21
BRANCH   1  32
ATOM     32  C   UNL     1       1.223  -0.736  -0.030  0.00  0.00    +0.136 C 
BRANCH  32  34
ATOM     33  C   UNL     1      -0.117   1.304   0.040  0.00  0.00    +0.005 C 
ATOM     34  C   UNL     1      -0.094  -0.006   0.034  0.00  0.00    -0.016 C 
ENDBRANCH  32  34
ENDBRANCH   1  32
TORSDOF 8
