REMARK  Name = ZINC27533356
REMARK  6 active torsions:
REMARK  status: ('A' for Active; 'I' for Inactive)
REMARK    1  A    between atoms: C_1  and  O_2
REMARK    2  A    between atoms: O_2  and  C_3
REMARK    3  A    between atoms: C_3  and  C_5
REMARK    4  A    between atoms: C_6  and  N_33
REMARK    5  A    between atoms: C_10  and  C_12
REMARK    6  A    between atoms: C_24  and  C_27
REMARK                            x       y       z     vdW  Elec       q    Type
REMARK                         _______ _______ _______ _____ _____    ______ ____
ROOT
ATOM      1  C   UNL     1      -2.363   0.930  -0.085  0.00  0.00    +0.105 C 
ATOM      2  C   UNL     1      -1.205   1.636  -0.007  0.00  0.00    +0.195 C 
ATOM      3  O   UNL     1      -1.210   2.972   0.107  0.00  0.00    -0.446 OA
ATOM      4  C   UNL     1      -2.289   3.674  -0.295  0.00  0.00    +0.115 C 
ATOM      5  C   UNL     1      -3.502   3.101  -0.384  0.00  0.00    +0.045 C 
ATOM      6  C   UNL     1      -3.688   1.639  -0.055  0.00  0.00    +0.098 C 
ATOM      7  C   UNL     1      -4.634   3.840  -0.781  0.00  0.00    +0.164 C 
ATOM      8  O   UNL     1      -5.710   3.284  -0.865  0.00  0.00    -0.292 OA
ATOM      9  C   UNL     1      -4.533   5.306  -1.104  0.00  0.00    +0.088 C 
ATOM     10  C   UNL     1      -3.373   5.910  -0.305  0.00  0.00    +0.034 C 
ATOM     11  C   UNL     1      -2.098   5.133  -0.638  0.00  0.00    +0.083 C 
ENDROOT
BRANCH   6  12
ATOM     12  C   UNL     1      -4.294   1.509   1.319  0.00  0.00    -0.031 A 
ATOM     13  C   UNL     1      -3.620   2.007   2.419  0.00  0.00    +0.008 A 
ATOM     14  C   UNL     1      -4.171   1.890   3.682  0.00  0.00    +0.050 A 
ATOM     15  C   UNL     1      -5.400   1.272   3.848  0.00  0.00    +0.166 A 
ATOM     16  C   UNL     1      -6.079   0.771   2.739  0.00  0.00    +0.167 A 
ATOM     17  C   UNL     1      -5.523   0.897   1.476  0.00  0.00    +0.054 A 
ATOM     18  O   UNL     1      -7.253   0.217   3.160  0.00  0.00    -0.453 OA
ATOM     19  C   UNL     1      -7.476   0.746   4.481  0.00  0.00    +0.466 C 
ATOM     20  O   UNL     1      -6.150   1.032   4.963  0.00  0.00    -0.453 OA
ENDBRANCH   6  12
BRANCH  10  21
ATOM     21  C   UNL     1      -3.197   7.358  -0.685  0.00  0.00    -0.043 A 
ATOM     22  C   UNL     1      -2.906   7.699  -1.992  0.00  0.00    +0.004 A 
ATOM     23  C   UNL     1      -2.748   9.027  -2.341  0.00  0.00    +0.000 A 
ATOM     24  C   UNL     1      -2.873  10.014  -1.381  0.00  0.00    +0.000 A 
ATOM     25  C   UNL     1      -3.159   9.672  -0.072  0.00  0.00    +0.000 A 
ATOM     26  C   UNL     1      -3.320   8.344   0.276  0.00  0.00    +0.004 A 
ENDBRANCH  10  21
BRANCH   2  27
ATOM     27  N   UNL     1      -0.010   0.970  -0.040  0.00  0.00    -0.329 N 
ATOM     28  H   UNL     1       0.934   1.530   0.022  0.00  0.00    +0.145 HD
ATOM     29  H   UNL     1       0.006  -0.127  -0.129  0.00  0.00    +0.145 HD
ENDBRANCH   2  27
BRANCH   1  30
ATOM     30  C   UNL     1      -2.322  -0.469  -0.194  0.00  0.00    +0.341 C 
ATOM     31  O   UNL     1      -1.258  -1.055  -0.107  0.00  0.00    -0.245 OA
BRANCH  30  33
ATOM     32  C   UNL     1      -3.346  -2.584  -0.499  0.00  0.00    +0.280 C 
ATOM     33  O   UNL     1      -3.462  -1.164  -0.397  0.00  0.00    -0.465 OA
ENDBRANCH  30  33
ENDBRANCH   1  30
TORSDOF 5
