REMARK  Name = ZINC09125645
REMARK  9 active torsions:
REMARK  status: ('A' for Active; 'I' for Inactive)
REMARK    1  A    between atoms: C_1  and  C_2
REMARK    2  A    between atoms: C_2  and  C_4
REMARK    3  A    between atoms: C_2  and  N_46
REMARK    4  A    between atoms: C_11  and  C_13
REMARK    5  A    between atoms: C_11  and  C_14
REMARK    6  A    between atoms: C_11  and  N_46
REMARK    7  A    between atoms: N_16  and  C_17
REMARK    8  A    between atoms: C_17  and  C_18
REMARK    9  A    between atoms: N_20  and  C_21
REMARK                            x       y       z     vdW  Elec       q    Type
REMARK                         _______ _______ _______ _____ _____    ______ ____
ROOT
ATOM      1  C   UNL     1      -1.155  -4.770  -1.147  0.00  0.00    +0.199 C 
ATOM      2  O   UNL     1      -2.150  -4.224  -0.720  0.00  0.00    -0.278 OA
ATOM      3  N   UNL     1      -1.232  -6.023  -1.638  0.00  0.00    -0.308 N 
ATOM      4  H   UNL     1      -0.436  -6.460  -1.980  0.00  0.00    +0.149 HD
ENDROOT
BRANCH   1   5
ATOM      5  C   UNL     1       0.168  -4.049  -1.127  0.00  0.00    +0.014 C 
ATOM      6  C   UNL     1       0.699  -3.918  -2.555  0.00  0.00    -0.004 C 
BRANCH   5   7
ATOM      7  N   UNL     1      -0.021  -2.706  -0.547  0.00  0.00    +0.391 N 
ATOM      8  H   UNL     1      -0.330  -2.060  -1.283  0.00  0.00    -0.084 HD
ATOM      9  H   UNL     1      -0.736  -2.752   0.189  0.00  0.00    -0.084 HD
BRANCH   7  11
ATOM     10  C   UNL     1       1.389  -2.742   1.461  0.00  0.00    -0.009 C 
ATOM     11  C   UNL     1       1.243  -2.215   0.032  0.00  0.00    -0.042 C 
BRANCH  11  12
ATOM     12  C   UNL     1       1.226  -0.708   0.052  0.00  0.00    -0.048 A 
ATOM     13  C   UNL     1       0.021  -0.030   0.073  0.00  0.00    +0.003 A 
ATOM     14  C   UNL     1       0.005   1.351   0.092  0.00  0.00    +0.000 A 
ATOM     15  C   UNL     1       1.194   2.057   0.090  0.00  0.00    +0.001 A 
ATOM     16  C   UNL     1       2.399   1.381   0.069  0.00  0.00    +0.015 A 
ATOM     17  C   UNL     1       2.416  -0.003   0.050  0.00  0.00    +0.019 A 
ATOM     18 BR   UNL     1       4.064  -0.928   0.022  0.00  0.00    -0.050 Br
ENDBRANCH  11  12
ENDBRANCH   7  11
ENDBRANCH   5   7
ENDBRANCH   1   5
BRANCH   3  19
ATOM     19  C   UNL     1      -2.518  -6.724  -1.658  0.00  0.00    +0.200 C 
BRANCH  19  20
ATOM     20  C   UNL     1      -2.333  -8.096  -2.252  0.00  0.00    +0.234 C 
ATOM     21  O   UNL     1      -1.235  -8.454  -2.623  0.00  0.00    -0.274 OA
ATOM     22  N   UNL     1      -3.388  -8.927  -2.372  0.00  0.00    -0.282 N 
ATOM     23  H   UNL     1      -4.252  -8.667  -2.017  0.00  0.00    +0.155 HD
BRANCH  22  24
ATOM     24  C   UNL     1      -3.236 -10.166  -3.009  0.00  0.00    +0.072 A 
ATOM     25  C   UNL     1      -2.046 -10.869  -2.885  0.00  0.00    +0.029 A 
ATOM     26  C   UNL     1      -1.898 -12.093  -3.509  0.00  0.00    +0.043 A 
ATOM     27  C   UNL     1      -2.932 -12.615  -4.268  0.00  0.00    +0.161 A 
ATOM     28  C   UNL     1      -4.120 -11.913  -4.399  0.00  0.00    +0.195 A 
ATOM     29  C   UNL     1      -4.274 -10.689  -3.770  0.00  0.00    +0.182 A 
ATOM     30  F   UNL     1      -5.432 -10.004  -3.897  0.00  0.00    -0.200 F 
ATOM     31  F   UNL     1      -5.128 -12.423  -5.140  0.00  0.00    -0.199 F 
ATOM     32  F   UNL     1      -2.782 -13.809  -4.881  0.00  0.00    -0.202 F 
ENDBRANCH  22  24
ENDBRANCH  19  20
ENDBRANCH   3  19
TORSDOF 7
