REMARK  Name = ZINC50212826
REMARK  5 active torsions:
REMARK  status: ('A' for Active; 'I' for Inactive)
REMARK    1  A    between atoms: C_5  and  S_7
REMARK    2  A    between atoms: S_7  and  C_8
REMARK    3  A    between atoms: C_11  and  C_17
REMARK    4  A    between atoms: C_13  and  N_14
REMARK    5  A    between atoms: N_18  and  O_19
REMARK                            x       y       z     vdW  Elec       q    Type
REMARK                         _______ _______ _______ _____ _____    ______ ____
ROOT
ATOM      1  C   UNL     1      -0.433  -2.932   0.238  0.00  0.00    +0.043 A 
ATOM      2  C   UNL     1      -1.412  -1.945   0.167  0.00  0.00    +0.018 A 
ATOM      3  C   UNL     1      -2.743  -2.286   0.262  0.00  0.00    +0.012 A 
ATOM      4  C   UNL     1      -3.110  -3.623   0.429  0.00  0.00    +0.020 A 
ATOM      5  C   UNL     1      -2.126  -4.611   0.500  0.00  0.00    +0.045 A 
ATOM      6  C   UNL     1      -0.796  -4.265   0.400  0.00  0.00    +0.141 A 
ENDROOT
BRANCH   4   7
ATOM      7  C   UNL     1      -4.538  -3.992   0.532  0.00  0.00    +0.162 C 
ATOM      8  N   UNL     1      -4.930  -5.183   0.182  0.00  0.00    -0.072 NA
ATOM      9  N   UNL     1      -5.459  -3.070   1.000  0.00  0.00    -0.340 N 
ATOM     10  H   UNL     1      -5.168  -2.182   1.261  0.00  0.00    +0.144 HD
ATOM     11  H   UNL     1      -6.396  -3.312   1.068  0.00  0.00    +0.144 HD
BRANCH   8  12
ATOM     12  O   UNL     1      -4.017  -6.077  -0.428  0.00  0.00    -0.408 OA
ATOM     13  H   UNL     1      -4.399  -6.937  -0.652  0.00  0.00    +0.328 HD
ENDBRANCH   8  12
ENDBRANCH   4   7
BRANCH   6  14
ATOM     14  N   UNL     1       0.247  -5.313   0.470  0.00  0.00    +0.058 N 
ATOM     15  O   UNL     1      -0.068  -6.472   0.610  0.00  0.00    -0.126 OA
ATOM     16  O   UNL     1       1.415  -5.010   0.386  0.00  0.00    -0.126 OA
ENDBRANCH   6  14
BRANCH   1  17
ATOM     17  S   UNL     1       1.269  -2.492   0.117  0.00  0.00    -0.086 S 
BRANCH  17  22
ATOM     18  C   UNL     1       1.575   1.389   1.127  0.00  0.00    +0.001 A 
ATOM     19  C   UNL     1       1.222   2.034  -0.044  0.00  0.00    +0.001 A 
ATOM     20  C   UNL     1       0.883   1.302  -1.167  0.00  0.00    +0.021 A 
ATOM     21  C   UNL     1       0.897  -0.080  -1.122  0.00  0.00    +0.055 A 
ATOM     22  C   UNL     1       1.251  -0.732   0.054  0.00  0.00    +0.031 A 
ATOM     23  C   UNL     1       1.591   0.009   1.180  0.00  0.00    +0.016 A 
ATOM     24 CL   UNL     1       0.471  -0.999  -2.531  0.00  0.00    -0.082 Cl
ENDBRANCH  17  22
ENDBRANCH   1  17
TORSDOF 5
