REMARK  Name = ZINC63374606
REMARK  5 active torsions:
REMARK  status: ('A' for Active; 'I' for Inactive)
REMARK    1  A    between atoms: C_1  and  C_2
REMARK    2  A    between atoms: C_13  and  C_24
REMARK    3  A    between atoms: N_20  and  N_23
REMARK    4  A    between atoms: C_29  and  O_30
REMARK    5  A    between atoms: O_30  and  C_31
REMARK                            x       y       z     vdW  Elec       q    Type
REMARK                         _______ _______ _______ _____ _____    ______ ____
ROOT
ATOM      1  C   UNL     1      -0.019   1.526   0.010  0.00  0.00    +0.044 C 
ATOM      2  C   UNL     1       0.002  -0.004   0.002  0.00  0.00    +0.136 C 
ATOM      3  C   UNL     1       0.771  -0.482  -1.235  0.00  0.00    +0.139 C 
ATOM      4  C   UNL     1       2.228  -0.097  -1.013  0.00  0.00    -0.027 C 
ATOM      5  C   UNL     1       2.586   0.634  -2.062  0.00  0.00    -0.000 A 
ATOM      6  C   UNL     1       3.877   1.225  -2.450  0.00  0.00    +0.010 A 
ATOM      7  C   UNL     1       3.886   1.939  -3.606  0.00  0.00    +0.001 A 
ATOM      8  C   UNL     1       2.753   2.124  -4.405  0.00  0.00    +0.002 A 
ATOM      9  C   UNL     1       1.528   1.613  -4.128  0.00  0.00    +0.026 A 
ATOM     10  C   UNL     1       1.393   0.837  -2.940  0.00  0.00    +0.043 A 
ATOM     11  N   UNL     1       0.339   0.210  -2.450  0.00  0.00    -0.375 N 
ATOM     12  C   UNL     1       2.979  -0.467   0.242  0.00  0.00    +0.068 C 
ATOM     13  C   UNL     1       2.101  -0.031   1.428  0.00  0.00    +0.121 C 
ATOM     14  N   UNL     1       0.713  -0.474   1.192  0.00  0.00    -0.283 N 
ATOM     15  C   UNL     1       0.152  -1.296   2.087  0.00  0.00    +0.235 C 
ATOM     16  O   UNL     1       0.833  -1.652   3.026  0.00  0.00    -0.274 OA
ATOM     17  C   UNL     1      -1.249  -1.806   2.016  0.00  0.00    +0.222 C 
ATOM     18  N   UNL     1      -1.959  -1.298   0.854  0.00  0.00    -0.229 N 
ATOM     19  C   UNL     1      -1.402  -0.506  -0.060  0.00  0.00    +0.255 C 
ATOM     20  O   UNL     1      -2.087  -0.157  -0.999  0.00  0.00    -0.272 OA
ATOM     21  H   UNL     1      -0.559   0.206  -2.816  0.00  0.00    +0.160 HD
ENDROOT
BRANCH  12  22
ATOM     22  C   UNL     1       4.301   0.256   0.284  0.00  0.00    +0.003 A 
ATOM     23  C   UNL     1       4.334   1.637   0.286  0.00  0.00    +0.008 A 
ATOM     24  C   UNL     1       5.546   2.300   0.324  0.00  0.00    +0.001 A 
ATOM     25  C   UNL     1       6.728   1.584   0.361  0.00  0.00    +0.004 A 
ATOM     26  C   UNL     1       6.700   0.203   0.360  0.00  0.00    +0.046 A 
ATOM     27  C   UNL     1       5.485  -0.466   0.327  0.00  0.00    +0.124 A 
BRANCH  27  28
ATOM     28  O   UNL     1       5.454  -1.824   0.332  0.00  0.00    -0.495 OA
ATOM     29  C   UNL     1       6.712  -2.501   0.377  0.00  0.00    +0.277 C 
ENDBRANCH  27  28
ENDBRANCH  12  22
BRANCH  18  30
ATOM     30  N   UNL     1      -3.262  -1.667   0.681  0.00  0.00    -0.251 NA
ATOM     31  H   UNL     1      -3.567  -2.276   1.426  0.00  0.00    +0.141 HD
ATOM     32  H   UNL     1      -3.861  -0.859   0.606  0.00  0.00    +0.141 HD
ENDBRANCH  18  30
TORSDOF 3
