REMARK  Name = ZINC29710626
REMARK  4 active torsions:
REMARK  status: ('A' for Active; 'I' for Inactive)
REMARK    1  A    between atoms: C_4  and  C_17
REMARK    2  A    between atoms: C_6  and  N_7
REMARK    3  A    between atoms: C_8  and  C_10
REMARK    4  A    between atoms: C_10  and  N_11
REMARK                            x       y       z     vdW  Elec       q    Type
REMARK                         _______ _______ _______ _____ _____    ______ ____
ROOT
ATOM      1  C   UNL     1      -0.021   1.324  -0.200  0.00  0.00    +0.025 A 
ATOM      2  C   UNL     1       1.146   2.061  -0.271  0.00  0.00    +0.022 A 
ATOM      3  C   UNL     1       2.367   1.449  -0.061  0.00  0.00    +0.052 A 
ATOM      4  C   UNL     1       2.423   0.083   0.225  0.00  0.00    +0.039 A 
ATOM      5  C   UNL     1       1.245  -0.658   0.297  0.00  0.00    +0.036 A 
ATOM      6  C   UNL     1       0.025  -0.035   0.084  0.00  0.00    +0.034 A 
ATOM      7 CL   UNL     1       3.831   2.378  -0.153  0.00  0.00    -0.083 Cl
ENDROOT
BRANCH   4   8
ATOM      8  C   UNL     1       3.729  -0.575   0.450  0.00  0.00    +0.166 A 
ATOM      9  N   UNL     1       4.808  -0.452  -0.294  0.00  0.00    -0.129 NA
ATOM     10  N   UNL     1       5.761  -1.161   0.203  0.00  0.00    -0.134 NA
ATOM     11  C   UNL     1       5.349  -1.766   1.281  0.00  0.00    +0.134 A 
ATOM     12  N   UNL     1       4.048  -1.421   1.471  0.00  0.00    -0.311 N 
ATOM     13  C   UNL     1       3.172  -1.885   2.547  0.00  0.00    +0.125 C 
ATOM     14  C   UNL     1       4.016  -2.217   3.781  0.00  0.00    +0.022 C 
ATOM     15  C   UNL     1       4.462  -3.677   3.721  0.00  0.00    +0.002 C 
ATOM     16  C   UNL     1       5.328  -3.924   2.490  0.00  0.00    +0.008 C 
ATOM     17  C   UNL     1       6.150  -2.676   2.177  0.00  0.00    +0.076 C 
ENDBRANCH   4   8
BRANCH   6  18
ATOM     18  N   UNL     1      -1.161  -0.776   0.155  0.00  0.00    -0.284 N 
ATOM     19  C   UNL     1      -1.187  -2.050  -0.284  0.00  0.00    +0.235 C 
ATOM     20  O   UNL     1      -0.165  -2.581  -0.664  0.00  0.00    -0.274 OA
ATOM     21  H   UNL     1      -1.964  -0.372   0.520  0.00  0.00    +0.155 HD
BRANCH  19  22
ATOM     22  C   UNL     1      -2.486  -2.814  -0.302  0.00  0.00    +0.204 C 
BRANCH  22  23
ATOM     23  N   UNL     1      -2.250  -4.165  -0.818  0.00  0.00    -0.283 N 
ATOM     24  C   UNL     1      -2.350  -4.439  -2.264  0.00  0.00    +0.178 C 
ATOM     25  S   UNL     1      -1.529  -6.087  -2.377  0.00  0.00    -0.132 S 
ATOM     26  C   UNL     1      -1.706  -6.530  -0.594  0.00  0.00    +0.166 C 
ATOM     27  C   UNL     1      -1.939  -5.154   0.010  0.00  0.00    +0.227 C 
ATOM     28  O   UNL     1      -1.847  -4.968   1.205  0.00  0.00    -0.275 OA
ENDBRANCH  22  23
ENDBRANCH  19  22
ENDBRANCH   6  18
TORSDOF 4
