REMARK  Name = ZINC21119731
REMARK  15 active torsions:
REMARK  status: ('A' for Active; 'I' for Inactive)
REMARK    1  A    between atoms: C_1  and  C_2
REMARK    2  A    between atoms: C_2  and  O_3
REMARK    3  A    between atoms: O_3  and  C_4
REMARK    4  A    between atoms: C_4  and  C_6
REMARK    5  A    between atoms: C_7  and  C_35
REMARK    6  A    between atoms: C_8  and  C_13
REMARK    7  A    between atoms: C_11  and  C_12
REMARK    8  A    between atoms: C_13  and  C_15
REMARK    9  A    between atoms: C_15  and  C_17
REMARK   10  A    between atoms: C_15  and  O_18
REMARK   11  A    between atoms: O_18  and  C_19
REMARK   12  A    between atoms: C_19  and  C_21
REMARK   13  A    between atoms: C_21  and  C_22
REMARK   14  A    between atoms: C_22  and  C_24
REMARK   15  A    between atoms: C_22  and  N_31
REMARK                            x       y       z     vdW  Elec       q    Type
REMARK                         _______ _______ _______ _____ _____    ______ ____
ROOT
ATOM      1  O   UNL     1      -4.834   2.864   0.190  0.00  0.00    -0.453 OA
ENDROOT
BRANCH   1   2
ATOM      2  C   UNL     1      -3.720   3.696  -0.228  0.00  0.00    +0.245 C 
ATOM      3  C   UNL     1      -4.080   4.415  -1.529  0.00  0.00    +0.061 C 
BRANCH   2   4
ATOM      4  C   UNL     1      -2.505   2.833  -0.450  0.00  0.00    +0.219 C 
ATOM      5  O   UNL     1      -2.633   1.639  -0.634  0.00  0.00    -0.287 OA
BRANCH   4   8
ATOM      6  C   UNL     1       1.004   3.708  -0.556  0.00  0.00    +0.083 A 
ATOM      7  C   UNL     1      -0.024   2.744  -0.634  0.00  0.00    -0.008 A 
ATOM      8  C   UNL     1      -1.214   3.413  -0.445  0.00  0.00    +0.090 A 
ATOM      9  N   UNL     1      -0.926   4.748  -0.246  0.00  0.00    -0.355 N 
ATOM     10  H   UNL     1      -1.740   5.466  -0.067  0.00  0.00    +0.166 HD
ATOM     11  C   UNL     1       0.401   4.930  -0.315  0.00  0.00    +0.028 A 
ATOM     12  C   UNL     1       1.117   6.247  -0.157  0.00  0.00    +0.064 C 
ATOM     13  C   UNL     1       0.146   1.267  -0.883  0.00  0.00    +0.047 C 
BRANCH   6  14
ATOM     14  C   UNL     1       2.448   3.460  -0.703  0.00  0.00    +0.341 C 
ATOM     15  O   UNL     1       2.967   3.524  -1.800  0.00  0.00    -0.245 OA
BRANCH  14  16
ATOM     16  O   UNL     1       3.195   3.161   0.379  0.00  0.00    -0.461 OA
BRANCH  16  18
ATOM     17  C   UNL     1       5.288   2.607   1.493  0.00  0.00    +0.048 C 
ATOM     18  C   UNL     1       4.611   2.929   0.159  0.00  0.00    +0.229 C 
ENDBRANCH  16  18
ENDBRANCH  14  16
ENDBRANCH   6  14
ENDBRANCH   4   8
ENDBRANCH   2   4
ENDBRANCH   1   2
BRANCH   1  19
ATOM     19  C   UNL     1      -5.749   3.429   0.993  0.00  0.00    +0.310 C 
ATOM     20  O   UNL     1      -5.622   4.580   1.337  0.00  0.00    -0.251 OA
BRANCH  19  21
ATOM     21  C   UNL     1      -6.934   2.627   1.467  0.00  0.00    +0.147 C 
BRANCH  21  22
ATOM     22  C   UNL     1      -7.815   3.500   2.363  0.00  0.00    +0.115 C 
BRANCH  22  23
ATOM     23  C   UNL     1      -9.060   2.739   2.737  0.00  0.00    -0.027 A 
ATOM     24  C   UNL     1      -9.527   1.731   1.915  0.00  0.00    +0.007 A 
ATOM     25  C   UNL     1     -10.667   1.028   2.260  0.00  0.00    +0.020 A 
ATOM     26  C   UNL     1     -11.346   1.342   3.424  0.00  0.00    +0.041 A 
ATOM     27  C   UNL     1     -10.881   2.355   4.244  0.00  0.00    +0.020 A 
ATOM     28  C   UNL     1      -9.739   3.052   3.901  0.00  0.00    +0.007 A 
ATOM     29 CL   UNL     1     -12.781   0.466   3.855  0.00  0.00    -0.084 Cl
ENDBRANCH  22  23
BRANCH  22  30
ATOM     30  N   UNL     1      -7.076   3.855   3.578  0.00  0.00    -0.292 N 
ATOM     31  C   UNL     1      -6.697   2.892   4.441  0.00  0.00    +0.298 C 
ATOM     32  O   UNL     1      -6.884   1.722   4.168  0.00  0.00    -0.253 OA
ATOM     33  N   UNL     1      -6.110   3.227   5.608  0.00  0.00    -0.313 N 
ATOM     34  H   UNL     1      -6.831   4.907   3.784  0.00  0.00    +0.151 HD
ATOM     35  H   UNL     1      -5.801   2.441   6.313  0.00  0.00    +0.146 HD
ATOM     36  H   UNL     1      -5.941   4.285   5.855  0.00  0.00    +0.146 HD
ENDBRANCH  22  30
ENDBRANCH  21  22
ENDBRANCH  19  21
ENDBRANCH   1  19
TORSDOF 11
