REMARK  Name = ZINC59513428
REMARK  7 active torsions:
REMARK  status: ('A' for Active; 'I' for Inactive)
REMARK    1  A    between atoms: C_2  and  C_3
REMARK    2  A    between atoms: C_3  and  N_4
REMARK    3  A    between atoms: C_8  and  N_24
REMARK    4  A    between atoms: C_10  and  S_11
REMARK    5  A    between atoms: S_11  and  C_12
REMARK    6  A    between atoms: C_12  and  C_13
REMARK    7  A    between atoms: N_15  and  C_16
REMARK                            x       y       z     vdW  Elec       q    Type
REMARK                         _______ _______ _______ _____ _____    ______ ____
ROOT
ATOM      1  S   UNL     1       0.269  -3.454  -0.604  0.00  0.00    -0.078 S 
ENDROOT
BRANCH   1   8
ATOM      2  N   UNL     1       1.378  -1.679   1.109  0.00  0.00    -0.284 N 
ATOM      3  C   UNL     1       1.878  -1.278   2.296  0.00  0.00    +0.257 A 
ATOM      4  O   UNL     1       2.282  -0.136   2.446  0.00  0.00    -0.268 OA
ATOM      5  C   UNL     1       1.924  -2.192   3.353  0.00  0.00    +0.113 A 
ATOM      6  C   UNL     1       1.454  -3.481   3.142  0.00  0.00    +0.124 A 
ATOM      7  N   UNL     1       0.969  -3.823   1.943  0.00  0.00    -0.209 NA
ATOM      8  C   UNL     1       0.924  -2.954   0.954  0.00  0.00    +0.174 A 
BRANCH   6   9
ATOM      9  N   UNL     1       1.486  -4.407   4.166  0.00  0.00    -0.343 N 
ATOM     10  H   UNL     1       1.838  -4.157   5.034  0.00  0.00    +0.144 HD
ATOM     11  H   UNL     1       1.157  -5.307   4.016  0.00  0.00    +0.144 HD
ENDBRANCH   6   9
BRANCH   2  12
ATOM     12  C   UNL     1       1.319  -0.741  -0.014  0.00  0.00    +0.154 C 
BRANCH  12  14
ATOM     13  C   UNL     1      -0.017   1.303   0.024  0.00  0.00    +0.005 C 
ATOM     14  C   UNL     1       0.003  -0.007   0.013  0.00  0.00    -0.013 C 
ENDBRANCH  12  14
ENDBRANCH   2  12
ENDBRANCH   1   8
BRANCH   1  15
ATOM     15  C   UNL     1      -0.200  -5.187  -0.347  0.00  0.00    +0.173 C 
BRANCH  15  16
ATOM     16  C   UNL     1      -0.782  -5.744  -1.621  0.00  0.00    +0.227 C 
ATOM     17  O   UNL     1      -0.872  -5.040  -2.605  0.00  0.00    -0.275 OA
ATOM     18  N   UNL     1      -1.203  -7.023  -1.667  0.00  0.00    -0.285 N 
ATOM     19  H   UNL     1      -1.070  -7.605  -0.902  0.00  0.00    +0.155 HD
BRANCH  18  20
ATOM     20  C   UNL     1      -1.832  -7.512  -2.817  0.00  0.00    +0.035 A 
ATOM     21  C   UNL     1      -2.861  -8.438  -2.707  0.00  0.00    +0.038 A 
ATOM     22  C   UNL     1      -3.480  -8.919  -3.845  0.00  0.00    +0.021 A 
ATOM     23  C   UNL     1      -3.076  -8.480  -5.093  0.00  0.00    +0.030 A 
ATOM     24  C   UNL     1      -2.050  -7.558  -5.205  0.00  0.00    +0.021 A 
ATOM     25  C   UNL     1      -1.432  -7.069  -4.071  0.00  0.00    +0.038 A 
ATOM     26 BR   UNL     1      -1.500  -6.961  -6.913  0.00  0.00    -0.050 Br
ATOM     27 BR   UNL     1      -4.882 -10.181  -3.696  0.00  0.00    -0.050 Br
ENDBRANCH  18  20
ENDBRANCH  15  16
ENDBRANCH   1  15
TORSDOF 7
