REMARK  Name = ZINC63772693
REMARK  10 active torsions:
REMARK  status: ('A' for Active; 'I' for Inactive)
REMARK    1  A    between atoms: C_1  and  C_2
REMARK    2  A    between atoms: C_2  and  C_3
REMARK    3  A    between atoms: C_2  and  C_4
REMARK    4  A    between atoms: C_2  and  N_5
REMARK    5  A    between atoms: C_9  and  C_11
REMARK    6  A    between atoms: C_11  and  O_12
REMARK    7  A    between atoms: O_12  and  C_13
REMARK    8  A    between atoms: C_13  and  C_15
REMARK    9  A    between atoms: C_15  and  C_16
REMARK   10  A    between atoms: C_16  and  C_17
REMARK                            x       y       z     vdW  Elec       q    Type
REMARK                         _______ _______ _______ _____ _____    ______ ____
ROOT
ATOM      1  O   UNL     1       5.932  -0.214  -4.010  0.00  0.00    -0.455 OA
ENDROOT
BRANCH   1   2
ATOM      2  C   UNL     1       6.701  -0.558  -5.055  0.00  0.00    +0.308 C 
ATOM      3  O   UNL     1       6.250  -1.257  -5.932  0.00  0.00    -0.251 OA
BRANCH   2   4
ATOM      4  C   UNL     1       8.126  -0.074  -5.134  0.00  0.00    +0.125 C 
BRANCH   4   5
ATOM      5  C   UNL     1       8.774  -0.606  -6.414  0.00  0.00    +0.044 C 
BRANCH   5   6
ATOM      6  C   UNL     1      10.199  -0.121  -6.493  0.00  0.00    -0.041 C 
ATOM      7  C   UNL     1      11.307  -0.785  -6.092  0.00  0.00    -0.001 A 
ATOM      8  C   UNL     1      11.510  -2.106  -5.484  0.00  0.00    +0.010 A 
ATOM      9  C   UNL     1      12.767  -2.505  -5.186  0.00  0.00    +0.001 A 
ATOM     10  C   UNL     1      13.879  -1.691  -5.442  0.00  0.00    +0.002 A 
ATOM     11  C   UNL     1      13.773  -0.466  -5.998  0.00  0.00    +0.026 A 
ATOM     12  C   UNL     1      12.498   0.055  -6.353  0.00  0.00    +0.043 A 
ATOM     13  N   UNL     1      12.140   1.194  -6.894  0.00  0.00    -0.380 N 
ATOM     14  C   UNL     1      10.680   1.203  -7.043  0.00  0.00    +0.144 C 
ATOM     15  H   UNL     1      12.740   1.910  -7.155  0.00  0.00    +0.160 HD
ENDBRANCH   5   6
ENDBRANCH   4   5
ENDBRANCH   2   4
ENDBRANCH   1   2
BRANCH   1  16
ATOM     16  C   UNL     1       4.591  -0.709  -3.999  0.00  0.00    +0.328 C 
BRANCH  16  21
ATOM     17  N   UNL     1       0.688  -0.476  -1.203  0.00  0.00    -0.294 N 
ATOM     18  C   UNL     1       1.972  -0.132  -1.427  0.00  0.00    +0.306 C 
ATOM     19  O   UNL     1       2.560   0.570  -0.629  0.00  0.00    -0.252 OA
ATOM     20  N   UNL     1       2.602  -0.567  -2.536  0.00  0.00    -0.237 N 
ATOM     21  C   UNL     1       3.886  -0.223  -2.760  0.00  0.00    +0.258 C 
ATOM     22  O   UNL     1       4.473   0.478  -1.963  0.00  0.00    -0.272 OA
ATOM     23  H   UNL     1       0.218  -1.037  -1.840  0.00  0.00    +0.151 HD
ATOM     24  H   UNL     1       2.132  -1.127  -3.173  0.00  0.00    +0.159 HD
BRANCH  17  26
ATOM     25  C   UNL     1      -0.019   1.526   0.010  0.00  0.00    +0.031 C 
ATOM     26  C   UNL     1       0.002  -0.004   0.002  0.00  0.00    +0.028 C 
ATOM     27  C   UNL     1       0.742  -0.511   1.242  0.00  0.00    +0.031 C 
ATOM     28  C   UNL     1      -1.433  -0.534   0.013  0.00  0.00    +0.031 C 
ENDBRANCH  17  26
ENDBRANCH  16  21
ENDBRANCH   1  16
TORSDOF 7
