REMARK  Name = ZINC16363955
REMARK  10 active torsions:
REMARK  status: ('A' for Active; 'I' for Inactive)
REMARK    1  A    between atoms: C_1  and  N_2
REMARK    2  A    between atoms: C_6  and  C_13
REMARK    3  A    between atoms: N_9  and  C_12
REMARK    4  A    between atoms: C_13  and  N_51
REMARK    5  A    between atoms: C_14  and  C_15
REMARK    6  A    between atoms: C_14  and  N_51
REMARK    7  A    between atoms: C_15  and  C_16
REMARK    8  A    between atoms: C_16  and  S_17
REMARK    9  A    between atoms: S_17  and  C_18
REMARK   10  A    between atoms: N_22  and  C_23
REMARK                            x       y       z     vdW  Elec       q    Type
REMARK                         _______ _______ _______ _____ _____    ______ ____
ROOT
ATOM      1  N   UNL     1      -0.015   0.998   0.015  0.00  0.00    +0.382 N 
ATOM      2  H   UNL     1      -0.475   1.261   0.894  0.00  0.00    -0.085 HD
ATOM      3  H   UNL     1       0.032  -0.025  -0.054  0.00  0.00    -0.085 HD
ENDROOT
BRANCH   1   4
ATOM      4  C   UNL     1       1.353   1.550  -0.003  0.00  0.00    -0.047 C 
BRANCH   4  10
ATOM      5  C   UNL     1       4.606  -0.430   5.594  0.00  0.00    +0.154 C 
ATOM      6  N   UNL     1       4.331  -0.762   4.193  0.00  0.00    -0.295 N 
ATOM      7  C   UNL     1       3.540  -0.019   3.320  0.00  0.00    +0.070 A 
ATOM      8  C   UNL     1       2.819   1.157   3.455  0.00  0.00    +0.028 A 
ATOM      9  C   UNL     1       2.119   1.663   2.377  0.00  0.00    +0.004 A 
ATOM     10  C   UNL     1       2.125   0.993   1.166  0.00  0.00    -0.062 A 
ATOM     11  C   UNL     1       2.839  -0.180   1.021  0.00  0.00    +0.029 A 
ATOM     12  C   UNL     1       3.550  -0.692   2.096  0.00  0.00    +0.070 A 
ATOM     13  N   UNL     1       4.347  -1.822   2.264  0.00  0.00    -0.295 N 
ATOM     14  C   UNL     1       4.801  -1.836   3.532  0.00  0.00    +0.330 A 
ATOM     15  O   UNL     1       5.526  -2.690   4.007  0.00  0.00    -0.246 OA
ATOM     16  C   UNL     1       4.641  -2.824   1.237  0.00  0.00    +0.154 C 
ENDBRANCH   4  10
ENDBRANCH   1   4
BRANCH   1  17
ATOM     17  C   UNL     1      -0.795   1.527  -1.120  0.00  0.00    -0.081 C 
BRANCH  17  18
ATOM     18  C   UNL     1      -2.207   0.938  -1.076  0.00  0.00    -0.008 C 
BRANCH  18  19
ATOM     19  C   UNL     1      -3.023   1.482  -2.250  0.00  0.00    +0.075 C 
BRANCH  19  20
ATOM     20  S   UNL     1      -4.693   0.785  -2.197  0.00  0.00    -0.084 S 
BRANCH  20  21
ATOM     21  C   UNL     1      -5.391   1.558  -3.619  0.00  0.00    +0.214 A 
ATOM     22  N   UNL     1      -4.784   2.395  -4.432  0.00  0.00    -0.101 NA
ATOM     23  N   UNL     1      -5.580   2.771  -5.367  0.00  0.00    -0.022 NA
ATOM     24  N   UNL     1      -6.734   2.213  -5.227  0.00  0.00    -0.038 NA
ATOM     25  N   UNL     1      -6.655   1.396  -4.086  0.00  0.00    -0.187 N 
BRANCH  25  26
ATOM     26  C   UNL     1      -7.667   0.590  -3.544  0.00  0.00    +0.070 A 
ATOM     27  C   UNL     1      -7.347  -0.625  -2.955  0.00  0.00    +0.028 A 
ATOM     28  C   UNL     1      -8.345  -1.415  -2.418  0.00  0.00    +0.002 A 
ATOM     29  C   UNL     1      -9.663  -1.001  -2.477  0.00  0.00    +0.000 A 
ATOM     30  C   UNL     1      -9.985   0.206  -3.068  0.00  0.00    +0.002 A 
ATOM     31  C   UNL     1      -8.991   1.003  -3.602  0.00  0.00    +0.028 A 
ENDBRANCH  25  26
ENDBRANCH  20  21
ENDBRANCH  19  20
ENDBRANCH  18  19
ENDBRANCH  17  18
ENDBRANCH   1  17
TORSDOF 8
