REMARK  Name = ZINC40361704
REMARK  5 active torsions:
REMARK  status: ('A' for Active; 'I' for Inactive)
REMARK    1  A    between atoms: C_1  and  C_2
REMARK    2  A    between atoms: C_2  and  C_3
REMARK    3  A    between atoms: C_6  and  C_9
REMARK    4  A    between atoms: C_6  and  N_11
REMARK    5  A    between atoms: N_14  and  C_15
REMARK                            x       y       z     vdW  Elec       q    Type
REMARK                         _______ _______ _______ _____ _____    ______ ____
ROOT
ATOM      1  N   UNL     1      -2.829  -2.754  -2.299  0.00  0.00    -0.281 N 
ATOM      2  C   UNL     1      -2.684  -4.090  -2.408  0.00  0.00    +0.301 C 
ATOM      3  O   UNL     1      -3.152  -4.823  -1.558  0.00  0.00    -0.253 OA
ATOM      4  N   UNL     1      -2.020  -4.612  -3.458  0.00  0.00    -0.297 N 
ATOM      5  H   UNL     1      -2.456  -2.169  -2.977  0.00  0.00    +0.152 HD
ATOM      6  H   UNL     1      -1.647  -4.027  -4.135  0.00  0.00    +0.151 HD
ENDROOT
BRANCH   1  10
ATOM      7  C   UNL     1      -1.433  -0.534   0.013  0.00  0.00    -0.011 C 
ATOM      8  C   UNL     1      -2.135  -0.131  -1.286  0.00  0.00    +0.006 C 
ATOM      9  C   UNL     1      -3.571  -0.661  -1.275  0.00  0.00    +0.041 C 
ATOM     10  C   UNL     1      -3.551  -2.186  -1.157  0.00  0.00    +0.122 C 
ATOM     11  C   UNL     1      -2.849  -2.589   0.141  0.00  0.00    +0.041 C 
ATOM     12  C   UNL     1      -1.413  -2.059   0.130  0.00  0.00    +0.006 C 
BRANCH   7  14
ATOM     13  C   UNL     1      -0.019   1.526   0.010  0.00  0.00    +0.004 C 
ATOM     14  C   UNL     1       0.002  -0.004   0.002  0.00  0.00    -0.000 C 
ENDBRANCH   7  14
BRANCH  10  15
ATOM     15  C   UNL     1      -4.931  -2.696  -1.147  0.00  0.00    +0.088 C 
ATOM     16  N   UNL     1      -5.997  -3.089  -1.139  0.00  0.00    -0.194 NA
ENDBRANCH  10  15
ENDBRANCH   1  10
BRANCH   4  17
ATOM     17  C   UNL     1      -1.863  -6.064  -3.576  0.00  0.00    +0.074 C 
ATOM     18  C   UNL     1      -0.643  -6.512  -2.769  0.00  0.00    +0.022 C 
ATOM     19  C   UNL     1      -0.478  -8.028  -2.892  0.00  0.00    +0.002 C 
ATOM     20  C   UNL     1      -0.282  -8.402  -4.363  0.00  0.00    +0.000 C 
ATOM     21  C   UNL     1      -1.503  -7.954  -5.170  0.00  0.00    +0.002 C 
ATOM     22  C   UNL     1      -1.667  -6.438  -5.046  0.00  0.00    +0.022 C 
ENDBRANCH   4  17
TORSDOF 4
