REMARK  Name = ZINC52094239
REMARK  4 active torsions:
REMARK  status: ('A' for Active; 'I' for Inactive)
REMARK    1  A    between atoms: C_3  and  N_22
REMARK    2  A    between atoms: C_5  and  C_6
REMARK    3  A    between atoms: C_6  and  C_8
REMARK    4  A    between atoms: C_6  and  N_21
REMARK                            x       y       z     vdW  Elec       q    Type
REMARK                         _______ _______ _______ _____ _____    ______ ____
ROOT
ATOM      1  C   UNL     1      -1.208  -0.902   0.009  0.00  0.00    +0.025 C 
ENDROOT
BRANCH   1   2
ATOM      2  C   UNL     1      -1.478  -1.392  -1.391  0.00  0.00    -0.039 A 
ATOM      3  C   UNL     1      -1.076  -2.659  -1.765  0.00  0.00    +0.031 A 
ATOM      4  C   UNL     1      -1.324  -3.110  -3.052  0.00  0.00    +0.067 A 
ATOM      5  C   UNL     1      -1.980  -2.281  -3.966  0.00  0.00    +0.068 A 
ATOM      6  C   UNL     1      -2.380  -1.011  -3.581  0.00  0.00    +0.043 A 
ATOM      7  C   UNL     1      -2.133  -0.572  -2.294  0.00  0.00    +0.022 A 
ATOM      8 BR   UNL     1      -2.685   1.158  -1.767  0.00  0.00    -0.050 Br
ATOM      9  N   UNL     1      -2.084  -2.997  -5.156  0.00  0.00    -0.306 N 
ATOM     10  H   UNL     1      -2.494  -2.679  -5.975  0.00  0.00    +0.170 HD
ATOM     11  C   UNL     1      -1.519  -4.205  -4.975  0.00  0.00    +0.325 A 
ATOM     12  O   UNL     1      -1.442  -5.076  -5.822  0.00  0.00    -0.247 OA
ATOM     13  N   UNL     1      -1.051  -4.304  -3.716  0.00  0.00    -0.306 N 
ATOM     14  H   UNL     1      -0.601  -5.074  -3.337  0.00  0.00    +0.170 HD
ENDBRANCH   1   2
BRANCH   1  19
ATOM     15  C   UNL     1      -0.016   1.341   0.009  0.00  0.00    +0.046 A 
ATOM     16  C   UNL     1       1.331   1.769  -0.001  0.00  0.00    +0.075 A 
ATOM     17  C   UNL     1       2.092   0.660  -0.014  0.00  0.00    +0.280 A 
ATOM     18  O   UNL     1       1.282  -0.411  -0.012  0.00  0.00    -0.440 OA
ATOM     19  C   UNL     1       0.002  -0.004   0.002  0.00  0.00    +0.098 A 
BRANCH  17  20
ATOM     20  N   UNL     1       3.572   0.625  -0.029  0.00  0.00    +0.093 N 
ATOM     21  O   UNL     1       4.201   1.658  -0.029  0.00  0.00    -0.123 OA
ATOM     22  O   UNL     1       4.152  -0.435  -0.040  0.00  0.00    -0.123 OA
ENDBRANCH  17  20
ENDBRANCH   1  19
BRANCH   1  23
ATOM     23  N   UNL     1      -0.961  -2.050   0.890  0.00  0.00    +0.387 N 
ATOM     24  H   UNL     1      -0.780  -1.722   1.827  0.00  0.00    -0.089 HD
ATOM     25  H   UNL     1      -1.771  -2.652   0.895  0.00  0.00    -0.089 HD
ATOM     26  H   UNL     1      -0.161  -2.566   0.555  0.00  0.00    -0.089 HD
ENDBRANCH   1  23
TORSDOF 4
