REMARK  Name = ZINC16020879
REMARK  7 active torsions:
REMARK  status: ('A' for Active; 'I' for Inactive)
REMARK    1  A    between atoms: C_1  and  C_2
REMARK    2  A    between atoms: C_2  and  C_4
REMARK    3  A    between atoms: C_2  and  O_36
REMARK    4  A    between atoms: N_12  and  C_15
REMARK    5  A    between atoms: C_15  and  C_16
REMARK    6  A    between atoms: C_19  and  O_22
REMARK    7  A    between atoms: O_22  and  C_23
REMARK                            x       y       z     vdW  Elec       q    Type
REMARK                         _______ _______ _______ _____ _____    ______ ____
ROOT
ATOM      1  C   UNL     1      -1.433  -0.534   0.013  0.00  0.00    +0.096 C 
ATOM      2  C   UNL     1      -1.436  -2.076   0.043  0.00  0.00    +0.109 C 
ATOM      3  C   UNL     1      -2.624  -2.456   0.970  0.00  0.00    +0.123 C 
ATOM      4  C   UNL     1      -1.947  -3.124   2.146  0.00  0.00    +0.229 C 
ATOM      5  O   UNL     1      -2.516  -3.584   3.112  0.00  0.00    -0.275 OA
ATOM      6  N   UNL     1      -0.623  -3.128   1.953  0.00  0.00    -0.237 N 
ATOM      7  C   UNL     1      -0.218  -2.564   0.792  0.00  0.00    +0.228 C 
ATOM      8  O   UNL     1       0.928  -2.461   0.410  0.00  0.00    -0.275 OA
ATOM      9  C   UNL     1      -3.223  -1.111   1.398  0.00  0.00    +0.136 C 
ATOM     10  N   UNL     1      -2.127  -0.123   1.263  0.00  0.00    -0.293 NA
ATOM     11  C   UNL     1      -4.421  -0.752   0.565  0.00  0.00    +0.006 A 
ATOM     12  C   UNL     1      -4.611  -0.553  -0.784  0.00  0.00    +0.046 A 
ATOM     13  C   UNL     1      -5.867  -0.223  -1.266  0.00  0.00    +0.124 A 
ATOM     14  C   UNL     1      -6.929  -0.094  -0.386  0.00  0.00    +0.040 A 
ATOM     15  C   UNL     1      -6.741  -0.292   0.966  0.00  0.00    +0.026 A 
ATOM     16  C   UNL     1      -5.481  -0.624   1.458  0.00  0.00    +0.039 A 
ATOM     17  N   UNL     1      -5.045  -0.868   2.763  0.00  0.00    -0.283 N 
ATOM     18  C   UNL     1      -3.731  -1.161   2.813  0.00  0.00    +0.243 C 
ATOM     19  O   UNL     1      -3.083  -1.415   3.807  0.00  0.00    -0.273 OA
ATOM     20  F   UNL     1      -6.056  -0.028  -2.589  0.00  0.00    -0.205 F 
ATOM     21  H   UNL     1      -1.499  -0.157   2.052  0.00  0.00    +0.124 HD
ATOM     22  H   UNL     1      -5.622  -0.832   3.542  0.00  0.00    +0.155 HD
ENDROOT
BRANCH   1  24
ATOM     23  C   UNL     1       0.650  -0.315  -1.349  0.00  0.00    +0.039 C 
ATOM     24  C   UNL     1       0.002  -0.004   0.002  0.00  0.00    +0.129 C 
BRANCH  24  25
ATOM     25  O   UNL     1      -0.010   1.410   0.210  0.00  0.00    -0.390 OA
ATOM     26  H   UNL     1       0.868   1.814   0.215  0.00  0.00    +0.210 HD
ENDBRANCH  24  25
ENDBRANCH   1  24
BRANCH   6  27
ATOM     27  C   UNL     1       0.316  -3.704   2.919  0.00  0.00    +0.151 C 
BRANCH  27  28
ATOM     28  C   UNL     1       0.539  -5.159   2.597  0.00  0.00    -0.029 A 
ATOM     29  C   UNL     1      -0.278  -6.123   3.158  0.00  0.00    +0.009 A 
ATOM     30  C   UNL     1      -0.076  -7.458   2.865  0.00  0.00    +0.046 A 
ATOM     31  C   UNL     1       0.948  -7.831   2.006  0.00  0.00    +0.120 A 
ATOM     32  C   UNL     1       1.767  -6.861   1.444  0.00  0.00    +0.046 A 
ATOM     33  C   UNL     1       1.557  -5.528   1.737  0.00  0.00    +0.009 A 
BRANCH  31  34
ATOM     34  O   UNL     1       1.150  -9.143   1.716  0.00  0.00    -0.495 OA
ATOM     35  C   UNL     1       2.223  -9.453   0.825  0.00  0.00    +0.277 C 
ENDBRANCH  31  34
ENDBRANCH  27  28
ENDBRANCH   6  27
TORSDOF 5
