REMARK  Name = ZINC38056215
REMARK  4 active torsions:
REMARK  status: ('A' for Active; 'I' for Inactive)
REMARK    1  A    between atoms: C_1  and  C_2
REMARK    2  A    between atoms: C_8  and  C_10
REMARK    3  A    between atoms: C_10  and  O_11
REMARK    4  A    between atoms: O_11  and  C_12
REMARK                            x       y       z     vdW  Elec       q    Type
REMARK                         _______ _______ _______ _____ _____    ______ ____
ROOT
ATOM      1  O   UNL     1       3.649  -4.292  -0.038  0.00  0.00    -0.481 OA
ENDROOT
BRANCH   1   2
ATOM      2  C   UNL     1       5.009  -4.301  -0.044  0.00  0.00    +0.142 A 
ATOM      3  C   UNL     1       5.711  -3.108  -0.036  0.00  0.00    +0.047 A 
ATOM      4  C   UNL     1       7.093  -3.122  -0.042  0.00  0.00    +0.004 A 
ATOM      5  C   UNL     1       7.776  -4.323  -0.060  0.00  0.00    +0.005 A 
ATOM      6  C   UNL     1       7.082  -5.524  -0.071  0.00  0.00    -0.023 A 
ATOM      7  C   UNL     1       5.698  -5.514  -0.054  0.00  0.00    +0.073 A 
ATOM      8  N   UNL     1       4.971  -6.713  -0.049  0.00  0.00    -0.341 N 
ATOM      9  C   UNL     1       5.670  -7.968  -0.355  0.00  0.00    +0.102 C 
ATOM     10  C   UNL     1       6.994  -7.968   0.420  0.00  0.00    +0.023 C 
ATOM     11  C   UNL     1       7.860  -6.813  -0.096  0.00  0.00    +0.038 C 
ATOM     12  H   UNL     1       4.022  -6.713   0.154  0.00  0.00    +0.146 HD
ENDBRANCH   1   2
BRANCH   1  13
ATOM     13  C   UNL     1       3.010  -3.014  -0.028  0.00  0.00    +0.330 C 
BRANCH  13  21
ATOM     14  C   UNL     1      -0.018   1.503   0.010  0.00  0.00    +0.089 C 
ATOM     15  C   UNL     1       0.002  -0.004   0.002  0.00  0.00    +0.136 A 
ATOM     16  C   UNL     1      -1.083  -0.801   0.003  0.00  0.00    +0.117 A 
ATOM     17  C   UNL     1      -0.649  -2.142  -0.007  0.00  0.00    +0.290 A 
ATOM     18  O   UNL     1      -1.360  -3.133  -0.009  0.00  0.00    -0.264 OA
ATOM     19  N   UNL     1       0.701  -2.126  -0.013  0.00  0.00    -0.099 N 
ATOM     20  O   UNL     1       1.103  -0.767  -0.013  0.00  0.00    -0.372 OA
ATOM     21  C   UNL     1       1.514  -3.200  -0.022  0.00  0.00    +0.301 C 
ATOM     22  O   UNL     1       1.043  -4.317  -0.026  0.00  0.00    -0.266 OA
ENDBRANCH  13  21
ENDBRANCH   1  13
TORSDOF 3
