REMARK  Name = ZINC02766951
REMARK  4 active torsions:
REMARK  status: ('A' for Active; 'I' for Inactive)
REMARK    1  A    between atoms: C_1  and  C_2
REMARK    2  A    between atoms: C_6  and  C_7
REMARK    3  A    between atoms: N_8  and  N_9
REMARK    4  A    between atoms: C_10  and  C_12
REMARK                            x       y       z     vdW  Elec       q    Type
REMARK                         _______ _______ _______ _____ _____    ______ ____
ROOT
ATOM      1  N   UNL     1      -1.202  -0.721   0.010  0.00  0.00    -0.203 N 
ATOM      2  C   UNL     1      -1.183  -2.069   0.002  0.00  0.00    +0.264 C 
ATOM      3  O   UNL     1      -0.121  -2.663  -0.011  0.00  0.00    -0.268 OA
ATOM      4  H   UNL     1      -2.048  -0.247   0.020  0.00  0.00    +0.178 HD
ENDROOT
BRANCH   2   5
ATOM      5  C   UNL     1      -2.448  -2.822   0.010  0.00  0.00    +0.049 A 
ATOM      6  C   UNL     1      -3.662  -2.172   0.025  0.00  0.00    +0.058 A 
ATOM      7  S   UNL     1      -4.808  -3.473   0.028  0.00  0.00    -0.101 S 
ATOM      8  C   UNL     1      -3.683  -4.840   0.010  0.00  0.00    -0.006 A 
ATOM      9  C   UNL     1      -2.455  -4.272  -0.003  0.00  0.00    -0.025 A 
ATOM     10  C   UNL     1      -1.196  -5.129  -0.012  0.00  0.00    +0.037 C 
ATOM     11  C   UNL     1      -1.559  -6.545   0.441  0.00  0.00    +0.005 C 
ATOM     12  C   UNL     1      -2.733  -7.072  -0.389  0.00  0.00    +0.005 C 
ATOM     13  C   UNL     1      -4.003  -6.303   0.004  0.00  0.00    +0.043 C 
ENDBRANCH   2   5
BRANCH   1  15
ATOM     14  C   UNL     1      -0.016   1.296   0.009  0.00  0.00    +0.145 C 
ATOM     15  N   UNL     1       0.002  -0.004   0.002  0.00  0.00    -0.187 NA
BRANCH  14  21
ATOM     16  C   UNL     1       0.275   4.367   0.010  0.00  0.00    +0.045 C 
ATOM     17  C   UNL     1       1.444   3.417   0.001  0.00  0.00    -0.035 A 
ATOM     18  C   UNL     1       2.736   3.888  -0.004  0.00  0.00    +0.011 A 
ATOM     19  C   UNL     1       3.768   3.004  -0.019  0.00  0.00    +0.046 A 
ATOM     20  S   UNL     1       2.921   1.432  -0.019  0.00  0.00    -0.095 S 
ATOM     21  C   UNL     1       1.244   2.047   0.001  0.00  0.00    +0.035 A 
ENDBRANCH  14  21
ENDBRANCH   1  15
TORSDOF 3
