REMARK  Name = ZINC05041309
REMARK  4 active torsions:
REMARK  status: ('A' for Active; 'I' for Inactive)
REMARK    1  A    between atoms: C_6  and  N_7
REMARK    2  A    between atoms: N_7  and  C_8
REMARK    3  A    between atoms: C_8  and  N_10
REMARK    4  A    between atoms: N_14  and  C_16
REMARK                            x       y       z     vdW  Elec       q    Type
REMARK                         _______ _______ _______ _____ _____    ______ ____
ROOT
ATOM      1  N   UNL     1       2.625  -0.576  -4.239  0.00  0.00    -0.280 N 
ATOM      2  C   UNL     1       1.343  -0.291  -3.748  0.00  0.00    +0.146 A 
ATOM      3  C   UNL     1       0.210   0.001  -4.524  0.00  0.00    +0.065 A 
ATOM      4  C   UNL     1      -0.826   0.215  -3.681  0.00  0.00    +0.111 A 
ATOM      5  N   UNL     1      -0.370   0.067  -2.419  0.00  0.00    -0.264 N 
ATOM      6  N   UNL     1       0.994  -0.245  -2.484  0.00  0.00    -0.155 NA
ATOM      7  H   UNL     1       2.771  -0.660  -5.194  0.00  0.00    +0.155 HD
ENDROOT
BRANCH   5   8
ATOM      8  C   UNL     1      -1.162   0.212  -1.195  0.00  0.00    +0.064 C 
ATOM      9  C   UNL     1      -0.394  -0.391  -0.017  0.00  0.00    +0.033 C 
ATOM     10  C   UNL     1      -1.222  -0.240   1.262  0.00  0.00    -0.008 C 
ATOM     11  C   UNL     1      -1.481   1.244   1.528  0.00  0.00    +0.007 C 
ATOM     12  C   UNL     1      -2.249   1.847   0.349  0.00  0.00    -0.008 C 
ATOM     13  C   UNL     1      -1.422   1.696  -0.929  0.00  0.00    +0.033 C 
ATOM     14  C   UNL     1      -3.583   1.117   0.183  0.00  0.00    +0.007 C 
ATOM     15  C   UNL     1      -3.323  -0.366  -0.083  0.00  0.00    -0.008 C 
ATOM     16  C   UNL     1      -2.556  -0.969   1.095  0.00  0.00    +0.007 C 
ATOM     17  C   UNL     1      -2.496  -0.518  -1.362  0.00  0.00    +0.033 C 
ENDBRANCH   5   8
BRANCH   1  18
ATOM     18  C   UNL     1       3.654  -0.733  -3.383  0.00  0.00    +0.140 C 
ATOM     19  S   UNL     1       3.374  -0.717  -1.694  0.00  0.00    -0.018 S 
BRANCH  18  20
ATOM     20  N   UNL     1       4.905  -0.903  -3.857  0.00  0.00    -0.297 N 
ATOM     21  H   UNL     1       5.077  -0.829  -4.809  0.00  0.00    +0.154 HD
BRANCH  20  27
ATOM     22  C   UNL     1       7.193  -0.584  -3.154  0.00  0.00    +0.026 A 
ATOM     23  C   UNL     1       8.227  -0.860  -2.280  0.00  0.00    +0.041 A 
ATOM     24  C   UNL     1       8.033  -1.744  -1.233  0.00  0.00    +0.142 A 
ATOM     25  C   UNL     1       6.799  -2.350  -1.056  0.00  0.00    +0.078 A 
ATOM     26  C   UNL     1       5.761  -2.072  -1.924  0.00  0.00    +0.046 A 
ATOM     27  C   UNL     1       5.955  -1.185  -2.975  0.00  0.00    +0.034 A 
ATOM     28 CL   UNL     1       6.557  -3.458   0.259  0.00  0.00    -0.081 Cl
ATOM     29  F   UNL     1       9.047  -2.017  -0.383  0.00  0.00    -0.204 F 
ENDBRANCH  20  27
ENDBRANCH  18  20
ENDBRANCH   1  18
TORSDOF 4
