REMARK  Name = ZINC09331456
REMARK  6 active torsions:
REMARK  status: ('A' for Active; 'I' for Inactive)
REMARK    1  A    between atoms: C_1  and  C_2
REMARK    2  A    between atoms: C_5  and  N_9
REMARK    3  A    between atoms: C_7  and  C_8
REMARK    4  A    between atoms: C_12  and  C_18
REMARK    5  A    between atoms: C_13  and  O_17
REMARK    6  A    between atoms: C_15  and  O_16
REMARK                            x       y       z     vdW  Elec       q    Type
REMARK                         _______ _______ _______ _____ _____    ______ ____
ROOT
ATOM      1  N   UNL     1       1.219   2.952   0.006  0.00  0.00    -0.231 N 
ATOM      2  C   UNL     1       2.299   3.411   0.672  0.00  0.00    +0.267 A 
ATOM      3  O   UNL     1       2.248   4.463   1.289  0.00  0.00    -0.267 OA
ATOM      4  C   UNL     1       3.481   2.660   0.641  0.00  0.00    +0.071 A 
ATOM      5  C   UNL     1       3.496   1.474  -0.072  0.00  0.00    +0.224 A 
ATOM      6  N   UNL     1       2.392   1.067  -0.708  0.00  0.00    -0.161 NA
ATOM      7  C   UNL     1       1.288   1.778  -0.679  0.00  0.00    +0.306 A 
ENDROOT
BRANCH   4   8
ATOM      8  C   UNL     1       4.712   3.135   1.369  0.00  0.00    +0.018 C 
ATOM      9  C   UNL     1       5.200   4.425   0.755  0.00  0.00    +0.011 A 
ATOM     10  C   UNL     1       5.606   5.484   1.491  0.00  0.00    -0.022 A 
ATOM     11  C   UNL     1       5.996   6.524   0.565  0.00  0.00    +0.003 A 
ATOM     12  C   UNL     1       6.489   7.821   0.743  0.00  0.00    +0.010 A 
ATOM     13  C   UNL     1       6.759   8.544  -0.392  0.00  0.00    +0.001 A 
ATOM     14  C   UNL     1       6.558   8.025  -1.661  0.00  0.00    +0.002 A 
ATOM     15  C   UNL     1       6.072   6.746  -1.867  0.00  0.00    +0.026 A 
ATOM     16  C   UNL     1       5.788   5.988  -0.733  0.00  0.00    +0.047 A 
ATOM     17  N   UNL     1       5.307   4.719  -0.577  0.00  0.00    -0.359 N 
ATOM     18  H   UNL     1       5.075   4.118  -1.302  0.00  0.00    +0.166 HD
ATOM     19  C   UNL     1       5.618   5.494   2.999  0.00  0.00    +0.018 C 
ATOM     20  C   UNL     1       5.497   4.043   3.483  0.00  0.00    -0.076 C 
ATOM     21  N   UNL     1       4.374   3.377   2.789  0.00  0.00    +0.388 N 
ATOM     22  H   UNL     1       4.177   2.480   3.248  0.00  0.00    -0.084 HD
ATOM     23  H   UNL     1       3.542   3.977   2.841  0.00  0.00    -0.084 HD
ENDBRANCH   4   8
BRANCH   1  28
ATOM     24  C   UNL     1      -3.619   5.917   0.069  0.00  0.00    +0.044 C 
ATOM     25  C   UNL     1      -2.335   5.129   0.052  0.00  0.00    -0.047 A 
ATOM     26  C   UNL     1      -1.396   5.361  -0.937  0.00  0.00    +0.005 A 
ATOM     27  C   UNL     1      -0.216   4.644  -0.952  0.00  0.00    +0.027 A 
ATOM     28  C   UNL     1       0.024   3.683   0.022  0.00  0.00    +0.055 A 
ATOM     29  C   UNL     1      -0.920   3.454   1.014  0.00  0.00    +0.030 A 
ATOM     30  C   UNL     1      -2.096   4.177   1.026  0.00  0.00    -0.046 A 
ATOM     31  C   UNL     1      -3.121   3.928   2.103  0.00  0.00    +0.044 C 
ENDBRANCH   1  28
BRANCH   7  32
ATOM     32  O   UNL     1       0.199   1.333  -1.338  0.00  0.00    -0.479 OA
ATOM     33  H   UNL     1       0.285   0.496  -1.814  0.00  0.00    +0.295 HD
ENDBRANCH   7  32
BRANCH   5  34
ATOM     34  O   UNL     1       4.623   0.726  -0.121  0.00  0.00    -0.492 OA
ATOM     35  H   UNL     1       4.535  -0.084  -0.642  0.00  0.00    +0.294 HD
ENDBRANCH   5  34
TORSDOF 4
