REMARK  Name = ZINC25161537
REMARK  5 active torsions:
REMARK  status: ('A' for Active; 'I' for Inactive)
REMARK    1  A    between atoms: C_1  and  C_2
REMARK    2  A    between atoms: C_5  and  C_8
REMARK    3  A    between atoms: C_8  and  C_10
REMARK    4  A    between atoms: C_8  and  N_13
REMARK    5  A    between atoms: C_14  and  C_16
REMARK                            x       y       z     vdW  Elec       q    Type
REMARK                         _______ _______ _______ _____ _____    ______ ____
ROOT
ATOM      1  N   UNL     1      -0.363   4.079  -0.458  0.00  0.00    -0.304 N 
ATOM      2  C   UNL     1       0.935   4.105  -0.097  0.00  0.00    +0.245 C 
ATOM      3  O   UNL     1       1.719   3.317  -0.591  0.00  0.00    -0.270 OA
ATOM      4  H   UNL     1      -1.072   4.792  -0.012  0.00  0.00    +0.150 HD
ENDROOT
BRANCH   2   5
ATOM      5  C   UNL     1       1.405   5.089   0.897  0.00  0.00    +0.037 A 
ATOM      6  C   UNL     1       0.505   5.995   1.465  0.00  0.00    +0.015 A 
ATOM      7  C   UNL     1       0.947   6.912   2.392  0.00  0.00    +0.024 A 
ATOM      8  C   UNL     1       2.288   6.938   2.764  0.00  0.00    +0.037 A 
ATOM      9  C   UNL     1       3.186   6.037   2.200  0.00  0.00    -0.025 A 
ATOM     10  C   UNL     1       2.750   5.114   1.277  0.00  0.00    +0.018 A 
ATOM     11  C   UNL     1       4.636   6.070   2.608  0.00  0.00    +0.046 C 
ATOM     12  C   UNL     1       5.051   7.513   2.900  0.00  0.00    +0.101 C 
ATOM     13  C   UNL     1       4.041   8.163   3.806  0.00  0.00    +0.218 C 
ATOM     14  O   UNL     1       4.411   8.963   4.639  0.00  0.00    -0.275 OA
ATOM     15  N   UNL     1       2.733   7.867   3.704  0.00  0.00    -0.285 N 
ATOM     16  H   UNL     1       2.012   8.364   4.370  0.00  0.00    +0.155 HD
ENDBRANCH   2   5
BRANCH   1  17
ATOM     17  C   UNL     1      -0.830   3.102  -1.445  0.00  0.00    +0.107 C 
BRANCH  17  22
ATOM     18  C   UNL     1      -5.587   5.106  -4.041  0.00  0.00    +0.044 C 
ATOM     19  C   UNL     1      -4.346   4.584  -3.364  0.00  0.00    -0.050 A 
ATOM     20  C   UNL     1      -3.385   3.919  -4.102  0.00  0.00    +0.004 A 
ATOM     21  C   UNL     1      -2.246   3.439  -3.481  0.00  0.00    +0.006 A 
ATOM     22  C   UNL     1      -2.070   3.625  -2.122  0.00  0.00    -0.027 A 
ATOM     23  C   UNL     1      -3.034   4.285  -1.384  0.00  0.00    +0.006 A 
ATOM     24  C   UNL     1      -4.170   4.769  -2.006  0.00  0.00    +0.004 A 
ENDBRANCH  17  22
BRANCH  17  25
ATOM     25  C   UNL     1      -1.150   1.781  -0.743  0.00  0.00    +0.014 C 
ATOM     26  C   UNL     1      -0.013   1.086   0.008  0.00  0.00    +0.006 C 
ATOM     27  C   UNL     1      -1.136   1.773   0.788  0.00  0.00    +0.006 C 
ENDBRANCH  17  25
ENDBRANCH   1  17
TORSDOF 4
