REMARK  Name = ZINC57050883
REMARK  6 active torsions:
REMARK  status: ('A' for Active; 'I' for Inactive)
REMARK    1  A    between atoms: C_1  and  C_2
REMARK    2  A    between atoms: N_13  and  C_19
REMARK    3  A    between atoms: C_19  and  C_20
REMARK    4  A    between atoms: C_20  and  C_22
REMARK    5  A    between atoms: C_20  and  O_29
REMARK    6  A    between atoms: C_22  and  N_23
REMARK                            x       y       z     vdW  Elec       q    Type
REMARK                         _______ _______ _______ _____ _____    ______ ____
ROOT
ATOM      1  C   UNL     1       0.659   1.545   0.279  0.00  0.00    +0.044 C 
ATOM      2  C   UNL     1       0.521   0.046   0.201  0.00  0.00    -0.050 A 
ATOM      3  C   UNL     1       0.404  -0.553  -1.043  0.00  0.00    +0.005 A 
ATOM      4  C   UNL     1       0.276  -1.922  -1.192  0.00  0.00    +0.026 A 
ATOM      5  C   UNL     1       0.268  -2.692  -0.031  0.00  0.00    +0.050 A 
ATOM      6  C   UNL     1       0.388  -2.071   1.248  0.00  0.00    +0.004 A 
ATOM      7  C   UNL     1       0.522  -0.683   1.363  0.00  0.00    +0.013 A 
ATOM      8  C   UNL     1       0.339  -3.135   2.214  0.00  0.00    -0.017 A 
ATOM      9  C   UNL     1       0.179  -4.277   1.516  0.00  0.00    +0.040 A 
ATOM     10  N   UNL     1       0.166  -4.035   0.171  0.00  0.00    -0.341 N 
ATOM     11  C   UNL     1       0.072  -5.136  -0.801  0.00  0.00    +0.137 C 
ATOM     12  C   UNL     1      -0.402  -6.389  -0.057  0.00  0.00    +0.106 C 
ATOM     13  N   UNL     1       0.394  -6.623   1.156  0.00  0.00    -0.290 NA
ATOM     14  C   UNL     1       0.074  -5.624   2.196  0.00  0.00    +0.104 C 
ATOM     15  C   UNL     1       1.100  -5.671   3.317  0.00  0.00    +0.025 C 
ATOM     16  C   UNL     1       1.289  -4.400   4.106  0.00  0.00    +0.007 C 
ATOM     17  C   UNL     1       0.432  -3.205   3.712  0.00  0.00    +0.037 C 
ENDROOT
BRANCH  13  18
ATOM     18  C   UNL     1       0.197  -7.989   1.661  0.00  0.00    +0.114 C 
BRANCH  18  19
ATOM     19  C   UNL     1       1.008  -8.969   0.810  0.00  0.00    +0.112 C 
BRANCH  19  20
ATOM     20  O   UNL     1       0.470  -9.008  -0.514  0.00  0.00    -0.392 OA
ATOM     21  H   UNL     1      -0.453  -9.291  -0.555  0.00  0.00    +0.210 HD
ENDBRANCH  19  20
BRANCH  19  22
ATOM     22  C   UNL     1       0.936 -10.365   1.431  0.00  0.00    -0.046 C 
BRANCH  22  23
ATOM     23  N   UNL     1       1.792 -11.284   0.670  0.00  0.00    +0.381 N 
ATOM     24  C   UNL     1       1.601 -12.652   1.167  0.00  0.00    -0.079 C 
ATOM     25  C   UNL     1       2.429 -13.625   0.325  0.00  0.00    -0.019 C 
ATOM     26  C   UNL     1       3.910 -13.246   0.424  0.00  0.00    -0.004 C 
ATOM     27  C   UNL     1       4.085 -11.793  -0.027  0.00  0.00    -0.019 C 
ATOM     28  C   UNL     1       3.196 -10.888   0.829  0.00  0.00    -0.079 C 
ATOM     29  H   UNL     1       1.541 -11.246  -0.306  0.00  0.00    -0.082 HD
ENDBRANCH  22  23
ENDBRANCH  19  22
ENDBRANCH  18  19
ENDBRANCH  13  18
TORSDOF 5
