REMARK  Name = ZINC53500259
REMARK  6 active torsions:
REMARK  status: ('A' for Active; 'I' for Inactive)
REMARK    1  A    between atoms: C_1  and  C_2
REMARK    2  A    between atoms: C_5  and  N_8
REMARK    3  A    between atoms: N_8  and  C_9
REMARK    4  A    between atoms: C_9  and  C_10
REMARK    5  A    between atoms: C_10  and  N_11
REMARK    6  A    between atoms: C_13  and  C_16
REMARK                            x       y       z     vdW  Elec       q    Type
REMARK                         _______ _______ _______ _____ _____    ______ ____
ROOT
ATOM      1  C   UNL     1       0.093  -6.409   0.956  0.00  0.00    +0.187 C 
ENDROOT
BRANCH   1   2
ATOM      2  N   UNL     1       0.109  -7.149   2.221  0.00  0.00    -0.161 N 
ATOM      3  N   UNL     1       1.168  -7.506   2.861  0.00  0.00    -0.130 NA
ATOM      4  C   UNL     1       0.785  -8.148   3.948  0.00  0.00    +0.205 A 
ATOM      5  N   UNL     1      -0.556  -8.161   3.933  0.00  0.00    -0.108 NA
ATOM      6  N   UNL     1      -0.933  -7.538   2.869  0.00  0.00    -0.046 NA
BRANCH   4   7
ATOM      7  C   UNL     1       1.666  -8.741   4.985  0.00  0.00    +0.023 A 
ATOM      8  C   UNL     1       3.051  -8.642   4.865  0.00  0.00    +0.012 A 
ATOM      9  C   UNL     1       3.866  -9.195   5.832  0.00  0.00    +0.001 A 
ATOM     10  C   UNL     1       3.310  -9.846   6.919  0.00  0.00    +0.000 A 
ATOM     11  C   UNL     1       1.936  -9.946   7.043  0.00  0.00    +0.001 A 
ATOM     12  C   UNL     1       1.112  -9.392   6.084  0.00  0.00    +0.012 A 
ENDBRANCH   4   7
ENDBRANCH   1   2
BRANCH   1  13
ATOM     13  C   UNL     1       0.074  -4.907   1.244  0.00  0.00    +0.126 C 
BRANCH  13  14
ATOM     14  N   UNL     1       0.058  -4.167  -0.021  0.00  0.00    -0.342 N 
ATOM     15  H   UNL     1       0.060  -4.648  -0.864  0.00  0.00    +0.146 HD
BRANCH  14  20
ATOM     16  C   UNL     1      -0.018   1.503   0.010  0.00  0.00    +0.044 C 
ATOM     17  C   UNL     1       0.002  -0.004   0.002  0.00  0.00    -0.050 A 
ATOM     18  C   UNL     1       0.006  -0.687  -1.200  0.00  0.00    +0.005 A 
ATOM     19  C   UNL     1       0.024  -2.068  -1.212  0.00  0.00    +0.023 A 
ATOM     20  C   UNL     1       0.040  -2.771  -0.013  0.00  0.00    +0.027 A 
ATOM     21  C   UNL     1       0.036  -2.081   1.193  0.00  0.00    +0.023 A 
ATOM     22  C   UNL     1       0.023  -0.700   1.197  0.00  0.00    +0.005 A 
ENDBRANCH  14  20
ENDBRANCH  13  14
ENDBRANCH   1  13
TORSDOF 5
