REMARK  Name = ZINC04471226
REMARK  5 active torsions:
REMARK  status: ('A' for Active; 'I' for Inactive)
REMARK    1  A    between atoms: C_1  and  C_2
REMARK    2  A    between atoms: C_5  and  N_9
REMARK    3  A    between atoms: C_7  and  C_8
REMARK    4  A    between atoms: C_13  and  C_14
REMARK    5  A    between atoms: C_16  and  N_21
REMARK                            x       y       z     vdW  Elec       q    Type
REMARK                         _______ _______ _______ _____ _____    ______ ____
ROOT
ATOM      1  N   UNL     1      -1.270   2.132  -0.494  0.00  0.00    -0.184 N 
ATOM      2  C   UNL     1      -2.483   1.546  -0.505  0.00  0.00    +0.272 C 
ATOM      3  O   UNL     1      -2.726   0.390  -0.794  0.00  0.00    -0.268 OA
ATOM      4  C   UNL     1      -3.459   2.575  -0.095  0.00  0.00    +0.102 C 
ATOM      5  C   UNL     1      -4.822   2.431   0.039  0.00  0.00    +0.027 C 
ATOM      6  C   UNL     1      -2.657   3.794   0.134  0.00  0.00    +0.266 C 
ATOM      7  O   UNL     1      -3.076   4.882   0.482  0.00  0.00    -0.268 OA
ATOM      8  N   UNL     1      -1.375   3.470  -0.117  0.00  0.00    -0.223 N 
ATOM      9  H   UNL     1      -0.626   4.084  -0.046  0.00  0.00    +0.174 HD
ENDROOT
BRANCH   1  14
ATOM     10  C   UNL     1       3.586  -0.475  -1.836  0.00  0.00    +0.044 C 
ATOM     11  C   UNL     1       2.296   0.217  -1.478  0.00  0.00    -0.047 A 
ATOM     12  C   UNL     1       1.104  -0.484  -1.512  0.00  0.00    +0.005 A 
ATOM     13  C   UNL     1      -0.080   0.147  -1.184  0.00  0.00    +0.025 A 
ATOM     14  C   UNL     1      -0.072   1.488  -0.821  0.00  0.00    +0.057 A 
ATOM     15  C   UNL     1       1.126   2.189  -0.788  0.00  0.00    +0.028 A 
ATOM     16  C   UNL     1       2.306   1.552  -1.117  0.00  0.00    -0.046 A 
ATOM     17  C   UNL     1       3.607   2.312  -1.081  0.00  0.00    +0.044 C 
ENDBRANCH   1  14
BRANCH   5  18
ATOM     18  C   UNL     1      -5.433   1.103  -0.075  0.00  0.00    -0.004 A 
ATOM     19  C   UNL     1      -4.816  -0.010   0.512  0.00  0.00    +0.042 A 
ATOM     20  C   UNL     1      -5.398  -1.253   0.401  0.00  0.00    +0.127 A 
ATOM     21  C   UNL     1      -6.589  -1.407  -0.289  0.00  0.00    +0.034 A 
ATOM     22  C   UNL     1      -7.206  -0.315  -0.873  0.00  0.00    +0.023 A 
ATOM     23  C   UNL     1      -6.642   0.940  -0.767  0.00  0.00    +0.048 A 
ATOM     24 CL   UNL     1      -7.421   2.310  -1.495  0.00  0.00    -0.083 Cl
BRANCH  20  25
ATOM     25  N   UNL     1      -4.748  -2.430   1.020  0.00  0.00    +0.056 N 
ATOM     26  O   UNL     1      -3.700  -2.297   1.627  0.00  0.00    -0.126 OA
ATOM     27  O   UNL     1      -5.260  -3.531   0.923  0.00  0.00    -0.126 OA
ENDBRANCH  20  25
ENDBRANCH   5  18
TORSDOF 3
