REMARK  Name = ZINC67189031
REMARK  8 active torsions:
REMARK  status: ('A' for Active; 'I' for Inactive)
REMARK    1  A    between atoms: C_1  and  C_2
REMARK    2  A    between atoms: C_2  and  O_3
REMARK    3  A    between atoms: O_3  and  C_4
REMARK    4  A    between atoms: C_8  and  C_10
REMARK    5  A    between atoms: C_10  and  N_11
REMARK    6  A    between atoms: N_11  and  C_12
REMARK    7  A    between atoms: C_12  and  C_13
REMARK    8  A    between atoms: C_18  and  C_19
REMARK                            x       y       z     vdW  Elec       q    Type
REMARK                         _______ _______ _______ _____ _____    ______ ____
ROOT
ATOM      1  C   UNL     1       0.925  -5.197  -7.198  0.00  0.00    -0.016 A 
ATOM      2  C   UNL     1       0.338  -6.364  -7.539  0.00  0.00    +0.107 A 
ATOM      3  N   UNL     1      -0.492  -6.126  -8.578  0.00  0.00    -0.284 N 
ATOM      4  H   UNL     1      -1.044  -6.785  -9.027  0.00  0.00    +0.188 HD
ATOM      5  N   UNL     1      -0.419  -4.763  -8.892  0.00  0.00    -0.171 NA
ATOM      6  C   UNL     1       0.430  -4.196  -8.059  0.00  0.00    +0.129 A 
ENDROOT
BRANCH   6   7
ATOM      7  C   UNL     1       0.801  -2.765  -8.034  0.00  0.00    +0.156 A 
ATOM      8  C   UNL     1       0.905  -1.969  -9.125  0.00  0.00    +0.060 A 
ATOM      9  C   UNL     1       1.292  -0.647  -8.628  0.00  0.00    +0.021 A 
ATOM     10  C   UNL     1       1.553   0.583  -9.234  0.00  0.00    +0.011 A 
ATOM     11  C   UNL     1       1.901   1.658  -8.463  0.00  0.00    +0.001 A 
ATOM     12  C   UNL     1       1.997   1.532  -7.085  0.00  0.00    +0.004 A 
ATOM     13  C   UNL     1       1.743   0.326  -6.468  0.00  0.00    +0.047 A 
ATOM     14  C   UNL     1       1.387  -0.779  -7.231  0.00  0.00    +0.136 A 
ATOM     15  O   UNL     1       1.081  -2.056  -6.923  0.00  0.00    -0.453 OA
ENDBRANCH   6   7
BRANCH   1  16
ATOM     16  C   UNL     1       1.926  -4.998  -6.089  0.00  0.00    -0.042 C 
BRANCH  16  17
ATOM     17  N   UNL     1       1.246  -4.450  -4.908  0.00  0.00    +0.384 N 
ATOM     18  H   UNL     1       0.531  -5.093  -4.603  0.00  0.00    -0.085 HD
ATOM     19  H   UNL     1       0.825  -3.564  -5.143  0.00  0.00    -0.085 HD
BRANCH  17  20
ATOM     20  C   UNL     1       2.222  -4.257  -3.827  0.00  0.00    -0.046 C 
BRANCH  20  25
ATOM     21  C   UNL     1       0.777  -1.810  -1.336  0.00  0.00    +0.121 A 
ATOM     22  C   UNL     1       0.243  -2.669  -0.386  0.00  0.00    +0.045 A 
ATOM     23  C   UNL     1       0.351  -4.036  -0.554  0.00  0.00    +0.004 A 
ATOM     24  C   UNL     1       0.991  -4.548  -1.667  0.00  0.00    +0.002 A 
ATOM     25  C   UNL     1       1.525  -3.695  -2.615  0.00  0.00    -0.061 A 
ATOM     26  C   UNL     1       1.414  -2.327  -2.455  0.00  0.00    +0.047 A 
BRANCH  21  27
ATOM     27  O   UNL     1       0.671  -0.465  -1.174  0.00  0.00    -0.492 OA
BRANCH  27  29
ATOM     28  C   UNL     1      -0.019   1.526   0.010  0.00  0.00    +0.048 C 
ATOM     29  C   UNL     1       0.002  -0.004   0.002  0.00  0.00    +0.225 C 
ENDBRANCH  27  29
ENDBRANCH  21  27
ENDBRANCH  20  25
ENDBRANCH  17  20
ENDBRANCH  16  17
ENDBRANCH   1  16
TORSDOF 7
