REMARK  Name = ZINC25797136
REMARK  11 active torsions:
REMARK  status: ('A' for Active; 'I' for Inactive)
REMARK    1  A    between atoms: C_1  and  C_2
REMARK    2  A    between atoms: C_3  and  C_8
REMARK    3  A    between atoms: C_4  and  C_7
REMARK    4  A    between atoms: C_8  and  S_9
REMARK    5  A    between atoms: S_9  and  C_10
REMARK    6  A    between atoms: C_11  and  C_16
REMARK    7  A    between atoms: C_16  and  O_18
REMARK    8  A    between atoms: O_18  and  C_19
REMARK    9  A    between atoms: C_19  and  C_20
REMARK   10  A    between atoms: C_20  and  C_22
REMARK   11  A    between atoms: C_24  and  C_28
REMARK                            x       y       z     vdW  Elec       q    Type
REMARK                         _______ _______ _______ _____ _____    ______ ____
ROOT
ATOM      1  C   UNL     1       0.002  -0.004   0.002  0.00  0.00    +0.342 C 
ATOM      2  O   UNL     1       1.063  -0.597  -0.011  0.00  0.00    -0.245 OA
ENDROOT
BRANCH   1   4
ATOM      3  C   UNL     1      -1.259  -2.164  -0.003  0.00  0.00    +0.111 A 
ATOM      4  C   UNL     1      -1.263  -0.758   0.010  0.00  0.00    +0.091 A 
ATOM      5  C   UNL     1      -2.492  -0.087   0.025  0.00  0.00    +0.019 A 
ATOM      6  C   UNL     1      -3.652  -0.842   0.033  0.00  0.00    +0.021 A 
ATOM      7  C   UNL     1      -3.567  -2.223   0.024  0.00  0.00    +0.112 A 
ATOM      8  N   UNL     1      -2.401  -2.837   0.010  0.00  0.00    -0.248 NA
BRANCH   3   9
ATOM      9  S   UNL     1       0.272  -3.037  -0.031  0.00  0.00    -0.100 S 
BRANCH   9  10
ATOM     10  C   UNL     1      -0.338  -4.741  -0.039  0.00  0.00    +0.116 C 
BRANCH  10  13
ATOM     11  C   UNL     1       1.159  -5.979  -2.638  0.00  0.00    +0.069 C 
ATOM     12  C   UNL     1       1.488  -6.236  -1.190  0.00  0.00    +0.085 A 
ATOM     13  C   UNL     1       0.830  -5.692  -0.063  0.00  0.00    +0.027 A 
ATOM     14  C   UNL     1       1.490  -6.229   0.991  0.00  0.00    +0.138 A 
ATOM     15  O   UNL     1       2.450  -7.012   0.479  0.00  0.00    -0.359 OA
ATOM     16  N   UNL     1       2.435  -7.001  -0.730  0.00  0.00    -0.083 NA
ATOM     17  C   UNL     1       1.202  -5.993   2.451  0.00  0.00    +0.089 C 
ENDBRANCH  10  13
ENDBRANCH   9  10
ENDBRANCH   3   9
ENDBRANCH   1   4
BRANCH   1  18
ATOM     18  O   UNL     1      -0.016   1.344   0.009  0.00  0.00    -0.453 OA
BRANCH  18  19
ATOM     19  C   UNL     1       1.268   2.020   0.001  0.00  0.00    +0.311 C 
BRANCH  19  20
ATOM     20  C   UNL     1       1.051   3.511   0.011  0.00  0.00    +0.202 C 
ATOM     21  O   UNL     1      -0.076   3.960   0.024  0.00  0.00    -0.288 OA
BRANCH  20  22
ATOM     22  C   UNL     1       2.201   4.420   0.005  0.00  0.00    +0.039 A 
ATOM     23  C   UNL     1       2.157   5.835   0.013  0.00  0.00    +0.043 A 
ATOM     24  C   UNL     1       3.447   6.274   0.003  0.00  0.00    +0.103 A 
ATOM     25  N   UNL     1       4.280   5.176  -0.011  0.00  0.00    -0.356 N 
ATOM     26  H   UNL     1       5.371   5.313  -0.025  0.00  0.00    +0.165 HD
ATOM     27  C   UNL     1       3.539   4.057  -0.004  0.00  0.00    +0.094 A 
BRANCH  24  28
ATOM     28  C   UNL     1       3.877   7.678   0.007  0.00  0.00    +0.263 C 
ATOM     29  O   UNL     1       3.048   8.568   0.020  0.00  0.00    -0.268 OA
ATOM     30  N   UNL     1       5.190   7.981  -0.004  0.00  0.00    -0.296 N 
ATOM     31  C   UNL     1       6.293   7.009  -0.014  0.00  0.00    +0.108 C 
ATOM     32  C   UNL     1       7.611   7.811   0.000  0.00  0.00    +0.020 C 
ATOM     33  C   UNL     1       7.178   9.177   0.596  0.00  0.00    +0.020 C 
ATOM     34  C   UNL     1       5.758   9.341  -0.002  0.00  0.00    +0.108 C 
ENDBRANCH  24  28
ENDBRANCH  20  22
ENDBRANCH  19  20
ENDBRANCH  18  19
ENDBRANCH   1  18
TORSDOF 9
