REMARK  Name = ZINC09028334
REMARK  5 active torsions:
REMARK  status: ('A' for Active; 'I' for Inactive)
REMARK    1  A    between atoms: C_4  and  C_10
REMARK    2  A    between atoms: C_6  and  N_7
REMARK    3  A    between atoms: N_12  and  N_13
REMARK    4  A    between atoms: C_14  and  C_15
REMARK    5  A    between atoms: C_20  and  O_21
REMARK                            x       y       z     vdW  Elec       q    Type
REMARK                         _______ _______ _______ _____ _____    ______ ____
ROOT
ATOM      1  C   UNL     1       3.439   6.306   0.002  0.00  0.00    +0.267 C 
ATOM      2  O   UNL     1       4.498   5.707  -0.011  0.00  0.00    -0.268 OA
ATOM      3  N   UNL     1       2.278   5.622   0.009  0.00  0.00    -0.203 N 
ATOM      4  H   UNL     1       1.434   6.099   0.020  0.00  0.00    +0.178 HD
ENDROOT
BRANCH   1   8
ATOM      5  C   UNL     1       3.401  10.554   0.022  0.00  0.00    +0.036 A 
ATOM      6  C   UNL     1       4.608   9.883   0.009  0.00  0.00    +0.054 A 
ATOM      7  C   UNL     1       4.632   8.496   0.002  0.00  0.00    +0.191 A 
ATOM      8  C   UNL     1       3.426   7.781   0.010  0.00  0.00    +0.087 A 
ATOM      9  C   UNL     1       2.213   8.473   0.019  0.00  0.00    +0.049 A 
ATOM     10  C   UNL     1       2.208   9.851   0.030  0.00  0.00    +0.127 A 
ATOM     11  O   UNL     1       5.817   7.836  -0.012  0.00  0.00    -0.287 OA
BRANCH  10  12
ATOM     12  N   UNL     1       0.921  10.583   0.043  0.00  0.00    +0.056 N 
ATOM     13  O   UNL     1       0.914  11.801   0.048  0.00  0.00    -0.126 OA
ATOM     14  O   UNL     1      -0.129   9.967   0.050  0.00  0.00    -0.126 OA
ENDBRANCH  10  12
ENDBRANCH   1   8
BRANCH   3  15
ATOM     15  N   UNL     1       2.290   4.221   0.002  0.00  0.00    -0.187 NA
ATOM     16  C   UNL     1       1.172   3.562   0.009  0.00  0.00    +0.142 C 
BRANCH  16  17
ATOM     17  C   UNL     1       1.185   2.088   0.002  0.00  0.00    +0.038 A 
ATOM     18  C   UNL     1      -0.017   1.375   0.010  0.00  0.00    +0.028 A 
ATOM     19  C   UNL     1       0.002  -0.004   0.002  0.00  0.00    +0.020 A 
ATOM     20  C   UNL     1       1.208  -0.686  -0.013  0.00  0.00    +0.034 A 
ATOM     21  C   UNL     1       2.404   0.009  -0.020  0.00  0.00    +0.061 A 
ATOM     22  C   UNL     1       2.402   1.395  -0.013  0.00  0.00    +0.139 A 
ATOM     23 BR   UNL     1       4.043  -0.934  -0.041  0.00  0.00    -0.046 Br
ATOM     24 BR   UNL     1      -1.625  -0.968   0.012  0.00  0.00    -0.050 Br
BRANCH  22  25
ATOM     25  O   UNL     1       3.576   2.078  -0.021  0.00  0.00    -0.505 OA
ATOM     26  H   UNL     1       3.908   2.280  -0.906  0.00  0.00    +0.292 HD
ENDBRANCH  22  25
ENDBRANCH  16  17
ENDBRANCH   3  15
TORSDOF 5
