REMARK  Name = ZINC37360114
REMARK  7 active torsions:
REMARK  status: ('A' for Active; 'I' for Inactive)
REMARK    1  A    between atoms: C_1  and  C_2
REMARK    2  A    between atoms: C_2  and  C_3
REMARK    3  A    between atoms: C_2  and  N_4
REMARK    4  A    between atoms: C_7  and  C_22
REMARK    5  A    between atoms: C_9  and  N_21
REMARK    6  A    between atoms: N_10  and  C_14
REMARK    7  A    between atoms: C_14  and  C_15
REMARK                            x       y       z     vdW  Elec       q    Type
REMARK                         _______ _______ _______ _____ _____    ______ ____
ROOT
ATOM      1  N   UNL     1       0.713  -1.275  -0.852  0.00  0.00    -0.311 N 
ATOM      2  C   UNL     1       2.077  -1.095  -0.997  0.00  0.00    +0.218 A 
ATOM      3  N   UNL     1       2.660  -1.575  -2.090  0.00  0.00    -0.213 NA
ATOM      4  C   UNL     1       3.966  -1.446  -2.309  0.00  0.00    +0.095 A 
ATOM      5  C   UNL     1       4.745  -0.773  -1.335  0.00  0.00    +0.086 A 
ATOM      6  C   UNL     1       6.085  -0.441  -1.190  0.00  0.00    +0.126 A 
ATOM      7  N   UNL     1       6.216   0.214  -0.022  0.00  0.00    -0.244 N 
ATOM      8  N   UNL     1       4.970   0.318   0.608  0.00  0.00    -0.149 NA
ATOM      9  C   UNL     1       4.055  -0.258  -0.140  0.00  0.00    +0.188 A 
ATOM     10  N   UNL     1       2.725  -0.454  -0.046  0.00  0.00    -0.193 NA
ATOM     11  H   UNL     1       0.210  -1.743  -1.537  0.00  0.00    +0.149 HD
ENDROOT
BRANCH   4  12
ATOM     12  C   UNL     1       4.585  -1.987  -3.528  0.00  0.00    +0.038 A 
ATOM     13  C   UNL     1       5.759  -2.709  -3.665  0.00  0.00    +0.017 A 
ATOM     14  C   UNL     1       6.084  -3.084  -4.949  0.00  0.00    +0.008 A 
ATOM     15  C   UNL     1       5.260  -2.734  -5.965  0.00  0.00    +0.046 A 
ATOM     16  S   UNL     1       4.015  -1.892  -5.215  0.00  0.00    -0.095 S 
ENDBRANCH   4  12
BRANCH   1  18
ATOM     17  C   UNL     1      -0.337   0.712   0.113  0.00  0.00    +0.027 C 
ATOM     18  C   UNL     1       0.028  -0.757   0.335  0.00  0.00    +0.067 C 
ATOM     19  C   UNL     1      -1.246  -1.567   0.582  0.00  0.00    +0.027 C 
ENDBRANCH   1  18
BRANCH   6  20
ATOM     20  N   UNL     1       7.101  -0.731  -2.083  0.00  0.00    -0.343 N 
ATOM     21  H   UNL     1       6.887  -1.046  -2.975  0.00  0.00    +0.144 HD
ATOM     22  H   UNL     1       8.027  -0.619  -1.816  0.00  0.00    +0.144 HD
ENDBRANCH   6  20
BRANCH   7  23
ATOM     23  C   UNL     1       7.475   0.739   0.511  0.00  0.00    +0.180 C 
BRANCH  23  24
ATOM     24  C   UNL     1       7.674   2.153   0.029  0.00  0.00    -0.026 A 
ATOM     25  C   UNL     1       8.340   2.391  -1.159  0.00  0.00    +0.005 A 
ATOM     26  C   UNL     1       8.522   3.687  -1.602  0.00  0.00    +0.000 A 
ATOM     27  C   UNL     1       8.038   4.747  -0.857  0.00  0.00    +0.000 A 
ATOM     28  C   UNL     1       7.372   4.509   0.331  0.00  0.00    +0.000 A 
ATOM     29  C   UNL     1       7.185   3.212   0.771  0.00  0.00    +0.005 A 
ENDBRANCH  23  24
ENDBRANCH   7  23
TORSDOF 5
