REMARK  Name = ZINC19676860
REMARK  6 active torsions:
REMARK  status: ('A' for Active; 'I' for Inactive)
REMARK    1  A    between atoms: C_1  and  C_2
REMARK    2  A    between atoms: C_2  and  C_3
REMARK    3  A    between atoms: C_3  and  S_4
REMARK    4  A    between atoms: S_4  and  N_7
REMARK    5  A    between atoms: C_12  and  C_15
REMARK    6  A    between atoms: C_15  and  N_16
REMARK                            x       y       z     vdW  Elec       q    Type
REMARK                         _______ _______ _______ _____ _____    ______ ____
ROOT
ATOM      1  N   UNL     1       1.785   4.871  -3.115  0.00  0.00    -0.176 NA
ATOM      2  C   UNL     1       1.816   6.064  -2.257  0.00  0.00    +0.117 C 
ATOM      3  C   UNL     1       0.389   6.405  -1.806  0.00  0.00    +0.094 C 
ATOM      4  C   UNL     1      -0.294   5.138  -1.365  0.00  0.00    +0.143 A 
ATOM      5  C   UNL     1       0.129   3.892  -1.688  0.00  0.00    +0.031 A 
ATOM      6  C   UNL     1      -0.793   3.033  -1.078  0.00  0.00    +0.071 A 
ATOM      7  N   UNL     1      -1.655   3.806  -0.470  0.00  0.00    -0.085 NA
ATOM      8  O   UNL     1      -1.385   4.981  -0.616  0.00  0.00    -0.359 OA
ATOM      9  C   UNL     1       1.341   3.593  -2.523  0.00  0.00    +0.149 C 
ENDROOT
BRANCH   1  10
ATOM     10  S   UNL     1       2.236   4.957  -4.706  0.00  0.00    +0.032 S 
ATOM     11  O   UNL     1       3.135   6.056  -4.769  0.00  0.00    -0.158 OA
ATOM     12  O   UNL     1       2.673   3.645  -5.031  0.00  0.00    -0.158 OA
BRANCH  10  13
ATOM     13  C   UNL     1       0.709   5.348  -5.604  0.00  0.00    +0.185 C 
BRANCH  13  15
ATOM     14  C   UNL     1      -0.279   5.782  -7.857  0.00  0.00    +0.005 C 
ATOM     15  C   UNL     1       1.009   5.453  -7.100  0.00  0.00    +0.021 C 
ENDBRANCH  13  15
ENDBRANCH  10  13
ENDBRANCH   1  10
BRANCH   6  16
ATOM     16  C   UNL     1      -0.795   1.527  -1.120  0.00  0.00    -0.026 C 
BRANCH  16  17
ATOM     17  N   UNL     1      -0.012   1.005   0.008  0.00  0.00    +0.382 N 
ATOM     18  H   UNL     1      -0.013  -0.095  -0.023  0.00  0.00    -0.090 HD
ATOM     19  H   UNL     1      -0.457   1.346   0.954  0.00  0.00    -0.090 HD
ATOM     20  H   UNL     1       1.023   1.372  -0.064  0.00  0.00    -0.090 HD
ENDBRANCH  16  17
ENDBRANCH   6  16
TORSDOF 5
