REMARK  Name = ZINC59168547
REMARK  4 active torsions:
REMARK  status: ('A' for Active; 'I' for Inactive)
REMARK    1  A    between atoms: C_4  and  C_7
REMARK    2  A    between atoms: C_7  and  C_8
REMARK    3  A    between atoms: C_14  and  C_17
REMARK    4  A    between atoms: C_22  and  O_23
REMARK                            x       y       z     vdW  Elec       q    Type
REMARK                         _______ _______ _______ _____ _____    ______ ____
ROOT
ATOM      1  C   UNL     1       4.164  -0.959   1.377  0.00  0.00    +0.156 A 
ATOM      2  N   UNL     1       4.903  -0.167   2.096  0.00  0.00    -0.132 NA
ATOM      3  N   UNL     1       5.114  -0.689   3.253  0.00  0.00    -0.121 NA
ATOM      4  C   UNL     1       4.533  -1.846   3.317  0.00  0.00    +0.211 A 
ATOM      5  N   UNL     1       3.863  -2.072   2.142  0.00  0.00    -0.224 N 
ATOM      6  N   UNL     1       3.117  -3.206   2.009  0.00  0.00    -0.263 N 
ATOM      7  C   UNL     1       3.485  -4.311   2.933  0.00  0.00    +0.186 C 
ATOM      8  S   UNL     1       4.217  -3.302   4.291  0.00  0.00    -0.056 S 
ATOM      9  H   UNL     1       2.131  -2.999   2.068  0.00  0.00    +0.168 HD
ENDROOT
BRANCH   7  10
ATOM     10  C   UNL     1       2.272  -5.077   3.394  0.00  0.00    +0.027 A 
ATOM     11  C   UNL     1       1.069  -4.933   2.728  0.00  0.00    +0.025 A 
ATOM     12  C   UNL     1      -0.045  -5.635   3.151  0.00  0.00    +0.018 A 
ATOM     13  C   UNL     1       0.042  -6.483   4.241  0.00  0.00    +0.019 A 
ATOM     14  C   UNL     1       1.242  -6.631   4.908  0.00  0.00    +0.047 A 
ATOM     15  C   UNL     1       2.362  -5.931   4.483  0.00  0.00    +0.123 A 
ATOM     16 BR   UNL     1      -1.689  -5.435   2.239  0.00  0.00    -0.050 Br
BRANCH  15  17
ATOM     17  O   UNL     1       3.545  -6.079   5.136  0.00  0.00    -0.506 OA
ATOM     18  H   UNL     1       3.672  -5.456   5.864  0.00  0.00    +0.292 HD
ENDBRANCH  15  17
ENDBRANCH   7  10
BRANCH   1  19
ATOM     19  C   UNL     1       3.711  -0.707  -0.038  0.00  0.00    +0.113 C 
BRANCH  19  23
ATOM     20  C   UNL     1      -0.017   1.378   0.010  0.00  0.00    +0.000 A 
ATOM     21  C   UNL     1       1.171   2.086   0.002  0.00  0.00    +0.000 A 
ATOM     22  C   UNL     1       2.377   1.411  -0.013  0.00  0.00    +0.004 A 
ATOM     23  C   UNL     1       2.396   0.029  -0.020  0.00  0.00    -0.040 A 
ATOM     24  C   UNL     1       1.208  -0.679  -0.012  0.00  0.00    +0.004 A 
ATOM     25  C   UNL     1       0.002  -0.004   0.002  0.00  0.00    +0.000 A 
ENDBRANCH  19  23
ENDBRANCH   1  19
TORSDOF 4
