REMARK  Name = ZINC35660375
REMARK  3 active torsions:
REMARK  status: ('A' for Active; 'I' for Inactive)
REMARK    1  A    between atoms: C_6  and  C_7
REMARK    2  A    between atoms: C_9  and  C_12
REMARK    3  A    between atoms: C_17  and  N_18
REMARK                            x       y       z     vdW  Elec       q    Type
REMARK                         _______ _______ _______ _____ _____    ______ ____
ROOT
ATOM      1  C   UNL     1      -1.912  -0.514  -0.602  0.00  0.00    +0.202 A 
ATOM      2  N   UNL     1      -1.842  -1.852  -0.529  0.00  0.00    -0.187 NA
ATOM      3  C   UNL     1      -3.031  -2.349  -0.273  0.00  0.00    +0.261 A 
ATOM      4  O   UNL     1      -3.901  -1.328  -0.174  0.00  0.00    -0.332 OA
ATOM      5  N   UNL     1      -3.151  -0.142  -0.386  0.00  0.00    -0.056 NA
ENDROOT
BRANCH   1  11
ATOM      6  C   UNL     1      -0.974   1.775  -0.919  0.00  0.00    +0.014 A 
ATOM      7  C   UNL     1       0.088   2.618  -1.172  0.00  0.00    +0.039 A 
ATOM      8  C   UNL     1       1.355   2.096  -1.383  0.00  0.00    +0.123 A 
ATOM      9  C   UNL     1       1.559   0.726  -1.340  0.00  0.00    +0.039 A 
ATOM     10  C   UNL     1       0.502  -0.124  -1.088  0.00  0.00    +0.014 A 
ATOM     11  C   UNL     1      -0.772   0.397  -0.875  0.00  0.00    +0.023 A 
ATOM     12  F   UNL     1       2.392   2.925  -1.631  0.00  0.00    -0.205 F 
ENDBRANCH   1  11
BRANCH   3  13
ATOM     13  C   UNL     1      -3.356  -3.780  -0.121  0.00  0.00    +0.063 A 
ATOM     14  C   UNL     1      -2.879  -4.711  -1.047  0.00  0.00    +0.053 A 
ATOM     15  C   UNL     1      -3.186  -6.048  -0.898  0.00  0.00    +0.124 A 
ATOM     16  C   UNL     1      -3.967  -6.473   0.166  0.00  0.00    +0.040 A 
ATOM     17  C   UNL     1      -4.445  -5.563   1.088  0.00  0.00    +0.026 A 
ATOM     18  C   UNL     1      -4.141  -4.215   0.957  0.00  0.00    +0.037 A 
ATOM     19  F   UNL     1      -2.723  -6.948  -1.794  0.00  0.00    -0.205 F 
BRANCH  18  20
ATOM     20  N   UNL     1      -4.618  -3.297   1.889  0.00  0.00    -0.357 N 
ATOM     21  H   UNL     1      -4.333  -2.370   1.847  0.00  0.00    +0.142 HD
ATOM     22  H   UNL     1      -5.234  -3.584   2.580  0.00  0.00    +0.142 HD
ENDBRANCH  18  20
ENDBRANCH   3  13
TORSDOF 3
