REMARK  Name = ZINC13644405
REMARK  6 active torsions:
REMARK  status: ('A' for Active; 'I' for Inactive)
REMARK    1  A    between atoms: C_3  and  C_26
REMARK    2  A    between atoms: C_9  and  O_11
REMARK    3  A    between atoms: O_11  and  C_12
REMARK    4  A    between atoms: C_12  and  C_13
REMARK    5  A    between atoms: C_13  and  C_24
REMARK    6  A    between atoms: N_16  and  C_19
REMARK                            x       y       z     vdW  Elec       q    Type
REMARK                         _______ _______ _______ _____ _____    ______ ____
ROOT
ATOM      1  O   UNL     1       6.495   4.873  -3.106  0.00  0.00    -0.491 OA
ENDROOT
BRANCH   1  10
ATOM      2  C   UNL     1       3.328   6.748  -7.251  0.00  0.00    +0.009 A 
ATOM      3  C   UNL     1       3.765   6.641  -8.533  0.00  0.00    +0.012 A 
ATOM      4  C   UNL     1       5.012   6.062  -8.823  0.00  0.00    +0.013 A 
ATOM      5  C   UNL     1       5.820   5.587  -7.805  0.00  0.00    +0.019 A 
ATOM      6  C   UNL     1       5.386   5.688  -6.474  0.00  0.00    -0.014 A 
ATOM      7  C   UNL     1       4.125   6.275  -6.194  0.00  0.00    -0.018 A 
ATOM      8  C   UNL     1       3.693   6.375  -4.860  0.00  0.00    +0.012 A 
ATOM      9  C   UNL     1       4.481   5.904  -3.857  0.00  0.00    +0.046 A 
ATOM     10  C   UNL     1       5.727   5.330  -4.131  0.00  0.00    +0.121 A 
ATOM     11  C   UNL     1       6.179   5.217  -5.414  0.00  0.00    +0.054 A 
BRANCH   4  12
ATOM     12  C   UNL     1       5.464   5.958 -10.228  0.00  0.00    +0.094 C 
ATOM     13  N   UNL     1       4.663   6.429 -11.246  0.00  0.00    -0.345 N 
ATOM     14  H   UNL     1       7.003   5.309 -11.393  0.00  0.00    +0.157 HD
ATOM     15  H   UNL     1       3.803   6.829 -11.042  0.00  0.00    +0.144 HD
ATOM     16  H   UNL     1       4.959   6.362 -12.167  0.00  0.00    +0.144 HD
ATOM     17  N   UNL     1       6.647   5.403 -10.441  0.00  0.00    -0.387 N 
ATOM     18  H   UNL     1       7.207   5.067  -9.649  0.00  0.00    +0.157 HD
ENDBRANCH   4  12
ENDBRANCH   1  10
BRANCH   1  19
ATOM     19  C   UNL     1       5.968   5.019  -1.786  0.00  0.00    +0.247 C 
BRANCH  19  20
ATOM     20  C   UNL     1       6.966   4.453  -0.774  0.00  0.00    +0.109 C 
ATOM     21  C   UNL     1       6.403   4.609   0.642  0.00  0.00    +0.040 C 
ATOM     22  C   UNL     1       5.109   3.801   0.762  0.00  0.00    +0.106 C 
ATOM     23  N   UNL     1       5.384   2.387   0.479  0.00  0.00    -0.330 N 
ATOM     24  C   UNL     1       5.881   2.207  -0.891  0.00  0.00    +0.106 C 
ATOM     25  C   UNL     1       7.199   2.967  -1.061  0.00  0.00    +0.040 C 
BRANCH  23  26
ATOM     26  C   UNL     1       4.257   1.603   0.708  0.00  0.00    +0.032 A 
ATOM     27  C   UNL     1       4.290   0.224   0.502  0.00  0.00    +0.040 A 
ATOM     28  C   UNL     1       3.152  -0.516   0.740  0.00  0.00    +0.084 A 
ATOM     29  C   UNL     1       1.970   1.366   1.362  0.00  0.00    +0.084 A 
ATOM     30  C   UNL     1       3.064   2.177   1.147  0.00  0.00    +0.040 A 
ATOM     31  N   UNL     1       1.974   0.019   1.163  0.00  0.00    -0.367 N 
ATOM     32  H   UNL     1       1.140  -0.557   1.324  0.00  0.00    +0.165 HD
ENDBRANCH  23  26
BRANCH  20  33
ATOM     33  C   UNL     1       8.271   5.199  -0.881  0.00  0.00    +0.365 C 
ATOM     34  O   UNL     1       8.707   5.794   0.075  0.00  0.00    -0.246 OA
ATOM     35  O   UNL     1       8.949   5.201  -2.040  0.00  0.00    -0.246 OA
ENDBRANCH  20  33
ENDBRANCH  19  20
ENDBRANCH   1  19
TORSDOF 6
