REMARK  Name = ZINC40797406
REMARK  6 active torsions:
REMARK  status: ('A' for Active; 'I' for Inactive)
REMARK    1  A    between atoms: C_1  and  C_2
REMARK    2  A    between atoms: C_5  and  N_9
REMARK    3  A    between atoms: C_6  and  C_8
REMARK    4  A    between atoms: C_10  and  C_12
REMARK    5  A    between atoms: C_12  and  C_24
REMARK    6  A    between atoms: C_18  and  C_23
REMARK                            x       y       z     vdW  Elec       q    Type
REMARK                         _______ _______ _______ _____ _____    ______ ____
ROOT
ATOM      1  C   UNL     1      -0.134  -6.343  -1.187  0.00  0.00    +0.258 C 
ATOM      2  C   UNL     1      -0.823  -6.802  -2.447  0.00  0.00    +0.270 C 
ATOM      3  O   UNL     1      -0.769  -6.126  -3.452  0.00  0.00    -0.271 OA
ATOM      4  N   UNL     1      -1.500  -7.970  -2.452  0.00  0.00    -0.279 N 
ATOM      5  C   UNL     1      -1.657  -8.674  -1.250  0.00  0.00    +0.076 A 
ATOM      6  C   UNL     1      -2.141  -9.973  -1.253  0.00  0.00    +0.030 A 
ATOM      7  C   UNL     1      -2.278 -10.658  -0.060  0.00  0.00    -0.048 A 
ATOM      8  C   UNL     1      -1.933 -10.052   1.134  0.00  0.00    +0.007 A 
ATOM      9  C   UNL     1      -1.455  -8.755   1.143  0.00  0.00    +0.048 A 
ATOM     10  C   UNL     1      -1.320  -8.060  -0.046  0.00  0.00    +0.144 A 
ATOM     11  O   UNL     1      -0.880  -6.773  -0.046  0.00  0.00    -0.465 OA
ATOM     12  C   UNL     1      -2.805 -12.070  -0.062  0.00  0.00    +0.044 C 
ATOM     13  C   UNL     1       1.273  -6.940  -1.130  0.00  0.00    +0.076 C 
ATOM     14  H   UNL     1      -1.873  -8.318  -3.277  0.00  0.00    +0.155 HD
ENDROOT
BRANCH   1  16
ATOM     15  N   UNL     1       0.059  -4.170  -0.021  0.00  0.00    -0.282 N 
ATOM     16  C   UNL     1      -0.040  -4.839  -1.187  0.00  0.00    +0.270 C 
ATOM     17  O   UNL     1      -0.054  -4.230  -2.236  0.00  0.00    -0.271 OA
ATOM     18  H   UNL     1       0.135  -4.658   0.814  0.00  0.00    +0.155 HD
BRANCH  15  23
ATOM     19  C   UNL     1       0.025   1.503   0.005  0.00  0.00    +0.044 C 
ATOM     20  C   UNL     1       0.034  -0.004  -0.002  0.00  0.00    -0.050 A 
ATOM     21  C   UNL     1       0.631  -0.685  -1.046  0.00  0.00    +0.005 A 
ATOM     22  C   UNL     1       0.641  -2.066  -1.055  0.00  0.00    +0.024 A 
ATOM     23  C   UNL     1       0.051  -2.771  -0.014  0.00  0.00    +0.036 A 
ATOM     24  C   UNL     1      -0.548  -2.083   1.033  0.00  0.00    -0.029 A 
ATOM     25  C   UNL     1      -0.551  -0.702   1.039  0.00  0.00    +0.008 A 
ATOM     26  C   UNL     1      -1.190  -2.844   2.165  0.00  0.00    +0.045 C 
ENDBRANCH  15  23
ENDBRANCH   1  16
TORSDOF 2
