REMARK  Name = ZINC48855154
REMARK  9 active torsions:
REMARK  status: ('A' for Active; 'I' for Inactive)
REMARK    1  A    between atoms: C_1  and  C_2
REMARK    2  A    between atoms: C_5  and  C_7
REMARK    3  A    between atoms: C_7  and  C_9
REMARK    4  A    between atoms: C_7  and  N_10
REMARK    5  A    between atoms: N_13  and  N_14
REMARK    6  A    between atoms: C_15  and  C_17
REMARK    7  A    between atoms: C_17  and  C_18
REMARK    8  A    between atoms: C_18  and  C_19
REMARK    9  A    between atoms: C_18  and  C_20
REMARK                            x       y       z     vdW  Elec       q    Type
REMARK                         _______ _______ _______ _____ _____    ______ ____
ROOT
ATOM      1  N   UNL     1       2.811  -2.961  -0.914  0.00  0.00    -0.289 N 
ATOM      2  C   UNL     1       3.494  -3.975  -1.482  0.00  0.00    +0.316 C 
ATOM      3  O   UNL     1       3.174  -5.126  -1.254  0.00  0.00    -0.251 OA
ATOM      4  N   UNL     1       4.531  -3.713  -2.302  0.00  0.00    -0.218 N 
ATOM      5  H   UNL     1       3.066  -2.043  -1.096  0.00  0.00    +0.151 HD
ATOM      6  H   UNL     1       5.022  -4.443  -2.711  0.00  0.00    +0.174 HD
ENDROOT
BRANCH   4   7
ATOM      7  N   UNL     1       4.899  -2.387  -2.565  0.00  0.00    -0.233 N 
ATOM      8  C   UNL     1       5.936  -2.126  -3.385  0.00  0.00    +0.229 C 
ATOM      9  O   UNL     1       6.550  -3.038  -3.896  0.00  0.00    -0.274 OA
ATOM     10  H   UNL     1       4.408  -1.658  -2.156  0.00  0.00    +0.173 HD
BRANCH   8  11
ATOM     11  C   UNL     1       6.332  -0.700  -3.668  0.00  0.00    +0.100 C 
BRANCH  11  12
ATOM     12  C   UNL     1       7.529  -0.682  -4.621  0.00  0.00    -0.008 C 
ATOM     13  C   UNL     1       7.853   0.763  -5.006  0.00  0.00    +0.008 C 
ATOM     14  C   UNL     1       8.741  -1.309  -3.929  0.00  0.00    +0.008 C 
ENDBRANCH  11  12
ENDBRANCH   8  11
ENDBRANCH   4   7
BRANCH   1  15
ATOM     15  C   UNL     1       1.684  -3.245  -0.023  0.00  0.00    +0.137 C 
ATOM     16  C   UNL     1       2.205  -3.494   1.394  0.00  0.00    +0.036 C 
BRANCH  15  21
ATOM     17  C   UNL     1      -0.018   1.503   0.010  0.00  0.00    +0.086 C 
ATOM     18  C   UNL     1       0.002  -0.004   0.002  0.00  0.00    +0.102 A 
ATOM     19  C   UNL     1      -1.078  -0.805   0.003  0.00  0.00    +0.045 A 
ATOM     20  C   UNL     1      -0.601  -2.136  -0.007  0.00  0.00    +0.047 A 
ATOM     21  C   UNL     1       0.742  -2.069  -0.013  0.00  0.00    +0.125 A 
ATOM     22  O   UNL     1       1.102  -0.775  -0.013  0.00  0.00    -0.463 OA
ENDBRANCH  15  21
ENDBRANCH   1  15
TORSDOF 5
