REMARK  Name = ZINC54753342
REMARK  7 active torsions:
REMARK  status: ('A' for Active; 'I' for Inactive)
REMARK    1  A    between atoms: C_1  and  C_2
REMARK    2  A    between atoms: C_2  and  C_3
REMARK    3  A    between atoms: C_3  and  C_5
REMARK    4  A    between atoms: C_3  and  C_6
REMARK    5  A    between atoms: C_6  and  C_7
REMARK    6  A    between atoms: C_8  and  C_24
REMARK    7  A    between atoms: C_16  and  C_18
REMARK                            x       y       z     vdW  Elec       q    Type
REMARK                         _______ _______ _______ _____ _____    ______ ____
ROOT
ATOM      1  C   UNL     1       1.227  -2.500  -2.628  0.00  0.00    -0.023 A 
ATOM      2  C   UNL     1       0.459  -2.626  -3.723  0.00  0.00    -0.007 A 
ATOM      3  S   UNL     1       1.600  -3.206  -4.964  0.00  0.00    -0.073 S 
ATOM      4  C   UNL     1       3.074  -3.262  -3.977  0.00  0.00    +0.116 A 
ATOM      5  C   UNL     1       2.638  -2.823  -2.712  0.00  0.00    +0.075 A 
ATOM      6  C   UNL     1       3.645  -2.762  -1.692  0.00  0.00    +0.260 A 
ATOM      7  O   UNL     1       3.361  -2.398  -0.564  0.00  0.00    -0.267 OA
ATOM      8  N   UNL     1       4.907  -3.114  -1.999  0.00  0.00    -0.304 N 
ATOM      9  H   UNL     1       5.593  -3.075  -1.313  0.00  0.00    +0.170 HD
ATOM     10  C   UNL     1       5.241  -3.524  -3.260  0.00  0.00    +0.180 A 
ATOM     11  N   UNL     1       4.335  -3.598  -4.209  0.00  0.00    -0.219 NA
ATOM     12  C   UNL     1      -1.015  -2.345  -3.868  0.00  0.00    +0.052 C 
ENDROOT
BRANCH  10  13
ATOM     13  C   UNL     1       6.641  -3.902  -3.557  0.00  0.00    +0.196 A 
ATOM     14  N   UNL     1       7.548  -3.840  -2.591  0.00  0.00    -0.233 NA
ATOM     15  C   UNL     1       8.806  -4.170  -2.823  0.00  0.00    +0.115 A 
ATOM     16  C   UNL     1       9.173  -4.586  -4.095  0.00  0.00    +0.039 A 
ATOM     17  C   UNL     1       8.200  -4.639  -5.082  0.00  0.00    +0.115 A 
ATOM     18  N   UNL     1       6.959  -4.300  -4.782  0.00  0.00    -0.233 NA
ENDBRANCH  10  13
BRANCH   1  19
ATOM     19  C   UNL     1       0.630  -2.023  -1.329  0.00  0.00    +0.040 C 
BRANCH  19  20
ATOM     20  C   UNL     1       0.718  -0.497  -1.257  0.00  0.00    -0.010 C 
ATOM     21  C   UNL     1       2.187  -0.073  -1.207  0.00  0.00    +0.008 C 
BRANCH  20  23
ATOM     22  C   UNL     1      -0.019   1.526   0.010  0.00  0.00    +0.004 C 
ATOM     23  C   UNL     1       0.002  -0.004   0.002  0.00  0.00    +0.000 C 
ENDBRANCH  20  23
ENDBRANCH  19  20
ENDBRANCH   1  19
TORSDOF 4
