REMARK  Name = ZINC05849718
REMARK  10 active torsions:
REMARK  status: ('A' for Active; 'I' for Inactive)
REMARK    1  A    between atoms: C_1  and  C_2
REMARK    2  A    between atoms: C_2  and  C_3
REMARK    3  A    between atoms: C_2  and  C_4
REMARK    4  A    between atoms: C_8  and  N_10
REMARK    5  A    between atoms: N_10  and  C_11
REMARK    6  A    between atoms: N_10  and  C_12
REMARK    7  A    between atoms: N_13  and  N_14
REMARK    8  A    between atoms: C_15  and  C_16
REMARK    9  A    between atoms: C_19  and  O_23
REMARK   10  A    between atoms: C_21  and  O_22
REMARK                            x       y       z     vdW  Elec       q    Type
REMARK                         _______ _______ _______ _____ _____    ______ ____
ROOT
ATOM      1  C   UNL     1       0.004   0.007  -0.271  0.00  0.00    +0.136 A 
ATOM      2  N   UNL     1       1.094  -0.634  -0.640  0.00  0.00    -0.216 NA
ATOM      3  C   UNL     1       2.243   0.018  -0.816  0.00  0.00    +0.143 A 
ATOM      4  C   UNL     1       2.280   1.393  -0.603  0.00  0.00    +0.088 A 
ATOM      5  C   UNL     1       1.105   2.031  -0.214  0.00  0.00    +0.126 A 
ATOM      6  N   UNL     1      -0.003   1.307  -0.060  0.00  0.00    -0.217 NA
ATOM      7  N   UNL     1       3.385  -0.664  -1.205  0.00  0.00    -0.221 N 
ATOM      8  H   UNL     1       4.218  -0.183  -1.330  0.00  0.00    +0.176 HD
ENDROOT
BRANCH   1  10
ATOM      9  C   UNL     1      -1.655  -1.448  -1.402  0.00  0.00    +0.015 C 
ATOM     10  C   UNL     1      -1.274  -0.770  -0.085  0.00  0.00    +0.051 C 
ATOM     11  C   UNL     1      -1.070  -1.834   0.996  0.00  0.00    +0.015 C 
ENDBRANCH   1  10
BRANCH   5  12
ATOM     12  N   UNL     1       1.089   3.399   0.009  0.00  0.00    -0.321 N 
ATOM     13  C   UNL     1       2.342   4.157   0.001  0.00  0.00    +0.130 C 
ATOM     14  C   UNL     1      -0.181   4.086   0.254  0.00  0.00    +0.130 C 
ENDBRANCH   5  12
BRANCH   7  15
ATOM     15  N   UNL     1       3.337  -2.048  -1.416  0.00  0.00    -0.189 NA
ATOM     16  C   UNL     1       4.407  -2.687  -1.781  0.00  0.00    +0.141 C 
BRANCH  16  17
ATOM     17  C   UNL     1       4.356  -4.143  -2.003  0.00  0.00    +0.036 A 
ATOM     18  C   UNL     1       5.506  -4.833  -2.396  0.00  0.00    +0.016 A 
ATOM     19  C   UNL     1       5.455  -6.194  -2.602  0.00  0.00    +0.046 A 
ATOM     20  C   UNL     1       4.262  -6.884  -2.422  0.00  0.00    +0.120 A 
ATOM     21  C   UNL     1       3.115  -6.208  -2.033  0.00  0.00    +0.091 A 
ATOM     22  C   UNL     1       3.155  -4.842  -1.817  0.00  0.00    +0.129 A 
BRANCH  22  23
ATOM     23  O   UNL     1       2.034  -4.179  -1.431  0.00  0.00    -0.506 OA
ATOM     24  H   UNL     1       1.499  -3.851  -2.165  0.00  0.00    +0.292 HD
ENDBRANCH  22  23
BRANCH  20  25
ATOM     25  O   UNL     1       4.219  -8.226  -2.628  0.00  0.00    -0.507 OA
ATOM     26  H   UNL     1       4.414  -8.751  -1.839  0.00  0.00    +0.292 HD
ENDBRANCH  20  25
ENDBRANCH  16  17
ENDBRANCH   7  15
TORSDOF 6
