REMARK  Name = ZINC08436704
REMARK  6 active torsions:
REMARK  status: ('A' for Active; 'I' for Inactive)
REMARK    1  A    between atoms: C_6  and  N_11
REMARK    2  A    between atoms: C_12  and  C_14
REMARK    3  A    between atoms: C_14  and  C_30
REMARK    4  A    between atoms: C_15  and  C_16
REMARK    5  A    between atoms: N_20  and  C_21
REMARK    6  A    between atoms: C_24  and  N_27
REMARK                            x       y       z     vdW  Elec       q    Type
REMARK                         _______ _______ _______ _____ _____    ______ ____
ROOT
ATOM      1  C   UNL     1       2.242   9.580  -0.216  0.00  0.00    +0.116 C 
ATOM      2  C   UNL     1       3.423  10.274  -0.003  0.00  0.00    +0.050 C 
ENDROOT
BRANCH   2   3
ATOM      3  C   UNL     1       3.385  11.621   0.401  0.00  0.00    +0.048 A 
ATOM      4  C   UNL     1       2.252  12.417   0.503  0.00  0.00    +0.027 A 
ATOM      5  C   UNL     1       2.672  13.674   0.939  0.00  0.00    +0.020 A 
ATOM      6  C   UNL     1       4.021  13.638   1.086  0.00  0.00    +0.092 A 
ATOM      7  N   UNL     1       4.468  12.398   0.762  0.00  0.00    -0.316 N 
BRANCH   7   8
ATOM      8  C   UNL     1       5.803  11.976   0.792  0.00  0.00    +0.047 A 
ATOM      9  C   UNL     1       6.159  10.838   1.504  0.00  0.00    +0.028 A 
ATOM     10  C   UNL     1       7.475  10.423   1.528  0.00  0.00    +0.035 A 
ATOM     11  C   UNL     1       8.442  11.144   0.851  0.00  0.00    +0.126 A 
ATOM     12  C   UNL     1       8.092  12.280   0.144  0.00  0.00    +0.035 A 
ATOM     13  C   UNL     1       6.776  12.698   0.113  0.00  0.00    +0.028 A 
BRANCH  11  14
ATOM     14  N   UNL     1       9.853  10.699   0.883  0.00  0.00    +0.056 N 
ATOM     15  O   UNL     1      10.705  11.334   0.287  0.00  0.00    -0.126 OA
ATOM     16  O   UNL     1      10.162   9.699   1.505  0.00  0.00    -0.126 OA
ENDBRANCH  11  14
ENDBRANCH   7   8
ENDBRANCH   2   3
BRANCH   1  18
ATOM     17  N   UNL     1       1.129   7.468  -0.717  0.00  0.00    -0.281 N 
ATOM     18  C   UNL     1       2.278   8.143  -0.510  0.00  0.00    +0.259 C 
ATOM     19  O   UNL     1       3.344   7.559  -0.568  0.00  0.00    -0.269 OA
ATOM     20  H   UNL     1       0.284   7.944  -0.740  0.00  0.00    +0.155 HD
BRANCH  17  26
ATOM     21  C   UNL     1       0.258   1.173  -0.969  0.00  0.00    +0.001 A 
ATOM     22  C   UNL     1      -0.812   1.752  -0.288  0.00  0.00    +0.001 A 
ATOM     23  C   UNL     1      -0.869   3.097  -0.087  0.00  0.00    +0.008 A 
ATOM     24  C   UNL     1       0.159   3.918  -0.582  0.00  0.00    -0.016 A 
ATOM     25  C   UNL     1       0.130   5.310  -0.398  0.00  0.00    +0.031 A 
ATOM     26  C   UNL     1       1.155   6.082  -0.898  0.00  0.00    +0.034 A 
ATOM     27  C   UNL     1       2.223   5.493  -1.585  0.00  0.00    +0.024 A 
ATOM     28  C   UNL     1       2.274   4.149  -1.776  0.00  0.00    +0.010 A 
ATOM     29  C   UNL     1       1.244   3.330  -1.279  0.00  0.00    -0.018 A 
ATOM     30  C   UNL     1       1.271   1.937  -1.462  0.00  0.00    +0.008 A 
ENDBRANCH  17  26
ENDBRANCH   1  18
BRANCH   1  31
ATOM     31  C   UNL     1       0.987  10.266  -0.148  0.00  0.00    +0.104 C 
ATOM     32  N   UNL     1      -0.009  10.810  -0.094  0.00  0.00    -0.191 NA
ENDBRANCH   1  31
TORSDOF 6
