REMARK  Name = ZINC67650237
REMARK  11 active torsions:
REMARK  status: ('A' for Active; 'I' for Inactive)
REMARK    1  A    between atoms: C_1  and  C_2
REMARK    2  A    between atoms: C_4  and  C_30
REMARK    3  A    between atoms: N_5  and  C_7
REMARK    4  A    between atoms: C_7  and  C_8
REMARK    5  A    between atoms: C_8  and  C_9
REMARK    6  A    between atoms: C_9  and  N_10
REMARK    7  A    between atoms: N_10  and  C_11
REMARK    8  A    between atoms: C_12  and  C_14
REMARK    9  A    between atoms: C_15  and  C_29
REMARK   10  A    between atoms: C_20  and  C_22
REMARK   11  A    between atoms: C_23  and  C_28
REMARK                            x       y       z     vdW  Elec       q    Type
REMARK                         _______ _______ _______ _____ _____    ______ ____
ROOT
ATOM      1  C   UNL     1       5.010  -6.491   2.526  0.00  0.00    +0.057 C 
ATOM      2  C   UNL     1       5.108  -7.545   3.363  0.00  0.00    +0.019 C 
ATOM      3  N   UNL     1       6.325  -7.989   3.798  0.00  0.00    -0.273 N 
ATOM      4  C   UNL     1       7.490  -7.434   3.440  0.00  0.00    +0.304 C 
ATOM      5  O   UNL     1       8.523  -7.900   3.879  0.00  0.00    -0.252 OA
ATOM      6  N   UNL     1       7.553  -6.374   2.610  0.00  0.00    -0.287 N 
ATOM      7  C   UNL     1       6.295  -5.822   2.080  0.00  0.00    +0.160 C 
ATOM      8  C   UNL     1       3.855  -8.242   3.827  0.00  0.00    +0.061 C 
ATOM      9  H   UNL     1       6.346  -8.750   4.399  0.00  0.00    +0.156 HD
ATOM     10  H   UNL     1       8.408  -5.987   2.364  0.00  0.00    +0.151 HD
ENDROOT
BRANCH   7  11
ATOM     11  C   UNL     1       6.352  -5.883   0.576  0.00  0.00    +0.061 A 
ATOM     12  C   UNL     1       5.827  -4.989  -0.284  0.00  0.00    +0.035 A 
ATOM     13  N   UNL     1       6.095  -5.406  -1.531  0.00  0.00    -0.350 N 
ATOM     14  C   UNL     1       6.765  -6.524  -1.476  0.00  0.00    +0.171 A 
ATOM     15  N   UNL     1       6.952  -6.854  -0.180  0.00  0.00    -0.348 N 
ATOM     16  H   UNL     1       7.422  -7.634   0.154  0.00  0.00    +0.167 HD
ATOM     17  C   UNL     1       5.072  -3.739   0.089  0.00  0.00    +0.065 C 
ATOM     18  H   UNL     1       5.831  -4.949  -2.345  0.00  0.00    +0.166 HD
ENDBRANCH   7  11
BRANCH   1  21
ATOM     19  N   UNL     1       3.024  -5.192   2.843  0.00  0.00    -0.301 N 
ATOM     20  C   UNL     1       3.586  -4.670   4.091  0.00  0.00    +0.132 C 
ATOM     21  C   UNL     1       3.749  -6.029   2.075  0.00  0.00    +0.246 C 
ATOM     22  O   UNL     1       3.321  -6.388   0.994  0.00  0.00    -0.270 OA
BRANCH  19  23
ATOM     23  C   UNL     1       1.673  -4.803   2.430  0.00  0.00    +0.109 C 
BRANCH  23  24
ATOM     24  C   UNL     1       1.746  -3.540   1.570  0.00  0.00    +0.042 C 
BRANCH  24  25
ATOM     25  C   UNL     1       0.336  -3.134   1.138  0.00  0.00    +0.145 C 
BRANCH  25  30
ATOM     26  C   UNL     1       0.419   1.703  -0.198  0.00  0.00    +0.067 C 
ATOM     27  C   UNL     1       0.440   0.197  -0.247  0.00  0.00    +0.060 A 
ATOM     28  C   UNL     1       0.565  -0.584  -1.401  0.00  0.00    +0.047 A 
ATOM     29  C   UNL     1       0.541  -1.885  -1.027  0.00  0.00    +0.036 A 
ATOM     30  N   UNL     1       0.406  -1.925   0.315  0.00  0.00    -0.268 N 
ATOM     31  N   UNL     1       0.350  -0.605   0.782  0.00  0.00    -0.176 NA
ATOM     32  C   UNL     1       0.646  -3.075  -1.945  0.00  0.00    +0.065 C 
ENDBRANCH  25  30
ENDBRANCH  24  25
ENDBRANCH  23  24
ENDBRANCH  19  23
ENDBRANCH   1  21
TORSDOF 6
