REMARK  Name = ZINC66836669
REMARK  4 active torsions:
REMARK  status: ('A' for Active; 'I' for Inactive)
REMARK    1  A    between atoms: C_1  and  C_2
REMARK    2  A    between atoms: C_2  and  C_4
REMARK    3  A    between atoms: C_2  and  N_16
REMARK    4  A    between atoms: C_17  and  C_19
REMARK                            x       y       z     vdW  Elec       q    Type
REMARK                         _______ _______ _______ _____ _____    ______ ____
ROOT
ATOM      1  C   UNL     1       0.835  -0.501   1.155  0.00  0.00    +0.236 C 
ATOM      2  O   UNL     1       2.005  -0.772   0.986  0.00  0.00    -0.274 OA
ATOM      3  N   UNL     1       0.280  -0.644   2.375  0.00  0.00    -0.298 N 
ATOM      4  C   UNL     1       1.059  -1.004   3.507  0.00  0.00    +0.109 C 
ATOM      5  C   UNL     1       1.301  -2.540   3.671  0.00  0.00    +0.038 C 
ATOM      6  C   UNL     1      -0.019  -3.265   3.248  0.00  0.00    +0.111 C 
ATOM      7  N   UNL     1      -1.212  -2.600   3.640  0.00  0.00    -0.284 N 
ATOM      8  C   UNL     1      -1.857  -1.721   2.632  0.00  0.00    +0.128 C 
ATOM      9  C   UNL     1      -1.173  -0.427   2.596  0.00  0.00    +0.127 C 
ATOM     10  C   UNL     1      -1.734  -2.760   4.872  0.00  0.00    +0.300 C 
ATOM     11  O   UNL     1      -1.184  -3.486   5.677  0.00  0.00    -0.253 OA
ATOM     12  N   UNL     1      -2.867  -2.114   5.213  0.00  0.00    -0.313 N 
ATOM     13  H   UNL     1      -3.307  -1.534   4.571  0.00  0.00    +0.146 HD
ATOM     14  H   UNL     1      -3.244  -2.229   6.099  0.00  0.00    +0.146 HD
ENDROOT
BRANCH   1  16
ATOM     15  C   UNL     1      -0.013   1.524   0.003  0.00  0.00    +0.038 C 
ATOM     16  C   UNL     1       0.002  -0.006   0.002  0.00  0.00    +0.156 C 
BRANCH  16  17
ATOM     17  N   UNL     1       0.575  -0.487  -1.258  0.00  0.00    -0.304 N 
ATOM     18  C   UNL     1      -0.207  -0.623  -2.346  0.00  0.00    +0.217 C 
ATOM     19  O   UNL     1      -1.386  -0.345  -2.284  0.00  0.00    -0.275 OA
ATOM     20  H   UNL     1       1.518  -0.709  -1.307  0.00  0.00    +0.149 HD
BRANCH  18  21
ATOM     21  C   UNL     1       0.383  -1.118  -3.642  0.00  0.00    +0.079 C 
ATOM     22  C   UNL     1       1.482  -0.157  -4.104  0.00  0.00    +0.041 C 
ATOM     23  C   UNL     1       2.021  -0.624  -5.459  0.00  0.00    +0.160 C 
ATOM     24  O   UNL     1       0.949  -0.689  -6.401  0.00  0.00    -0.380 OA
ATOM     25  C   UNL     1      -0.086  -1.607  -6.044  0.00  0.00    +0.160 C 
ATOM     26  C   UNL     1      -0.710  -1.179  -4.713  0.00  0.00    +0.041 C 
ENDBRANCH  18  21
ENDBRANCH  16  17
ENDBRANCH   1  16
TORSDOF 3
