REMARK  Name = ZINC04195481
REMARK  3 active torsions:
REMARK  status: ('A' for Active; 'I' for Inactive)
REMARK    1  A    between atoms: C_1  and  C_2
REMARK    2  A    between atoms: C_7  and  C_8
REMARK    3  A    between atoms: C_17  and  C_22
REMARK                            x       y       z     vdW  Elec       q    Type
REMARK                         _______ _______ _______ _____ _____    ______ ____
ROOT
ATOM      1  C   UNL     1       0.084   1.526   0.028  0.00  0.00    +0.047 C 
ATOM      2  C   UNL     1       0.052   0.020   0.006  0.00  0.00    -0.010 A 
ATOM      3  C   UNL     1       0.045  -0.800  -1.129  0.00  0.00    +0.042 A 
ATOM      4  C   UNL     1       0.010  -2.125  -0.695  0.00  0.00    +0.028 A 
ATOM      5  N   UNL     1      -0.001  -2.119   0.638  0.00  0.00    -0.354 N 
ATOM      6  H   UNL     1      -0.022  -2.908   1.203  0.00  0.00    +0.166 HD
ATOM      7  C   UNL     1       0.029  -0.813   1.090  0.00  0.00    +0.106 A 
ATOM      8  C   UNL     1      -0.013  -3.297  -1.643  0.00  0.00    +0.062 C 
ATOM      9  C   UNL     1      -0.497  -2.825  -3.018  0.00  0.00    +0.032 C 
ATOM     10  C   UNL     1       0.328  -1.627  -3.499  0.00  0.00    +0.088 C 
ATOM     11  C   UNL     1       0.071  -0.458  -2.560  0.00  0.00    +0.166 C 
ATOM     12  O   UNL     1      -0.101   0.674  -2.961  0.00  0.00    -0.292 OA
ENDROOT
BRANCH   7  13
ATOM     13  C   UNL     1       0.032  -0.391   2.496  0.00  0.00    +0.263 C 
ATOM     14  O   UNL     1       1.027  -0.553   3.177  0.00  0.00    -0.268 OA
ATOM     15  N   UNL     1      -1.067   0.175   3.032  0.00  0.00    -0.292 N 
ATOM     16  C   UNL     1      -2.322   0.263   2.270  0.00  0.00    +0.136 C 
ATOM     17  C   UNL     1      -3.457  -0.287   3.141  0.00  0.00    +0.179 C 
ATOM     18  O   UNL     1      -3.437   0.371   4.410  0.00  0.00    -0.377 OA
ATOM     19  C   UNL     1      -2.244   0.150   5.166  0.00  0.00    +0.179 C 
ATOM     20  C   UNL     1      -1.049   0.718   4.400  0.00  0.00    +0.136 C 
ENDBRANCH   7  13
BRANCH   9  21
ATOM     21  C   UNL     1      -0.357  -3.952  -4.007  0.00  0.00    -0.043 A 
ATOM     22  C   UNL     1       0.886  -4.506  -4.253  0.00  0.00    +0.005 A 
ATOM     23  C   UNL     1       1.014  -5.540  -5.161  0.00  0.00    +0.020 A 
ATOM     24  C   UNL     1      -0.101  -6.021  -5.823  0.00  0.00    +0.041 A 
ATOM     25  C   UNL     1      -1.344  -5.467  -5.577  0.00  0.00    +0.020 A 
ATOM     26  C   UNL     1      -1.472  -4.436  -4.665  0.00  0.00    +0.005 A 
ATOM     27 CL   UNL     1       0.060  -7.320  -6.964  0.00  0.00    -0.084 Cl
ENDBRANCH   9  21
TORSDOF 2
