REMARK  Name = ZINC21032432
REMARK  9 active torsions:
REMARK  status: ('A' for Active; 'I' for Inactive)
REMARK    1  A    between atoms: C_1  and  C_2
REMARK    2  A    between atoms: C_5  and  C_16
REMARK    3  A    between atoms: C_7  and  S_8
REMARK    4  A    between atoms: S_8  and  N_11
REMARK    5  A    between atoms: N_11  and  C_12
REMARK    6  A    between atoms: C_12  and  C_13
REMARK    7  A    between atoms: C_12  and  C_14
REMARK    8  A    between atoms: C_12  and  C_15
REMARK    9  A    between atoms: C_19  and  C_21
REMARK                            x       y       z     vdW  Elec       q    Type
REMARK                         _______ _______ _______ _____ _____    ______ ____
ROOT
ATOM      1  C   UNL     1      -5.568   4.759  -1.321  0.00  0.00    +0.046 C 
ATOM      2  C   UNL     1      -4.501   4.324  -0.350  0.00  0.00    -0.024 A 
ATOM      3  C   UNL     1      -3.513   5.214   0.032  0.00  0.00    +0.006 A 
ATOM      4  C   UNL     1      -2.533   4.822   0.920  0.00  0.00    +0.012 A 
ATOM      5  C   UNL     1      -2.539   3.524   1.433  0.00  0.00    +0.021 A 
ATOM      6  C   UNL     1      -3.535   2.629   1.039  0.00  0.00    +0.040 A 
ATOM      7  C   UNL     1      -4.513   3.036   0.154  0.00  0.00    +0.109 A 
ENDROOT
BRANCH   5   8
ATOM      8  C   UNL     1      -1.492   3.097   2.385  0.00  0.00    +0.155 A 
ATOM      9  C   UNL     1      -0.461   3.851   2.846  0.00  0.00    +0.161 A 
ATOM     10  N   UNL     1       0.256   3.086   3.682  0.00  0.00    -0.221 NA
ATOM     11  C   UNL     1      -0.291   1.905   3.748  0.00  0.00    +0.193 A 
ATOM     12  O   UNL     1      -1.373   1.879   2.959  0.00  0.00    -0.440 OA
ATOM     13  C   UNL     1       0.212   0.753   4.580  0.00  0.00    +0.109 C 
ENDBRANCH   5   8
BRANCH   7  14
ATOM     14  S   UNL     1      -5.776   1.910  -0.339  0.00  0.00    +0.059 S 
ATOM     15  O   UNL     1      -5.476   0.667   0.281  0.00  0.00    -0.153 OA
ATOM     16  O   UNL     1      -7.014   2.579  -0.146  0.00  0.00    -0.153 OA
BRANCH  14  17
ATOM     17  N   UNL     1      -5.613   1.676  -1.970  0.00  0.00    -0.185 NA
ATOM     18  H   UNL     1      -6.292   2.200  -2.659  0.00  0.00    +0.149 HD
BRANCH  17  19
ATOM     19  C   UNL     1      -4.448   0.959  -2.495  0.00  0.00    +0.032 C 
ATOM     20  C   UNL     1      -4.497  -0.499  -2.036  0.00  0.00    +0.029 C 
ATOM     21  C   UNL     1      -4.462   1.014  -4.024  0.00  0.00    +0.029 C 
ATOM     22  C   UNL     1      -3.168   1.615  -1.973  0.00  0.00    +0.029 C 
ENDBRANCH  17  19
ENDBRANCH  14  17
ENDBRANCH   7  14
TORSDOF 4
