REMARK  Name = ZINC16451053
REMARK  5 active torsions:
REMARK  status: ('A' for Active; 'I' for Inactive)
REMARK    1  A    between atoms: C_4  and  N_7
REMARK    2  A    between atoms: N_9  and  C_28
REMARK    3  A    between atoms: C_13  and  C_14
REMARK    4  A    between atoms: N_16  and  C_23
REMARK    5  A    between atoms: C_23  and  C_24
REMARK                            x       y       z     vdW  Elec       q    Type
REMARK                         _______ _______ _______ _____ _____    ______ ____
ROOT
ATOM      1  N   UNL     1       3.669  -0.899  -0.786  0.00  0.00    -0.225 NA
ATOM      2  C   UNL     1       3.821  -1.826   0.134  0.00  0.00    +0.173 C 
ATOM      3  N   UNL     1       2.852  -2.507   0.847  0.00  0.00    -0.214 N 
ATOM      4  C   UNL     1       3.204  -3.416   1.740  0.00  0.00    +0.263 C 
ATOM      5  O   UNL     1       2.362  -4.024   2.376  0.00  0.00    -0.269 OA
ATOM      6  C   UNL     1       4.593  -3.666   1.942  0.00  0.00    +0.079 C 
ATOM      7  C   UNL     1       5.197  -4.541   2.792  0.00  0.00    +0.030 C 
ATOM      8  S   UNL     1       5.332  -2.532   0.775  0.00  0.00    -0.048 S 
ENDROOT
BRANCH   7   9
ATOM      9  C   UNL     1       4.399  -5.269   3.780  0.00  0.00    +0.001 A 
ATOM     10  C   UNL     1       3.334  -4.788   4.487  0.00  0.00    +0.095 A 
ATOM     11  N   UNL     1       2.853  -5.759   5.306  0.00  0.00    -0.335 N 
ATOM     12  C   UNL     1       3.589  -6.917   5.163  0.00  0.00    +0.050 A 
ATOM     13  C   UNL     1       4.583  -6.671   4.203  0.00  0.00    +0.007 A 
ATOM     14  C   UNL     1       5.479  -7.677   3.851  0.00  0.00    +0.010 A 
ATOM     15  C   UNL     1       5.382  -8.915   4.447  0.00  0.00    +0.001 A 
ATOM     16  C   UNL     1       4.399  -9.162   5.394  0.00  0.00    +0.002 A 
ATOM     17  C   UNL     1       3.510  -8.172   5.757  0.00  0.00    +0.026 A 
BRANCH  11  18
ATOM     18  C   UNL     1       1.713  -5.599   6.213  0.00  0.00    +0.246 C 
BRANCH  18  19
ATOM     19  C   UNL     1       2.212  -5.231   7.586  0.00  0.00    +0.375 C 
ATOM     20  O   UNL     1       3.408  -5.113   7.789  0.00  0.00    -0.244 OA
ATOM     21  O   UNL     1       1.419  -5.050   8.495  0.00  0.00    -0.244 OA
ENDBRANCH  18  19
ENDBRANCH  11  18
ENDBRANCH   7   9
BRANCH   1  25
ATOM     22  C   UNL     1      -0.084   0.675  -1.536  0.00  0.00    +0.000 A 
ATOM     23  C   UNL     1       0.512   0.873  -0.303  0.00  0.00    +0.002 A 
ATOM     24  C   UNL     1       1.763   0.351  -0.046  0.00  0.00    +0.028 A 
ATOM     25  C   UNL     1       2.428  -0.379  -1.034  0.00  0.00    +0.067 A 
ATOM     26  C   UNL     1       1.820  -0.574  -2.276  0.00  0.00    +0.028 A 
ATOM     27  C   UNL     1       0.570  -0.046  -2.520  0.00  0.00    +0.002 A 
ENDBRANCH   1  25
BRANCH   3  28
ATOM     28  C   UNL     1       1.497  -2.235   0.623  0.00  0.00    +0.043 A 
ATOM     29  C   UNL     1       0.891  -2.641  -0.559  0.00  0.00    +0.024 A 
ATOM     30  C   UNL     1      -0.445  -2.371  -0.777  0.00  0.00    +0.002 A 
ATOM     31  C   UNL     1      -1.181  -1.697   0.181  0.00  0.00    +0.000 A 
ATOM     32  C   UNL     1      -0.581  -1.291   1.359  0.00  0.00    +0.002 A 
ATOM     33  C   UNL     1       0.754  -1.563   1.585  0.00  0.00    +0.024 A 
ENDBRANCH   3  28
TORSDOF 5
