REMARK  Name = ZINC07461969
REMARK  7 active torsions:
REMARK  status: ('A' for Active; 'I' for Inactive)
REMARK    1  A    between atoms: C_1  and  C_2
REMARK    2  A    between atoms: C_5  and  O_11
REMARK    3  A    between atoms: C_6  and  N_8
REMARK    4  A    between atoms: O_11  and  C_12
REMARK    5  A    between atoms: C_12  and  C_13
REMARK    6  A    between atoms: N_15  and  C_16
REMARK    7  A    between atoms: C_17  and  C_25
REMARK                            x       y       z     vdW  Elec       q    Type
REMARK                         _______ _______ _______ _____ _____    ______ ____
ROOT
ATOM      1  C   UNL     1       0.081  -6.266  -1.108  0.00  0.00    +0.255 C 
ATOM      2  O   UNL     1       0.093  -6.735   0.010  0.00  0.00    -0.272 OA
ATOM      3  N   UNL     1       0.086  -7.081  -2.182  0.00  0.00    -0.277 N 
ATOM      4  H   UNL     1       0.076  -6.705  -3.076  0.00  0.00    +0.155 HD
ENDROOT
BRANCH   3   5
ATOM      5  C   UNL     1       0.105  -8.456  -2.007  0.00  0.00    +0.084 A 
ATOM      6  C   UNL     1       0.119  -9.439  -2.985  0.00  0.00    +0.068 A 
ATOM      7  C   UNL     1       0.138 -10.821  -2.538  0.00  0.00    -0.023 A 
ATOM      8  C   UNL     1       0.139 -10.966  -1.195  0.00  0.00    -0.004 A 
ATOM      9  S   UNL     1       0.124  -9.314  -0.564  0.00  0.00    -0.077 S 
ATOM     10  C   UNL     1       0.155 -12.254  -0.430  0.00  0.00    +0.043 C 
ATOM     11  C   UNL     1      -0.211 -13.392  -1.394  0.00  0.00    +0.005 C 
ATOM     12  C   UNL     1       0.624 -13.249  -2.670  0.00  0.00    +0.005 C 
ATOM     13  C   UNL     1       0.156 -12.027  -3.464  0.00  0.00    +0.037 C 
BRANCH   6  14
ATOM     14  C   UNL     1       0.113  -9.098  -4.411  0.00  0.00    +0.244 C 
ATOM     15  O   UNL     1       1.165  -8.942  -5.003  0.00  0.00    -0.270 OA
ATOM     16  N   UNL     1      -1.056  -8.957  -5.066  0.00  0.00    -0.325 N 
ATOM     17  H   UNL     1      -1.894  -9.081  -4.594  0.00  0.00    +0.145 HD
ATOM     18  H   UNL     1      -1.060  -8.731  -6.009  0.00  0.00    +0.145 HD
ENDBRANCH   6  14
ENDBRANCH   3   5
BRANCH   1  19
ATOM     19  C   UNL     1       0.060  -4.771  -1.298  0.00  0.00    +0.325 C 
BRANCH  19  20
ATOM     20  O   UNL     1       0.058  -4.129  -0.021  0.00  0.00    -0.480 OA
BRANCH  20  25
ATOM     21  C   UNL     1      -0.018   1.503   0.010  0.00  0.00    +0.044 C 
ATOM     22  C   UNL     1       0.002  -0.004   0.002  0.00  0.00    -0.048 A 
ATOM     23  C   UNL     1       0.006  -0.688  -1.200  0.00  0.00    +0.007 A 
ATOM     24  C   UNL     1       0.025  -2.069  -1.210  0.00  0.00    +0.048 A 
ATOM     25  C   UNL     1       0.040  -2.770  -0.013  0.00  0.00    +0.151 A 
ATOM     26  C   UNL     1       0.037  -2.082   1.191  0.00  0.00    +0.168 A 
ATOM     27  C   UNL     1       0.023  -0.701   1.196  0.00  0.00    +0.039 A 
BRANCH  26  28
ATOM     28  N   UNL     1       0.053  -2.827   2.470  0.00  0.00    +0.060 N 
ATOM     29  O   UNL     1       0.050  -2.227   3.519  0.00  0.00    -0.126 OA
ATOM     30  O   UNL     1       0.069  -4.036   2.465  0.00  0.00    -0.126 OA
ENDBRANCH  26  28
ENDBRANCH  20  25
ENDBRANCH  19  20
ENDBRANCH   1  19
TORSDOF 6
