REMARK  Name = ZINC44237342
REMARK  6 active torsions:
REMARK  status: ('A' for Active; 'I' for Inactive)
REMARK    1  A    between atoms: C_1  and  N_2
REMARK    2  A    between atoms: N_2  and  C_3
REMARK    3  A    between atoms: N_2  and  C_4
REMARK    4  A    between atoms: C_8  and  O_10
REMARK    5  A    between atoms: O_10  and  C_11
REMARK    6  A    between atoms: C_20  and  O_22
REMARK                            x       y       z     vdW  Elec       q    Type
REMARK                         _______ _______ _______ _____ _____    ______ ____
ROOT
ATOM      1  C   UNL     1       0.076  -0.775  -5.986  0.00  0.00    +0.211 C 
ATOM      2  C   UNL     1       1.556  -0.967  -6.381  0.00  0.00    +0.083 C 
ATOM      3  C   UNL     1       1.569  -0.936  -7.895  0.00  0.00    -0.038 A 
ATOM      4  C   UNL     1       2.533  -1.362  -8.793  0.00  0.00    +0.004 A 
ATOM      5  C   UNL     1       2.323  -1.232 -10.152  0.00  0.00    +0.000 A 
ATOM      6  C   UNL     1       1.147  -0.674 -10.618  0.00  0.00    +0.000 A 
ATOM      7  C   UNL     1       0.184  -0.249  -9.724  0.00  0.00    +0.006 A 
ATOM      8  C   UNL     1       0.393  -0.379  -8.361  0.00  0.00    -0.012 A 
ATOM      9  C   UNL     1      -0.495   0.001  -7.191  0.00  0.00    +0.186 C 
ENDROOT
BRANCH   9  10
ATOM     10  O   UNL     1      -0.426   1.408  -6.954  0.00  0.00    -0.383 OA
ATOM     11  H   UNL     1      -0.771   1.947  -7.678  0.00  0.00    +0.210 HD
ENDBRANCH   9  10
BRANCH   1  12
ATOM     12  O   UNL     1      -0.033  -0.005  -4.787  0.00  0.00    -0.486 OA
BRANCH  12  17
ATOM     13  C   UNL     1      -0.287  -0.717  -1.224  0.00  0.00    +0.033 A 
ATOM     14  C   UNL     1      -0.091  -2.093  -1.225  0.00  0.00    +0.023 A 
ATOM     15  C   UNL     1       0.124  -2.760  -2.414  0.00  0.00    +0.005 A 
ATOM     16  C   UNL     1       0.144  -2.063  -3.608  0.00  0.00    +0.046 A 
ATOM     17  C   UNL     1      -0.053  -0.689  -3.614  0.00  0.00    +0.123 A 
ATOM     18  C   UNL     1      -0.274  -0.016  -2.422  0.00  0.00    +0.068 A 
BRANCH  13  20
ATOM     19  C   UNL     1      -0.718   1.407  -0.023  0.00  0.00    +0.129 C 
ATOM     20  N   UNL     1      -0.505  -0.042  -0.021  0.00  0.00    -0.336 N 
ATOM     21  C   UNL     1      -0.519  -0.783   1.242  0.00  0.00    +0.129 C 
ENDBRANCH  13  20
ENDBRANCH  12  17
ENDBRANCH   1  12
TORSDOF 4
