REMARK  Name = ZINC12882492
REMARK  7 active torsions:
REMARK  status: ('A' for Active; 'I' for Inactive)
REMARK    1  A    between atoms: C_1  and  C_2
REMARK    2  A    between atoms: C_17  and  C_19
REMARK    3  A    between atoms: C_19  and  C_20
REMARK    4  A    between atoms: C_23  and  O_26
REMARK    5  A    between atoms: N_29  and  C_32
REMARK    6  A    between atoms: C_32  and  C_33
REMARK    7  A    between atoms: C_33  and  C_34
REMARK                            x       y       z     vdW  Elec       q    Type
REMARK                         _______ _______ _______ _____ _____    ______ ____
ROOT
ATOM      1  C   UNL     1      -4.130   5.748  -2.876  0.00  0.00    +0.044 C 
ATOM      2  C   UNL     1      -4.082   4.262  -2.635  0.00  0.00    -0.049 A 
ATOM      3  C   UNL     1      -3.120   3.726  -1.797  0.00  0.00    +0.008 A 
ATOM      4  C   UNL     1      -3.075   2.367  -1.578  0.00  0.00    -0.026 A 
ATOM      5  C   UNL     1      -3.993   1.520  -2.192  0.00  0.00    +0.054 A 
ATOM      6  C   UNL     1      -4.959   2.067  -3.035  0.00  0.00    +0.063 A 
ATOM      7  C   UNL     1      -4.998   3.430  -3.252  0.00  0.00    +0.025 A 
ATOM      8 CL   UNL     1      -6.115   1.032  -3.814  0.00  0.00    -0.082 Cl
ATOM      9  N   UNL     1      -3.751   0.195  -1.820  0.00  0.00    -0.285 N 
ATOM     10  C   UNL     1      -2.706   0.087  -0.977  0.00  0.00    +0.211 C 
ATOM     11  O   UNL     1      -2.270  -0.936  -0.492  0.00  0.00    -0.277 OA
ATOM     12  C   UNL     1      -2.186   1.480  -0.753  0.00  0.00    +0.050 C 
ATOM     13  C   UNL     1      -2.228   1.862   0.731  0.00  0.00    +0.088 C 
ATOM     14  C   UNL     1      -0.779   1.605   1.242  0.00  0.00    +0.073 C 
ATOM     15  C   UNL     1      -0.013   1.086   0.008  0.00  0.00    -0.053 C 
ATOM     16  C   UNL     1      -0.285   2.989   1.594  0.00  0.00    +0.224 C 
ATOM     17  O   UNL     1       0.817   3.248   2.028  0.00  0.00    -0.275 OA
ATOM     18  N   UNL     1      -1.251   3.883   1.352  0.00  0.00    -0.241 N 
ATOM     19  C   UNL     1      -2.383   3.360   0.868  0.00  0.00    +0.225 C 
ATOM     20  O   UNL     1      -3.379   3.989   0.583  0.00  0.00    -0.275 OA
ATOM     21  H   UNL     1      -4.275  -0.559  -2.132  0.00  0.00    +0.155 HD
ATOM     22  N   UNL     1      -0.787   1.587  -1.130  0.00  0.00    +0.394 N 
ATOM     23  H   UNL     1      -0.544   2.566  -1.321  0.00  0.00    -0.083 HD
ATOM     24  H   UNL     1      -0.600   1.018  -1.964  0.00  0.00    -0.083 HD
ENDROOT
BRANCH  15  25
ATOM     25  C   UNL     1       1.415   1.637  -0.003  0.00  0.00    +0.020 C 
BRANCH  25  26
ATOM     26  C   UNL     1       2.171   1.050  -1.167  0.00  0.00    -0.049 A 
ATOM     27  C   UNL     1       2.878  -0.127  -1.008  0.00  0.00    +0.007 A 
ATOM     28  C   UNL     1       3.568  -0.670  -2.075  0.00  0.00    +0.045 A 
ATOM     29  C   UNL     1       3.559  -0.026  -3.304  0.00  0.00    +0.117 A 
ATOM     30  C   UNL     1       2.853   1.157  -3.460  0.00  0.00    +0.045 A 
ATOM     31  C   UNL     1       2.160   1.693  -2.391  0.00  0.00    +0.007 A 
BRANCH  29  32
ATOM     32  O   UNL     1       4.241  -0.555  -4.354  0.00  0.00    -0.507 OA
ATOM     33  H   UNL     1       5.156  -0.249  -4.422  0.00  0.00    +0.292 HD
ENDBRANCH  29  32
ENDBRANCH  25  26
ENDBRANCH  15  25
BRANCH  18  34
ATOM     34  C   UNL     1      -1.081   5.317   1.596  0.00  0.00    +0.121 C 
BRANCH  34  35
ATOM     35  C   UNL     1      -1.518   5.646   3.026  0.00  0.00    +0.054 C 
BRANCH  35  36
ATOM     36  C   UNL     1      -1.344   7.121   3.277  0.00  0.00    -0.046 A 
ATOM     37  C   UNL     1      -0.150   7.600   3.784  0.00  0.00    +0.004 A 
ATOM     38  C   UNL     1       0.011   8.954   4.010  0.00  0.00    +0.000 A 
ATOM     39  C   UNL     1      -1.025   9.828   3.740  0.00  0.00    +0.000 A 
ATOM     40  C   UNL     1      -2.220   9.349   3.238  0.00  0.00    +0.000 A 
ATOM     41  C   UNL     1      -2.380   7.996   3.006  0.00  0.00    +0.004 A 
ENDBRANCH  35  36
ENDBRANCH  34  35
ENDBRANCH  18  34
TORSDOF 6
