REMARK  Name = ZINC14655590
REMARK  12 active torsions:
REMARK  status: ('A' for Active; 'I' for Inactive)
REMARK    1  A    between atoms: C_1  and  C_2
REMARK    2  A    between atoms: C_2  and  C_3
REMARK    3  A    between atoms: C_3  and  C_4
REMARK    4  A    between atoms: C_4  and  N_5
REMARK    5  A    between atoms: C_6  and  N_28
REMARK    6  A    between atoms: C_7  and  N_14
REMARK    7  A    between atoms: N_14  and  C_15
REMARK    8  A    between atoms: C_16  and  C_18
REMARK    9  A    between atoms: C_18  and  O_19
REMARK   10  A    between atoms: O_19  and  C_20
REMARK   11  A    between atoms: C_23  and  C_27
REMARK   12  A    between atoms: C_25  and  C_26
REMARK                            x       y       z     vdW  Elec       q    Type
REMARK                         _______ _______ _______ _____ _____    ______ ____
ROOT
ATOM      1  N   UNL     1      -0.404  -2.440  -0.283  0.00  0.00    -0.280 N 
ATOM      2  C   UNL     1      -0.344  -3.161   0.886  0.00  0.00    +0.127 A 
ATOM      3  C   UNL     1      -1.365  -4.039   1.189  0.00  0.00    +0.139 A 
ATOM      4  C   UNL     1      -2.439  -4.168   0.289  0.00  0.00    +0.277 A 
ATOM      5  O   UNL     1      -3.354  -4.937   0.532  0.00  0.00    -0.266 OA
ATOM      6  N   UNL     1      -2.449  -3.438  -0.843  0.00  0.00    -0.273 N 
ATOM      7  H   UNL     1      -3.210  -3.532  -1.486  0.00  0.00    +0.173 HD
ATOM      8  C   UNL     1      -1.448  -2.584  -1.119  0.00  0.00    +0.331 A 
ATOM      9  O   UNL     1      -1.484  -1.933  -2.146  0.00  0.00    -0.246 OA
ENDROOT
BRANCH   3  10
ATOM     10  N   UNL     1      -1.332  -4.794   2.381  0.00  0.00    -0.265 N 
ATOM     11  C   UNL     1      -1.426  -4.119   3.678  0.00  0.00    +0.138 C 
ATOM     12  C   UNL     1      -1.215  -6.137   2.326  0.00  0.00    +0.257 C 
ATOM     13  O   UNL     1      -1.225  -6.703   1.253  0.00  0.00    -0.272 OA
BRANCH  12  14
ATOM     14  C   UNL     1      -1.072  -6.934   3.597  0.00  0.00    +0.325 C 
BRANCH  14  15
ATOM     15  O   UNL     1      -0.966  -8.323   3.279  0.00  0.00    -0.482 OA
BRANCH  15  16
ATOM     16  C   UNL     1      -0.830  -9.185   4.320  0.00  0.00    +0.124 A 
ATOM     17  C   UNL     1      -0.799  -8.704   5.622  0.00  0.00    +0.046 A 
ATOM     18  C   UNL     1      -0.661  -9.583   6.678  0.00  0.00    +0.007 A 
ATOM     19  C   UNL     1      -0.553 -10.941   6.440  0.00  0.00    -0.050 A 
ATOM     20  C   UNL     1      -0.584 -11.423   5.144  0.00  0.00    +0.010 A 
ATOM     21  C   UNL     1      -0.727 -10.548   4.084  0.00  0.00    -0.009 A 
ATOM     22  C   UNL     1      -0.766 -11.074   2.673  0.00  0.00    +0.047 C 
ATOM     23  C   UNL     1      -0.403 -11.898   7.595  0.00  0.00    +0.044 C 
ENDBRANCH  15  16
ENDBRANCH  14  15
ENDBRANCH  12  14
ENDBRANCH   3  10
BRANCH   2  24
ATOM     24  N   UNL     1       0.720  -3.010   1.743  0.00  0.00    -0.343 N 
ATOM     25  H   UNL     1       1.469  -2.448   1.491  0.00  0.00    +0.144 HD
ATOM     26  H   UNL     1       0.722  -3.466   2.599  0.00  0.00    +0.144 HD
ENDBRANCH   2  24
BRANCH   1  27
ATOM     27  C   UNL     1       0.673  -1.504  -0.617  0.00  0.00    +0.128 C 
BRANCH  27  28
ATOM     28  C   UNL     1       1.752  -2.233  -1.420  0.00  0.00    +0.021 C 
BRANCH  28  30
ATOM     29  C   UNL     1       3.955  -1.986  -2.572  0.00  0.00    +0.004 C 
ATOM     30  C   UNL     1       2.876  -1.256  -1.769  0.00  0.00    -0.002 C 
ENDBRANCH  28  30
ENDBRANCH  27  28
ENDBRANCH   1  27
TORSDOF 8
