REMARK  Name = ZINC12027628
REMARK  5 active torsions:
REMARK  status: ('A' for Active; 'I' for Inactive)
REMARK    1  A    between atoms: C_1  and  C_2
REMARK    2  A    between atoms: C_4  and  C_9
REMARK    3  A    between atoms: C_16  and  C_19
REMARK    4  A    between atoms: C_19  and  N_20
REMARK    5  A    between atoms: C_21  and  C_23
REMARK                            x       y       z     vdW  Elec       q    Type
REMARK                         _______ _______ _______ _____ _____    ______ ____
ROOT
ATOM      1  C   UNL     1      -0.682  -7.056   2.413  0.00  0.00    +0.027 A 
ATOM      2  C   UNL     1      -1.149  -8.353   2.599  0.00  0.00    +0.050 A 
ATOM      3  C   UNL     1      -2.276  -8.788   1.928  0.00  0.00    +0.124 A 
ATOM      4  C   UNL     1      -2.941  -7.930   1.065  0.00  0.00    +0.045 A 
ATOM      5  C   UNL     1      -2.480  -6.645   0.874  0.00  0.00    +0.001 A 
ATOM      6  C   UNL     1      -1.354  -6.186   1.542  0.00  0.00    +0.132 A 
ATOM      7  O   UNL     1      -1.081  -4.892   1.219  0.00  0.00    -0.486 OA
ATOM      8  C   UNL     1      -1.756  -4.556  -0.006  0.00  0.00    +0.195 C 
ATOM      9  C   UNL     1      -2.978  -5.505   0.006  0.00  0.00    +0.085 C 
ATOM     10  F   UNL     1      -2.731 -10.047   2.112  0.00  0.00    -0.205 F 
ENDROOT
BRANCH   1  14
ATOM     11  C   UNL     1       1.877  -6.547   6.669  0.00  0.00    +0.047 C 
ATOM     12  C   UNL     1       1.762  -6.347   5.180  0.00  0.00    -0.015 A 
ATOM     13  C   UNL     1       0.631  -6.774   4.513  0.00  0.00    +0.014 A 
ATOM     14  C   UNL     1       0.528  -6.594   3.135  0.00  0.00    -0.014 A 
ATOM     15  C   UNL     1       1.563  -5.972   2.438  0.00  0.00    +0.011 A 
ATOM     16  C   UNL     1       2.687  -5.543   3.114  0.00  0.00    +0.039 A 
ATOM     17  C   UNL     1       2.788  -5.730   4.484  0.00  0.00    +0.126 A 
ATOM     18  F   UNL     1       3.890  -5.309   5.141  0.00  0.00    -0.205 F 
ENDBRANCH   1  14
BRANCH   8  19
ATOM     19  C   UNL     1      -2.205  -3.094   0.006  0.00  0.00    +0.149 C 
BRANCH  19  20
ATOM     20  N   UNL     1      -1.028  -2.221  -0.000  0.00  0.00    -0.305 N 
ATOM     21  C   UNL     1      -1.182  -0.882   0.009  0.00  0.00    +0.281 C 
ATOM     22  O   UNL     1      -2.298  -0.398   0.022  0.00  0.00    -0.267 OA
ATOM     23  H   UNL     1      -0.139  -2.607  -0.011  0.00  0.00    +0.149 HD
BRANCH  21  24
ATOM     24  C   UNL     1       0.002  -0.004   0.002  0.00  0.00    +0.217 A 
ATOM     25  N   UNL     1      -0.017   1.381   0.010  0.00  0.00    -0.286 N 
ATOM     26  H   UNL     1      -0.810   1.938   0.017  0.00  0.00    +0.172 HD
ATOM     27  C   UNL     1       1.258   1.819  -0.000  0.00  0.00    +0.342 A 
ATOM     28  O   UNL     1       1.617   2.983   0.002  0.00  0.00    -0.245 OA
ATOM     29  N   UNL     1       2.063   0.738  -0.014  0.00  0.00    -0.226 N 
ATOM     30  H   UNL     1       3.033   0.746  -0.023  0.00  0.00    +0.194 HD
ATOM     31  N   UNL     1       1.245  -0.400  -0.012  0.00  0.00    -0.147 NA
ENDBRANCH  21  24
ENDBRANCH  19  20
ENDBRANCH   8  19
TORSDOF 4
