REMARK  Name = ZINC13298070
REMARK  9 active torsions:
REMARK  status: ('A' for Active; 'I' for Inactive)
REMARK    1  A    between atoms: C_3  and  C_8
REMARK    2  A    between atoms: C_8  and  N_9
REMARK    3  A    between atoms: N_9  and  C_10
REMARK    4  A    between atoms: N_9  and  S_21
REMARK    5  A    between atoms: C_10  and  C_11
REMARK    6  A    between atoms: C_14  and  C_17
REMARK    7  A    between atoms: N_19  and  O_20
REMARK    8  A    between atoms: S_21  and  C_24
REMARK    9  A    between atoms: C_27  and  N_30
REMARK                            x       y       z     vdW  Elec       q    Type
REMARK                         _______ _______ _______ _____ _____    ______ ____
ROOT
ATOM      1  N   UNL     1       0.906  -0.486   1.049  0.00  0.00    -0.172 NA
ENDROOT
BRANCH   1   2
ATOM      2  S   UNL     1       2.526  -0.635   0.735  0.00  0.00    +0.061 S 
ATOM      3  O   UNL     1       3.049  -1.521   1.716  0.00  0.00    -0.153 OA
ATOM      4  O   UNL     1       2.648  -0.883  -0.659  0.00  0.00    -0.153 OA
BRANCH   2   5
ATOM      5  C   UNL     1       3.261   0.938   1.033  0.00  0.00    +0.106 A 
ATOM      6  C   UNL     1       3.361   1.858   0.006  0.00  0.00    +0.030 A 
ATOM      7  C   UNL     1       3.932   3.094   0.237  0.00  0.00    +0.024 A 
ATOM      8  C   UNL     1       4.417   3.408   1.501  0.00  0.00    +0.025 A 
ATOM      9  C   UNL     1       4.320   2.479   2.529  0.00  0.00    +0.024 A 
ATOM     10  C   UNL     1       3.743   1.247   2.292  0.00  0.00    +0.030 A 
BRANCH   8  11
ATOM     11  N   UNL     1       4.999   4.655   1.737  0.00  0.00    -0.358 N 
ATOM     12  H   UNL     1       5.337   4.873   2.620  0.00  0.00    +0.142 HD
ATOM     13  H   UNL     1       5.066   5.303   1.018  0.00  0.00    +0.142 HD
ENDBRANCH   8  11
ENDBRANCH   2   5
ENDBRANCH   1   2
BRANCH   1  14
ATOM     14  C   UNL     1       0.395  -0.745   2.397  0.00  0.00    +0.144 C 
BRANCH  14  17
ATOM     15  C   UNL     1       0.385  -4.476   2.976  0.00  0.00    +0.001 A 
ATOM     16  C   UNL     1       0.811  -3.163   2.887  0.00  0.00    +0.005 A 
ATOM     17  C   UNL     1      -0.070  -2.175   2.492  0.00  0.00    -0.031 A 
ATOM     18  C   UNL     1      -1.380  -2.497   2.189  0.00  0.00    +0.020 A 
ATOM     19  C   UNL     1      -1.806  -3.810   2.272  0.00  0.00    +0.018 A 
ATOM     20  C   UNL     1      -0.923  -4.799   2.668  0.00  0.00    +0.015 A 
ATOM     21 BR   UNL     1      -3.596  -4.253   1.852  0.00  0.00    -0.050 Br
ENDBRANCH  14  17
ENDBRANCH   1  14
BRANCH   1  22
ATOM     22  C   UNL     1      -0.014  -0.095  -0.022  0.00  0.00    +0.113 C 
BRANCH  22  23
ATOM     23  C   UNL     1      -0.193   1.424  -0.011  0.00  0.00    +0.005 C 
ATOM     24  C   UNL     1      -0.887   1.847   1.285  0.00  0.00    +0.005 C 
ATOM     25  C   UNL     1      -1.066   3.366   1.295  0.00  0.00    +0.013 C 
ATOM     26  C   UNL     1      -1.921   3.788   0.098  0.00  0.00    +0.077 C 
ATOM     27  C   UNL     1      -1.226   3.365  -1.198  0.00  0.00    +0.013 C 
ATOM     28  C   UNL     1      -1.048   1.845  -1.208  0.00  0.00    +0.005 C 
BRANCH  26  29
ATOM     29  C   UNL     1      -3.270   3.122   0.185  0.00  0.00    +0.239 C 
ATOM     30  O   UNL     1      -3.640   2.383  -0.702  0.00  0.00    -0.273 OA
ATOM     31  N   UNL     1      -4.066   3.349   1.249  0.00  0.00    -0.197 N 
ATOM     32  H   UNL     1      -3.770   3.941   1.959  0.00  0.00    +0.182 HD
BRANCH  31  33
ATOM     33  O   UNL     1      -5.334   2.724   1.331  0.00  0.00    -0.295 OA
ATOM     34  H   UNL     1      -5.832   2.947   2.129  0.00  0.00    +0.241 HD
ENDBRANCH  31  33
ENDBRANCH  26  29
ENDBRANCH  22  23
ENDBRANCH   1  22
TORSDOF 9
