REMARK  Name = ZINC41850891
REMARK  6 active torsions:
REMARK  status: ('A' for Active; 'I' for Inactive)
REMARK    1  A    between atoms: C_1  and  C_2
REMARK    2  A    between atoms: C_7  and  C_22
REMARK    3  A    between atoms: N_9  and  C_10
REMARK    4  A    between atoms: C_10  and  C_11
REMARK    5  A    between atoms: C_10  and  C_12
REMARK    6  A    between atoms: C_10  and  C_19
REMARK                            x       y       z     vdW  Elec       q    Type
REMARK                         _______ _______ _______ _____ _____    ______ ____
ROOT
ATOM      1  C   UNL     1       2.210  -0.177   1.261  0.00  0.00    +0.063 C 
ATOM      2  C   UNL     1       2.445  -1.311   0.261  0.00  0.00    +0.007 C 
ENDROOT
BRANCH   1   9
ATOM      3  C   UNL     1       0.507   1.468  -0.373  0.00  0.00    -0.013 C 
ATOM      4  C   UNL     1       0.056   0.152   0.263  0.00  0.00    -0.069 C 
ATOM      5  C   UNL     1      -1.450   0.204   0.527  0.00  0.00    -0.016 C 
ATOM      6  C   UNL     1      -1.756   1.363   1.480  0.00  0.00    -0.003 C 
ATOM      7  C   UNL     1      -0.947   1.181   2.767  0.00  0.00    -0.016 C 
ATOM      8  C   UNL     1       0.541   1.092   2.420  0.00  0.00    -0.069 C 
ATOM      9  N   UNL     1       0.771  -0.051   1.529  0.00  0.00    +0.397 N 
ATOM     10  C   UNL     1       1.353   0.909   3.703  0.00  0.00    -0.013 C 
ATOM     11  H   UNL     1       0.438  -0.894   1.971  0.00  0.00    -0.079 HD
ENDBRANCH   1   9
BRANCH   1  12
ATOM     12  C   UNL     1       2.730   1.115   0.687  0.00  0.00    -0.029 A 
ATOM     13  C   UNL     1       2.761   2.255   1.468  0.00  0.00    +0.004 A 
ATOM     14  C   UNL     1       3.239   3.441   0.942  0.00  0.00    +0.000 A 
ATOM     15  C   UNL     1       3.685   3.487  -0.366  0.00  0.00    +0.001 A 
ATOM     16  C   UNL     1       3.655   2.348  -1.147  0.00  0.00    +0.020 A 
ATOM     17  C   UNL     1       3.182   1.160  -0.619  0.00  0.00    +0.043 A 
ATOM     18 CL   UNL     1       3.150  -0.274  -1.599  0.00  0.00    -0.083 Cl
ENDBRANCH   1  12
BRANCH   1  19
ATOM     19  C   UNL     1       2.935  -0.484   2.547  0.00  0.00    +0.350 C 
ATOM     20  O   UNL     1       2.399  -1.172   3.399  0.00  0.00    -0.248 OA
ATOM     21  O   UNL     1       4.056  -0.044   2.734  0.00  0.00    -0.248 OA
ENDBRANCH   1  19
TORSDOF 3
