REMARK  Name = ZINC38004134
REMARK  4 active torsions:
REMARK  status: ('A' for Active; 'I' for Inactive)
REMARK    1  A    between atoms: C_1  and  C_2
REMARK    2  A    between atoms: C_2  and  C_3
REMARK    3  A    between atoms: C_5  and  C_17
REMARK    4  A    between atoms: C_13  and  N_16
REMARK                            x       y       z     vdW  Elec       q    Type
REMARK                         _______ _______ _______ _____ _____    ______ ____
ROOT
ATOM      1  C   UNL     1       0.742  -0.511   1.242  0.00  0.00    +0.123 C 
ATOM      2  C   UNL     1       0.839  -2.022   1.224  0.00  0.00    +0.046 C 
ATOM      3  N   UNL     1       0.220  -2.451   2.254  0.00  0.00    -0.180 NA
ATOM      4  N   UNL     1      -0.323  -1.432   3.030  0.00  0.00    -0.142 N 
ATOM      5  C   UNL     1      -0.056  -0.217   2.497  0.00  0.00    +0.249 C 
ATOM      6  O   UNL     1      -0.384   0.869   2.927  0.00  0.00    -0.273 OA
ATOM      7  C   UNL     1      -1.046  -1.636   4.208  0.00  0.00    +0.149 A 
ATOM      8  C   UNL     1      -1.255  -2.930   4.671  0.00  0.00    +0.047 A 
ATOM      9  C   UNL     1      -1.972  -3.122   5.838  0.00  0.00    +0.027 A 
ATOM     10  C   UNL     1      -2.461  -2.001   6.508  0.00  0.00    +0.043 A 
ATOM     11  C   UNL     1      -2.214  -0.740   5.985  0.00  0.00    +0.135 A 
ATOM     12  N   UNL     1      -1.521  -0.595   4.872  0.00  0.00    -0.236 NA
ATOM     13  C   UNL     1       1.535  -2.862   0.184  0.00  0.00    +0.063 C 
ENDROOT
BRANCH  10  14
ATOM     14  N   UNL     1      -3.192  -2.147   7.691  0.00  0.00    -0.357 N 
ATOM     15  H   UNL     1      -3.362  -3.031   8.051  0.00  0.00    +0.142 HD
ATOM     16  H   UNL     1      -3.530  -1.363   8.153  0.00  0.00    +0.142 HD
ENDBRANCH  10  14
BRANCH   1  18
ATOM     17  C   UNL     1      -0.019   1.526   0.010  0.00  0.00    +0.005 C 
ATOM     18  C   UNL     1       0.002  -0.004   0.002  0.00  0.00    +0.015 C 
ENDBRANCH   1  18
TORSDOF 2
