REMARK  Name = ZINC28367534
REMARK  6 active torsions:
REMARK  status: ('A' for Active; 'I' for Inactive)
REMARK    1  A    between atoms: C_1  and  C_2
REMARK    2  A    between atoms: C_2  and  C_4
REMARK    3  A    between atoms: C_2  and  N_15
REMARK    4  A    between atoms: N_6  and  C_7
REMARK    5  A    between atoms: C_12  and  C_13
REMARK    6  A    between atoms: N_15  and  C_16
REMARK                            x       y       z     vdW  Elec       q    Type
REMARK                         _______ _______ _______ _____ _____    ______ ____
ROOT
ATOM      1  N   UNL     1      -8.059   3.201   2.304  0.00  0.00    -0.333 N 
ATOM      2  H   UNL     1      -8.663   2.281   2.300  0.00  0.00    +0.147 HD
ENDROOT
BRANCH   1   3
ATOM      3  C   UNL     1      -6.770   3.193   1.760  0.00  0.00    +0.031 A 
ATOM      4  C   UNL     1      -6.008   4.354   1.764  0.00  0.00    +0.027 A 
ATOM      5  C   UNL     1      -4.734   4.348   1.228  0.00  0.00    +0.051 A 
ATOM      6  C   UNL     1      -4.215   3.185   0.683  0.00  0.00    +0.167 A 
ATOM      7  C   UNL     1      -4.977   2.019   0.677  0.00  0.00    +0.169 A 
ATOM      8  C   UNL     1      -6.253   2.025   1.216  0.00  0.00    +0.072 A 
ATOM      9  O   UNL     1      -4.249   1.022   0.092  0.00  0.00    -0.447 OA
ATOM     10  C   UNL     1      -2.892   1.490   0.092  0.00  0.00    +0.254 C 
ATOM     11  O   UNL     1      -3.007   2.920   0.099  0.00  0.00    -0.448 OA
ATOM     12  C   UNL     1      -2.170   1.022  -1.167  0.00  0.00    +0.093 C 
ATOM     13  C   UNL     1      -0.736   1.556  -1.163  0.00  0.00    +0.008 C 
ATOM     14  C   UNL     1      -0.006   1.047   0.082  0.00  0.00    +0.000 C 
ATOM     15  C   UNL     1      -0.729   1.543   1.336  0.00  0.00    +0.008 C 
ATOM     16  C   UNL     1      -2.163   1.009   1.342  0.00  0.00    +0.093 C 
ENDBRANCH   1   3
BRANCH   1  18
ATOM     17  C   UNL     1      -8.149   4.563   4.333  0.00  0.00    +0.038 C 
ATOM     18  C   UNL     1      -8.605   4.433   2.878  0.00  0.00    +0.154 C 
BRANCH  18  19
ATOM     19  C   UNL     1     -10.110   4.388   2.825  0.00  0.00    +0.237 C 
ATOM     20  O   UNL     1     -10.672   3.422   2.354  0.00  0.00    -0.273 OA
ATOM     21  N   UNL     1     -10.832   5.422   3.301  0.00  0.00    -0.283 N 
ATOM     22  H   UNL     1     -10.326   6.265   3.795  0.00  0.00    +0.155 HD
BRANCH  21  23
ATOM     23  C   UNL     1     -12.220   5.423   3.168  0.00  0.00    +0.051 A 
ATOM     24  C   UNL     1     -12.929   4.233   3.247  0.00  0.00    +0.024 A 
ATOM     25  C   UNL     1     -14.304   4.236   3.119  0.00  0.00    +0.002 A 
ATOM     26  C   UNL     1     -14.985   5.423   2.902  0.00  0.00    +0.001 A 
ATOM     27  C   UNL     1     -14.297   6.614   2.816  0.00  0.00    +0.021 A 
ATOM     28  C   UNL     1     -12.906   6.627   2.948  0.00  0.00    +0.073 A 
BRANCH  28  29
ATOM     29  C   UNL     1     -12.185   7.861   2.858  0.00  0.00    +0.101 C 
ATOM     30  N   UNL     1     -11.613   8.840   2.788  0.00  0.00    -0.191 NA
ENDBRANCH  28  29
ENDBRANCH  21  23
ENDBRANCH  18  19
ENDBRANCH   1  18
TORSDOF 5
