REMARK  Name = ZINC03639951
REMARK  12 active torsions:
REMARK  status: ('A' for Active; 'I' for Inactive)
REMARK    1  A    between atoms: C_1  and  C_2
REMARK    2  A    between atoms: C_3  and  C_33
REMARK    3  A    between atoms: C_4  and  C_23
REMARK    4  A    between atoms: C_10  and  C_15
REMARK    5  A    between atoms: C_20  and  O_21
REMARK    6  A    between atoms: O_21  and  C_22
REMARK    7  A    between atoms: C_26  and  C_29
REMARK    8  A    between atoms: C_29  and  O_31
REMARK    9  A    between atoms: O_31  and  C_32
REMARK   10  A    between atoms: C_33  and  O_35
REMARK   11  A    between atoms: O_35  and  C_36
REMARK   12  A    between atoms: C_36  and  C_37
REMARK                            x       y       z     vdW  Elec       q    Type
REMARK                         _______ _______ _______ _____ _____    ______ ____
ROOT
ATOM      1  C   UNL     1       1.350   3.712   0.011  0.00  0.00    +0.061 C 
ATOM      2  C   UNL     1       1.258   2.208  -0.002  0.00  0.00    +0.016 C 
ATOM      3  C   UNL     1       0.053   1.613   0.032  0.00  0.00    +0.065 C 
ATOM      4  C   UNL     1      -0.077   0.118   0.029  0.00  0.00    +0.092 C 
ATOM      5  C   UNL     1       1.199  -0.536  -0.440  0.00  0.00    +0.024 C 
ATOM      6  C   UNL     1       2.360   0.152  -0.457  0.00  0.00    +0.016 C 
ATOM      7  N   UNL     1       2.400   1.458  -0.048  0.00  0.00    -0.321 N 
ATOM      8  C   UNL     1       3.640  -0.494  -0.928  0.00  0.00    +0.060 C 
ATOM      9  C   UNL     1       3.602  -1.993  -0.621  0.00  0.00    +0.035 C 
ATOM     10  C   UNL     1       2.380  -2.601  -1.317  0.00  0.00    +0.088 C 
ATOM     11  C   UNL     1       1.144  -1.878  -0.857  0.00  0.00    +0.162 C 
ATOM     12  O   UNL     1       0.080  -2.464  -0.843  0.00  0.00    -0.292 OA
ATOM     13  H   UNL     1       3.362   1.903   0.245  0.00  0.00    +0.152 HD
ENDROOT
BRANCH   9  14
ATOM     14  C   UNL     1       4.857  -2.650  -1.134  0.00  0.00    -0.002 A 
ATOM     15  C   UNL     1       5.174  -2.582  -2.477  0.00  0.00    +0.007 A 
ATOM     16  C   UNL     1       6.325  -3.185  -2.949  0.00  0.00    +0.001 A 
ATOM     17  C   UNL     1       7.162  -3.858  -2.077  0.00  0.00    +0.004 A 
ATOM     18  C   UNL     1       6.851  -3.928  -0.734  0.00  0.00    +0.046 A 
ATOM     19  C   UNL     1       5.698  -3.320  -0.257  0.00  0.00    +0.124 A 
BRANCH  19  20
ATOM     20  O   UNL     1       5.392  -3.383   1.065  0.00  0.00    -0.495 OA
ATOM     21  C   UNL     1       6.303  -4.089   1.909  0.00  0.00    +0.277 C 
ENDBRANCH  19  20
ENDBRANCH   9  14
BRANCH   4  22
ATOM     22  C   UNL     1      -0.390  -0.354   1.426  0.00  0.00    -0.035 A 
ATOM     23  C   UNL     1       0.498  -0.096   2.455  0.00  0.00    +0.005 A 
ATOM     24  C   UNL     1       0.216  -0.520   3.737  0.00  0.00    +0.015 A 
ATOM     25  C   UNL     1      -0.964  -1.222   3.992  0.00  0.00    +0.059 A 
ATOM     26  C   UNL     1      -1.853  -1.484   2.948  0.00  0.00    +0.015 A 
ATOM     27  C   UNL     1      -1.561  -1.049   1.672  0.00  0.00    +0.005 A 
BRANCH  25  28
ATOM     28  C   UNL     1      -1.271  -1.685   5.361  0.00  0.00    +0.339 C 
ATOM     29  O   UNL     1      -2.298  -2.295   5.580  0.00  0.00    -0.245 OA
BRANCH  28  30
ATOM     30  O   UNL     1      -0.411  -1.430   6.367  0.00  0.00    -0.464 OA
ATOM     31  C   UNL     1      -0.777  -1.915   7.686  0.00  0.00    +0.280 C 
ENDBRANCH  28  30
ENDBRANCH  25  28
ENDBRANCH   4  22
BRANCH   3  32
ATOM     32  C   UNL     1      -1.114   2.410   0.065  0.00  0.00    +0.338 C 
ATOM     33  O   UNL     1      -1.022   3.619   0.170  0.00  0.00    -0.245 OA
BRANCH  32  34
ATOM     34  O   UNL     1      -2.330   1.831  -0.021  0.00  0.00    -0.459 OA
BRANCH  34  35
ATOM     35  C   UNL     1      -3.466   2.697   0.019  0.00  0.00    +0.264 C 
BRANCH  35  36
ATOM     36  C   UNL     1      -4.745   1.866  -0.090  0.00  0.00    +0.156 C 
ATOM     37  C   UNL     1      -5.972   2.800  -0.164  0.00  0.00    +0.037 C 
ATOM     38  C   UNL     1      -7.014   2.046   0.706  0.00  0.00    +0.031 C 
ATOM     39  C   UNL     1      -6.095   1.407   1.778  0.00  0.00    +0.160 C 
ATOM     40  O   UNL     1      -4.894   1.048   1.076  0.00  0.00    -0.373 OA
ENDBRANCH  35  36
ENDBRANCH  34  35
ENDBRANCH  32  34
ENDBRANCH   3  32
TORSDOF 9
