REMARK  Name = ZINC01295777
REMARK  5 active torsions:
REMARK  status: ('A' for Active; 'I' for Inactive)
REMARK    1  A    between atoms: C_3  and  C_7
REMARK    2  A    between atoms: C_7  and  C_9
REMARK    3  A    between atoms: C_11  and  C_23
REMARK    4  A    between atoms: C_17  and  C_18
REMARK    5  A    between atoms: C_17  and  O_22
REMARK                            x       y       z     vdW  Elec       q    Type
REMARK                         _______ _______ _______ _____ _____    ______ ____
ROOT
ATOM      1  C   UNL     1      -1.949   3.118   0.272  0.00  0.00    +0.144 C 
ATOM      2  C   UNL     1      -2.554   4.151  -0.685  0.00  0.00    +0.120 C 
ATOM      3  N   UNL     1      -3.905   4.490  -0.234  0.00  0.00    -0.292 N 
ATOM      4  C   UNL     1      -4.244   4.427   1.062  0.00  0.00    +0.302 C 
ATOM      5  O   UNL     1      -5.377   4.729   1.384  0.00  0.00    -0.253 OA
ATOM      6  N   UNL     1      -3.383   4.045   2.017  0.00  0.00    -0.264 N 
ATOM      7  C   UNL     1      -2.002   3.682   1.696  0.00  0.00    +0.243 C 
ATOM      8  H   UNL     1      -4.569   4.764  -0.886  0.00  0.00    +0.151 HD
ATOM      9  H   UNL     1      -3.682   4.009   2.939  0.00  0.00    +0.153 HD
ENDROOT
BRANCH   2  10
ATOM     10  C   UNL     1      -2.615   3.574  -2.076  0.00  0.00    -0.026 A 
ATOM     11  C   UNL     1      -1.551   3.744  -2.942  0.00  0.00    +0.007 A 
ATOM     12  C   UNL     1      -1.604   3.210  -4.215  0.00  0.00    +0.020 A 
ATOM     13  C   UNL     1      -2.728   2.516  -4.628  0.00  0.00    +0.041 A 
ATOM     14  C   UNL     1      -3.795   2.351  -3.763  0.00  0.00    +0.020 A 
ATOM     15  C   UNL     1      -3.738   2.881  -2.487  0.00  0.00    +0.007 A 
ATOM     16 CL   UNL     1      -2.799   1.852  -6.230  0.00  0.00    -0.084 Cl
ENDBRANCH   2  10
BRANCH   7  17
ATOM     17  C   UNL     1      -1.111   4.923   1.788  0.00  0.00    +0.436 C 
ATOM     18  F   UNL     1      -1.566   5.891   0.886  0.00  0.00    -0.166 F 
ATOM     19  F   UNL     1      -1.161   5.437   3.088  0.00  0.00    -0.166 F 
ATOM     20  F   UNL     1       0.207   4.576   1.473  0.00  0.00    -0.166 F 
ENDBRANCH   7  17
BRANCH   1  21
ATOM     21  C   UNL     1      -2.743   1.839   0.204  0.00  0.00    +0.174 C 
ATOM     22  O   UNL     1      -3.944   1.880   0.042  0.00  0.00    -0.291 OA
BRANCH  21  25
ATOM     23  C   UNL     1      -2.098  -1.848   0.397  0.00  0.00    +0.020 A 
ATOM     24  C   UNL     1      -2.788  -0.656   0.274  0.00  0.00    +0.014 A 
ATOM     25  C   UNL     1      -2.061   0.542   0.335  0.00  0.00    +0.036 A 
ATOM     26  C   UNL     1      -0.676   0.481   0.517  0.00  0.00    +0.122 A 
ATOM     27  N   UNL     1      -0.067  -0.680   0.628  0.00  0.00    -0.263 NA
ATOM     28  C   UNL     1      -0.726  -1.822   0.574  0.00  0.00    +0.111 A 
ENDBRANCH  21  25
ENDBRANCH   1  21
BRANCH   7  29
ATOM     29  O   UNL     1      -1.541   2.693   2.619  0.00  0.00    -0.364 OA
ATOM     30  H   UNL     1      -1.548   2.983   3.541  0.00  0.00    +0.212 HD
ENDBRANCH   7  29
TORSDOF 5
