REMARK  Name = ZINC64104215
REMARK  5 active torsions:
REMARK  status: ('A' for Active; 'I' for Inactive)
REMARK    1  A    between atoms: C_1  and  C_2
REMARK    2  A    between atoms: C_2  and  C_3
REMARK    3  A    between atoms: C_2  and  C_4
REMARK    4  A    between atoms: C_2  and  C_5
REMARK    5  A    between atoms: C_13  and  C_16
REMARK                            x       y       z     vdW  Elec       q    Type
REMARK                         _______ _______ _______ _____ _____    ______ ____
ROOT
ATOM      1  C   UNL     1       0.718  -0.497  -1.257  0.00  0.00    -0.001 C 
ATOM      2  C   UNL     1       0.739  -2.029  -1.265  0.00  0.00    +0.009 C 
ATOM      3  C   UNL     1       1.240  -2.502  -2.635  0.00  0.00    +0.042 C 
ATOM      4  C   UNL     1       2.483  -1.734  -2.988  0.00  0.00    -0.014 C 
ATOM      5  C   UNL     1       2.915  -0.613  -2.423  0.00  0.00    -0.058 C 
ATOM      6  C   UNL     1       2.151   0.032  -1.268  0.00  0.00    +0.035 C 
ATOM      7  C   UNL     1       4.174   0.006  -2.975  0.00  0.00    +0.055 C 
ATOM      8  C   UNL     1       5.015  -1.029  -3.762  0.00  0.00    +0.141 C 
ATOM      9  S   UNL     1       3.661  -2.182  -4.241  0.00  0.00    -0.117 S 
ENDROOT
BRANCH   8  10
ATOM     10  C   UNL     1       5.669  -0.408  -4.969  0.00  0.00    +0.233 C 
ATOM     11  O   UNL     1       5.136   0.522  -5.537  0.00  0.00    -0.274 OA
ATOM     12  N   UNL     1       6.846  -0.886  -5.419  0.00  0.00    -0.251 N 
ATOM     13  C   UNL     1       7.447  -0.315  -6.531  0.00  0.00    +0.264 A 
ATOM     14  N   UNL     1       6.986   0.708  -7.247  0.00  0.00    -0.090 NA
ATOM     15  N   UNL     1       7.835   0.934  -8.191  0.00  0.00    -0.020 NA
ATOM     16  N   UNL     1       8.807   0.096  -8.096  0.00  0.00    -0.020 NA
ATOM     17  N   UNL     1       8.601  -0.679  -7.086  0.00  0.00    -0.090 NA
ATOM     18  H   UNL     1       7.272  -1.630  -4.966  0.00  0.00    +0.158 HD
ENDBRANCH   8  10
BRANCH   1  20
ATOM     19  C   UNL     1      -0.019   1.526   0.010  0.00  0.00    +0.011 C 
ATOM     20  C   UNL     1       0.002  -0.004   0.002  0.00  0.00    -0.035 C 
ATOM     21  C   UNL     1       0.742  -0.511   1.242  0.00  0.00    +0.011 C 
ATOM     22  C   UNL     1      -1.433  -0.534   0.013  0.00  0.00    +0.011 C 
ENDBRANCH   1  20
TORSDOF 2
