REMARK  Name = ZINC12402070
REMARK  5 active torsions:
REMARK  status: ('A' for Active; 'I' for Inactive)
REMARK    1  A    between atoms: C_1  and  C_2
REMARK    2  A    between atoms: C_2  and  C_30
REMARK    3  A    between atoms: C_7  and  C_10
REMARK    4  A    between atoms: C_15  and  O_16
REMARK    5  A    between atoms: N_20  and  C_23
REMARK                            x       y       z     vdW  Elec       q    Type
REMARK                         _______ _______ _______ _____ _____    ______ ____
ROOT
ATOM      1  C   UNL     1      -0.088   1.641  -0.352  0.00  0.00    +0.002 C 
ATOM      2  C   UNL     1      -0.177   0.120  -0.206  0.00  0.00    +0.045 C 
ATOM      3  C   UNL     1       0.739  -0.573  -1.237  0.00  0.00    +0.086 C 
ATOM      4  C   UNL     1       2.067  -0.836  -0.477  0.00  0.00    +0.077 C 
ATOM      5  C   UNL     1       1.834  -0.263   0.937  0.00  0.00    -0.023 C 
ATOM      6  N   UNL     1       0.353  -0.305   1.115  0.00  0.00    +0.395 N 
ATOM      7  C   UNL     1       2.139  -2.345  -0.412  0.00  0.00    +0.229 C 
ATOM      8  O   UNL     1       3.030  -2.982   0.107  0.00  0.00    -0.275 OA
ATOM      9  N   UNL     1       1.064  -2.868  -1.014  0.00  0.00    -0.210 N 
ATOM     10  C   UNL     1       0.204  -1.957  -1.526  0.00  0.00    +0.229 C 
ATOM     11  O   UNL     1      -0.827  -2.201  -2.116  0.00  0.00    -0.275 OA
ATOM     12  H   UNL     1       0.070   0.344   1.834  0.00  0.00    -0.083 HD
ATOM     13  H   UNL     1       0.041  -1.238   1.337  0.00  0.00    -0.083 HD
ENDROOT
BRANCH   5  14
ATOM     14  C   UNL     1       2.499  -1.133   1.972  0.00  0.00    -0.018 A 
ATOM     15  C   UNL     1       1.776  -2.120   2.613  0.00  0.00    +0.020 A 
ATOM     16  C   UNL     1       2.386  -2.919   3.563  0.00  0.00    +0.018 A 
ATOM     17  C   UNL     1       3.722  -2.731   3.874  0.00  0.00    +0.019 A 
ATOM     18  C   UNL     1       4.448  -1.745   3.235  0.00  0.00    +0.047 A 
ATOM     19  C   UNL     1       3.839  -0.946   2.278  0.00  0.00    +0.119 A 
ATOM     20 BR   UNL     1       1.394  -4.269   4.440  0.00  0.00    -0.050 Br
BRANCH  19  21
ATOM     21  O   UNL     1       4.553   0.021   1.645  0.00  0.00    -0.507 OA
ATOM     22  H   UNL     1       4.536   0.879   2.091  0.00  0.00    +0.292 HD
ENDBRANCH  19  21
ENDBRANCH   5  14
BRANCH   9  23
ATOM     23  C   UNL     1       0.849  -4.249  -1.116  0.00  0.00    +0.045 A 
ATOM     24  C   UNL     1      -0.210  -4.839  -0.438  0.00  0.00    +0.024 A 
ATOM     25  C   UNL     1      -0.421  -6.200  -0.539  0.00  0.00    +0.003 A 
ATOM     26  C   UNL     1       0.421  -6.976  -1.315  0.00  0.00    +0.020 A 
ATOM     27  C   UNL     1       1.476  -6.391  -1.992  0.00  0.00    +0.043 A 
ATOM     28  C   UNL     1       1.689  -5.028  -1.898  0.00  0.00    +0.044 A 
ATOM     29 CL   UNL     1       2.531  -7.369  -2.965  0.00  0.00    -0.083 Cl
ENDBRANCH   9  23
BRANCH   2  30
ATOM     30  C   UNL     1      -1.602  -0.340  -0.372  0.00  0.00    +0.346 C 
ATOM     31  O   UNL     1      -2.191  -0.132  -1.419  0.00  0.00    -0.248 OA
ATOM     32  O   UNL     1      -2.165  -0.921   0.539  0.00  0.00    -0.248 OA
ENDBRANCH   2  30
TORSDOF 4
