REMARK  Name = ZINC39210616
REMARK  9 active torsions:
REMARK  status: ('A' for Active; 'I' for Inactive)
REMARK    1  A    between atoms: C_1  and  O_2
REMARK    2  A    between atoms: O_2  and  C_3
REMARK    3  A    between atoms: C_6  and  N_9
REMARK    4  A    between atoms: C_10  and  S_15
REMARK    5  A    between atoms: S_15  and  C_16
REMARK    6  A    between atoms: C_16  and  C_17
REMARK    7  A    between atoms: N_19  and  N_20
REMARK    8  A    between atoms: C_21  and  C_22
REMARK    9  A    between atoms: C_27  and  C_28
REMARK                            x       y       z     vdW  Elec       q    Type
REMARK                         _______ _______ _______ _____ _____    ______ ____
ROOT
ATOM      1  C   UNL     1       0.126  -3.851  -5.980  0.00  0.00    +0.169 C 
ENDROOT
BRANCH   1   2
ATOM      2  C   UNL     1      -1.267  -4.402  -6.147  0.00  0.00    +0.242 C 
ATOM      3  O   UNL     1      -1.671  -5.265  -5.397  0.00  0.00    -0.273 OA
ATOM      4  N   UNL     1      -2.062  -3.936  -7.130  0.00  0.00    -0.207 N 
ATOM      5  H   UNL     1      -1.739  -3.246  -7.730  0.00  0.00    +0.177 HD
BRANCH   4   6
ATOM      6  N   UNL     1      -3.357  -4.448  -7.286  0.00  0.00    -0.192 NA
ATOM      7  C   UNL     1      -4.113  -4.005  -8.219  0.00  0.00    +0.118 C 
BRANCH   7   8
ATOM      8  C   UNL     1      -5.505  -4.556  -8.386  0.00  0.00    +0.125 C 
ATOM      9  C   UNL     1      -5.700  -5.102  -9.787  0.00  0.00    +0.123 C 
ATOM     10  N   UNL     1      -6.650  -4.402 -10.316  0.00  0.00    -0.161 NA
ATOM     11  N   UNL     1      -7.143  -3.432  -9.450  0.00  0.00    -0.153 NA
ATOM     12  C   UNL     1      -6.534  -3.447  -8.292  0.00  0.00    +0.084 C 
BRANCH  12  13
ATOM     13  C   UNL     1      -6.791  -2.571  -7.139  0.00  0.00    -0.001 A 
ATOM     14  C   UNL     1      -6.041  -2.714  -5.967  0.00  0.00    +0.012 A 
ATOM     15  C   UNL     1      -6.287  -1.890  -4.890  0.00  0.00    +0.039 A 
ATOM     16  C   UNL     1      -7.276  -0.921  -4.966  0.00  0.00    +0.123 A 
ATOM     17  C   UNL     1      -8.023  -0.773  -6.125  0.00  0.00    +0.039 A 
ATOM     18  C   UNL     1      -7.783  -1.587  -7.211  0.00  0.00    +0.012 A 
ATOM     19  F   UNL     1      -7.512  -0.117  -3.907  0.00  0.00    -0.205 F 
ENDBRANCH  12  13
ENDBRANCH   7   8
ENDBRANCH   4   6
ENDBRANCH   1   2
BRANCH   1  20
ATOM     20  S   UNL     1       0.938  -4.674  -4.583  0.00  0.00    -0.114 S 
BRANCH  20  22
ATOM     21  N   UNL     1       2.458  -2.457  -4.301  0.00  0.00    -0.254 N 
ATOM     22  C   UNL     1       2.581  -3.909  -4.517  0.00  0.00    +0.203 C 
ATOM     23  N   UNL     1       3.273  -4.064  -5.820  0.00  0.00    -0.320 NA
ATOM     24  N   UNL     1       3.016  -2.771  -6.479  0.00  0.00    +0.411 N 
ATOM     25  N   UNL     1       3.055  -1.821  -5.363  0.00  0.00    -0.265 NA
ATOM     26  H   UNL     1       4.263  -4.212  -5.689  0.00  0.00    +0.106 HD
ATOM     27  H   UNL     1       3.737  -2.564  -7.153  0.00  0.00    -0.031 HD
ATOM     28  H   UNL     1       4.006  -1.565  -5.142  0.00  0.00    +0.125 HD
ATOM     29  H   UNL     1       2.106  -2.767  -6.915  0.00  0.00    -0.031 HD
BRANCH  21  33
ATOM     30  C   UNL     1       0.606  -0.608  -1.056  0.00  0.00    +0.120 A 
ATOM     31  C   UNL     1       1.173   0.162  -2.062  0.00  0.00    +0.047 A 
ATOM     32  C   UNL     1       1.786  -0.451  -3.137  0.00  0.00    +0.028 A 
ATOM     33  C   UNL     1       1.836  -1.836  -3.212  0.00  0.00    +0.045 A 
ATOM     34  C   UNL     1       1.269  -2.605  -2.204  0.00  0.00    +0.028 A 
ATOM     35  C   UNL     1       0.660  -1.992  -1.127  0.00  0.00    +0.047 A 
BRANCH  30  37
ATOM     36  C   UNL     1      -0.017   1.425   0.010  0.00  0.00    +0.277 C 
ATOM     37  O   UNL     1       0.002  -0.004   0.002  0.00  0.00    -0.495 OA
ENDBRANCH  30  37
ENDBRANCH  21  33
ENDBRANCH  20  22
ENDBRANCH   1  20
TORSDOF 8
