REMARK  Name = ZINC61691712
REMARK  7 active torsions:
REMARK  status: ('A' for Active; 'I' for Inactive)
REMARK    1  A    between atoms: C_1  and  C_2
REMARK    2  A    between atoms: C_5  and  C_7
REMARK    3  A    between atoms: N_9  and  C_10
REMARK    4  A    between atoms: C_12  and  C_17
REMARK    5  A    between atoms: C_18  and  C_19
REMARK    6  A    between atoms: C_19  and  C_20
REMARK    7  A    between atoms: C_20  and  O_21
REMARK                            x       y       z     vdW  Elec       q    Type
REMARK                         _______ _______ _______ _____ _____    ______ ____
ROOT
ATOM      1  C   UNL     1       3.818  -4.139   0.051  0.00  0.00    +0.053 A 
ATOM      2  C   UNL     1       3.267  -5.411   0.033  0.00  0.00    +0.041 A 
ATOM      3  C   UNL     1       4.099  -6.527   0.115  0.00  0.00    +0.027 A 
ATOM      4  C   UNL     1       5.481  -6.357   0.214  0.00  0.00    +0.018 A 
ATOM      5  C   UNL     1       6.021  -5.088   0.232  0.00  0.00    +0.023 A 
ATOM      6  C   UNL     1       5.197  -3.980   0.145  0.00  0.00    +0.062 A 
ATOM      7 CL   UNL     1       5.885  -2.386   0.161  0.00  0.00    -0.082 Cl
ENDROOT
BRANCH   1  10
ATOM      8  C   UNL     1       1.776  -3.114  -0.611  0.00  0.00    +0.284 C 
ATOM      9  O   UNL     1       1.443  -4.152  -1.153  0.00  0.00    -0.266 OA
ATOM     10  N   UNL     1       2.989  -3.015  -0.030  0.00  0.00    -0.278 N 
ATOM     11  H   UNL     1       3.286  -2.166   0.331  0.00  0.00    +0.155 HD
BRANCH   8  16
ATOM     12  C   UNL     1      -0.083   1.448   0.283  0.00  0.00    +0.086 C 
ATOM     13  C   UNL     1       0.037   0.026  -0.201  0.00  0.00    +0.103 A 
ATOM     14  C   UNL     1      -0.909  -0.656  -0.883  0.00  0.00    +0.045 A 
ATOM     15  C   UNL     1      -0.393  -1.937  -1.137  0.00  0.00    +0.055 A 
ATOM     16  C   UNL     1       0.858  -1.971  -0.590  0.00  0.00    +0.190 A 
ATOM     17  O   UNL     1       1.103  -0.768  -0.030  0.00  0.00    -0.455 OA
ENDBRANCH   8  16
ENDBRANCH   1  10
BRANCH   3  18
ATOM     18  C   UNL     1       3.536  -7.844   0.097  0.00  0.00    -0.066 C 
ATOM     19  C   UNL     1       3.075  -8.923   0.083  0.00  0.00    -0.095 C 
BRANCH  19  20
ATOM     20  C   UNL     1       2.497 -10.277   0.065  0.00  0.00    +0.117 C 
BRANCH  20  21
ATOM     21  C   UNL     1       3.619 -11.312   0.166  0.00  0.00    +0.168 C 
BRANCH  21  22
ATOM     22  O   UNL     1       3.058 -12.626   0.148  0.00  0.00    -0.394 OA
ATOM     23  H   UNL     1       3.713 -13.335   0.209  0.00  0.00    +0.209 HD
ENDBRANCH  21  22
ENDBRANCH  20  21
ENDBRANCH  19  20
ENDBRANCH   3  18
TORSDOF 6
