REMARK  Name = ZINC63933777
REMARK  6 active torsions:
REMARK  status: ('A' for Active; 'I' for Inactive)
REMARK    1  A    between atoms: C_1  and  C_2
REMARK    2  A    between atoms: C_2  and  C_3
REMARK    3  A    between atoms: C_3  and  C_5
REMARK    4  A    between atoms: C_3  and  N_6
REMARK    5  A    between atoms: C_7  and  O_30
REMARK    6  A    between atoms: C_9  and  C_15
REMARK                            x       y       z     vdW  Elec       q    Type
REMARK                         _______ _______ _______ _____ _____    ______ ____
ROOT
ATOM      1  N   UNL     1      -2.082  -0.162   1.273  0.00  0.00    -0.253 N 
ATOM      2  C   UNL     1      -3.297   0.669   1.278  0.00  0.00    +0.240 C 
ATOM      3  C   UNL     1      -3.899   1.004   2.627  0.00  0.00    +0.058 C 
ATOM      4  C   UNL     1      -3.298   0.531   3.714  0.00  0.00    +0.249 C 
ATOM      5  N   UNL     1      -2.155  -0.246   3.620  0.00  0.00    -0.236 N 
ATOM      6  C   UNL     1      -1.583  -0.577   2.454  0.00  0.00    +0.311 C 
ATOM      7  O   UNL     1      -0.582  -1.268   2.463  0.00  0.00    -0.252 OA
ATOM      8  O   UNL     1      -3.813   0.814   4.937  0.00  0.00    -0.270 OA
ATOM      9  H   UNL     1      -1.750  -0.570   4.439  0.00  0.00    +0.159 HD
ENDROOT
BRANCH   3  10
ATOM     10  C   UNL     1      -5.143   1.849   2.733  0.00  0.00    +0.116 C 
ATOM     11  C   UNL     1      -6.321   1.116   2.089  0.00  0.00    +0.128 C 
ATOM     12  C   UNL     1      -7.485   2.100   2.085  0.00  0.00    -0.035 C 
ATOM     13  C   UNL     1      -8.497   1.487   2.683  0.00  0.00    -0.001 A 
ATOM     14  C   UNL     1      -9.896   1.887   2.903  0.00  0.00    +0.010 A 
ATOM     15  C   UNL     1     -10.674   1.002   3.579  0.00  0.00    +0.001 A 
ATOM     16  C   UNL     1     -10.207  -0.228   4.053  0.00  0.00    +0.002 A 
ATOM     17  C   UNL     1      -8.938  -0.680   3.891  0.00  0.00    +0.026 A 
ATOM     18  C   UNL     1      -8.026   0.161   3.189  0.00  0.00    +0.043 A 
ATOM     19  N   UNL     1      -6.761  -0.038   2.871  0.00  0.00    -0.376 N 
ATOM     20  C   UNL     1      -7.331   3.507   1.559  0.00  0.00    +0.048 C 
ATOM     21  C   UNL     1      -6.046   4.066   2.197  0.00  0.00    +0.086 C 
ATOM     22  N   UNL     1      -4.941   3.120   2.019  0.00  0.00    -0.307 NA
ATOM     23  H   UNL     1      -4.060   3.541   2.272  0.00  0.00    +0.123 HD
ATOM     24  H   UNL     1      -6.215  -0.803   3.111  0.00  0.00    +0.160 HD
ENDBRANCH   3  10
BRANCH   1  25
ATOM     25  C   UNL     1      -1.433  -0.534   0.013  0.00  0.00    +0.077 C 
ATOM     26  C   UNL     1      -1.416  -2.058  -0.121  0.00  0.00    +0.028 C 
BRANCH  25  28
ATOM     27  C   UNL     1      -0.019   1.526   0.010  0.00  0.00    +0.006 C 
ATOM     28  C   UNL     1       0.002  -0.004   0.002  0.00  0.00    +0.019 C 
ENDBRANCH  25  28
ENDBRANCH   1  25
BRANCH   2  29
ATOM     29  O   UNL     1      -4.293  -0.005   0.508  0.00  0.00    -0.370 OA
ATOM     30  H   UNL     1      -4.041  -0.160  -0.413  0.00  0.00    +0.212 HD
ENDBRANCH   2  29
TORSDOF 4
