REMARK  Name = ZINC66598371
REMARK  12 active torsions:
REMARK  status: ('A' for Active; 'I' for Inactive)
REMARK    1  A    between atoms: C_1  and  C_2
REMARK    2  A    between atoms: C_2  and  C_3
REMARK    3  A    between atoms: C_3  and  C_4
REMARK    4  A    between atoms: C_4  and  N_5
REMARK    5  A    between atoms: C_10  and  C_12
REMARK    6  A    between atoms: C_12  and  N_13
REMARK    7  A    between atoms: N_16  and  C_17
REMARK    8  A    between atoms: C_17  and  C_18
REMARK    9  A    between atoms: N_20  and  C_21
REMARK   10  A    between atoms: C_21  and  C_22
REMARK   11  A    between atoms: C_22  and  C_23
REMARK   12  A    between atoms: C_22  and  C_24
REMARK                            x       y       z     vdW  Elec       q    Type
REMARK                         _______ _______ _______ _____ _____    ______ ____
ROOT
ATOM      1  N   UNL     1      -0.791  -3.765  -1.635  0.00  0.00    -0.301 N 
ATOM      2  C   UNL     1      -2.088  -4.082  -1.454  0.00  0.00    +0.300 C 
ATOM      3  O   UNL     1      -2.614  -4.919  -2.162  0.00  0.00    -0.253 OA
ATOM      4  N   UNL     1      -2.803  -3.470  -0.490  0.00  0.00    -0.291 N 
ATOM      5  H   UNL     1      -0.372  -3.096  -1.071  0.00  0.00    +0.150 HD
ATOM      6  H   UNL     1      -2.384  -2.801   0.075  0.00  0.00    +0.151 HD
ENDROOT
BRANCH   1   7
ATOM      7  C   UNL     1      -0.014  -4.429  -2.684  0.00  0.00    +0.090 C 
BRANCH   7  13
ATOM      8  N   UNL     1       1.951  -4.228  -1.238  0.00  0.00    +0.383 N 
ATOM      9  C   UNL     1       3.374  -3.875  -1.164  0.00  0.00    -0.078 C 
ATOM     10  C   UNL     1       3.547  -2.379  -1.434  0.00  0.00    -0.019 C 
ATOM     11  C   UNL     1       3.010  -2.052  -2.831  0.00  0.00    -0.003 C 
ATOM     12  C   UNL     1       1.546  -2.493  -2.920  0.00  0.00    -0.014 C 
ATOM     13  C   UNL     1       1.448  -3.985  -2.595  0.00  0.00    -0.051 C 
ATOM     14  H   UNL     1       1.432  -3.664  -0.582  0.00  0.00    -0.081 HD
BRANCH   8  15
ATOM     15  C   UNL     1       1.782  -5.648  -0.903  0.00  0.00    -0.078 C 
BRANCH  15  16
ATOM     16  C   UNL     1       2.180  -5.878   0.557  0.00  0.00    -0.019 C 
BRANCH  16  18
ATOM     17  C   UNL     1       2.401  -7.587   2.366  0.00  0.00    +0.004 C 
ATOM     18  C   UNL     1       2.004  -7.357   0.907  0.00  0.00    -0.005 C 
ENDBRANCH  16  18
ENDBRANCH  15  16
ENDBRANCH   8  15
ENDBRANCH   7  13
ENDBRANCH   1   7
BRANCH   4  19
ATOM     19  C   UNL     1      -4.214  -3.814  -0.293  0.00  0.00    +0.201 C 
BRANCH  19  20
ATOM     20  C   UNL     1      -4.778  -2.995   0.839  0.00  0.00    +0.230 C 
ATOM     21  O   UNL     1      -4.072  -2.201   1.424  0.00  0.00    -0.274 OA
ATOM     22  N   UNL     1      -6.068  -3.144   1.201  0.00  0.00    -0.314 N 
ATOM     23  H   UNL     1      -6.633  -3.779   0.733  0.00  0.00    +0.149 HD
BRANCH  22  24
ATOM     24  C   UNL     1      -6.616  -2.347   2.301  0.00  0.00    +0.107 C 
BRANCH  24  25
ATOM     25  C   UNL     1      -8.089  -2.707   2.506  0.00  0.00    -0.000 C 
ATOM     26  C   UNL     1      -8.629  -1.968   3.733  0.00  0.00    +0.009 C 
ATOM     27  C   UNL     1      -8.892  -2.296   1.270  0.00  0.00    +0.009 C 
ENDBRANCH  24  25
ENDBRANCH  22  24
ENDBRANCH  19  20
ENDBRANCH   4  19
TORSDOF 9
