REMARK  Name = ZINC13636149
REMARK  7 active torsions:
REMARK  status: ('A' for Active; 'I' for Inactive)
REMARK    1  A    between atoms: C_1  and  C_2
REMARK    2  A    between atoms: C_2  and  C_3
REMARK    3  A    between atoms: C_2  and  O_4
REMARK    4  A    between atoms: O_4  and  C_5
REMARK    5  A    between atoms: C_12  and  C_21
REMARK    6  A    between atoms: C_24  and  O_27
REMARK    7  A    between atoms: O_27  and  C_28
REMARK                            x       y       z     vdW  Elec       q    Type
REMARK                         _______ _______ _______ _____ _____    ______ ____
ROOT
ATOM      1  C   UNL     1      -0.003  -0.023   0.220  0.00  0.00    +0.142 A 
ATOM      2  C   UNL     1       1.168  -0.730   0.406  0.00  0.00    +0.047 A 
ATOM      3  C   UNL     1       2.361  -0.060   0.608  0.00  0.00    +0.004 A 
ATOM      4  C   UNL     1       2.375   1.322   0.628  0.00  0.00    +0.006 A 
ATOM      5  C   UNL     1       1.208   2.037   0.450  0.00  0.00    -0.016 A 
ATOM      6  C   UNL     1      -0.002   1.377   0.232  0.00  0.00    +0.074 A 
ATOM      7  N   UNL     1      -1.217   2.026   0.002  0.00  0.00    -0.334 N 
ATOM      8  C   UNL     1      -1.215   3.494   0.116  0.00  0.00    +0.105 C 
ATOM      9  C   UNL     1       0.082   3.986  -0.493  0.00  0.00    +0.029 C 
ATOM     10  C   UNL     1       1.188   3.516   0.503  0.00  0.00    +0.049 C 
ATOM     11  C   UNL     1       2.357   4.345   0.120  0.00  0.00    -0.023 C 
ATOM     12  C   UNL     1       1.915   5.487  -0.395  0.00  0.00    -0.030 C 
ATOM     13  C   UNL     1       0.384   5.487  -0.426  0.00  0.00    +0.033 C 
ATOM     14  H   UNL     1      -1.624   1.732  -0.874  0.00  0.00    +0.147 HD
ENDROOT
BRANCH   8  15
ATOM     15  C   UNL     1      -2.386   4.069  -0.637  0.00  0.00    -0.027 A 
ATOM     16  C   UNL     1      -2.778   3.508  -1.839  0.00  0.00    +0.009 A 
ATOM     17  C   UNL     1      -3.855   4.030  -2.528  0.00  0.00    +0.046 A 
ATOM     18  C   UNL     1      -4.537   5.126  -2.019  0.00  0.00    +0.120 A 
ATOM     19  C   UNL     1      -4.139   5.691  -0.816  0.00  0.00    +0.046 A 
ATOM     20  C   UNL     1      -3.065   5.161  -0.128  0.00  0.00    +0.009 A 
BRANCH  18  21
ATOM     21  O   UNL     1      -5.593   5.646  -2.699  0.00  0.00    -0.495 OA
ATOM     22  C   UNL     1      -5.947   5.013  -3.930  0.00  0.00    +0.277 C 
ENDBRANCH  18  21
ENDBRANCH   8  15
BRANCH   1  23
ATOM     23  O   UNL     1      -1.170  -0.693   0.024  0.00  0.00    -0.488 OA
BRANCH  23  25
ATOM     24  C   UNL     1      -1.092  -2.745   1.298  0.00  0.00    +0.051 C 
ATOM     25  C   UNL     1      -1.090  -2.115  -0.096  0.00  0.00    +0.167 C 
ATOM     26  C   UNL     1      -2.292  -2.629  -0.890  0.00  0.00    +0.051 C 
ENDBRANCH  23  25
ENDBRANCH   1  23
TORSDOF 4
