REMARK  Name = ZINC15969404
REMARK  4 active torsions:
REMARK  status: ('A' for Active; 'I' for Inactive)
REMARK    1  A    between atoms: C_6  and  C_7
REMARK    2  A    between atoms: C_7  and  N_8
REMARK    3  A    between atoms: C_13  and  C_31
REMARK    4  A    between atoms: C_31  and  C_32
REMARK                            x       y       z     vdW  Elec       q    Type
REMARK                         _______ _______ _______ _____ _____    ______ ____
ROOT
ATOM      1  N   UNL     1      -0.904  -1.408  -1.776  0.00  0.00    -0.237 N 
ATOM      2  C   UNL     1      -2.055  -0.898  -2.228  0.00  0.00    +0.227 C 
ATOM      3  O   UNL     1      -2.880  -0.322  -1.552  0.00  0.00    -0.275 OA
ATOM      4  C   UNL     1      -2.167  -1.150  -3.714  0.00  0.00    +0.107 C 
ATOM      5  C   UNL     1      -2.079   0.194  -4.468  0.00  0.00    +0.076 C 
ATOM      6  N   UNL     1      -0.624   0.426  -4.667  0.00  0.00    -0.295 NA
ATOM      7  C   UNL     1      -0.084  -0.912  -4.967  0.00  0.00    +0.136 C 
ATOM      8  C   UNL     1      -0.848  -1.901  -4.051  0.00  0.00    +0.122 C 
ATOM      9  C   UNL     1      -0.148  -1.992  -2.713  0.00  0.00    +0.229 C 
ATOM     10  O   UNL     1       0.928  -2.514  -2.520  0.00  0.00    -0.275 OA
ATOM     11  C   UNL     1       1.399  -0.976  -4.732  0.00  0.00    +0.005 A 
ATOM     12  C   UNL     1       2.194  -0.763  -3.628  0.00  0.00    +0.027 A 
ATOM     13  C   UNL     1       3.568  -0.904  -3.726  0.00  0.00    +0.041 A 
ATOM     14  C   UNL     1       4.139  -1.259  -4.936  0.00  0.00    +0.022 A 
ATOM     15  C   UNL     1       3.345  -1.472  -6.044  0.00  0.00    +0.025 A 
ATOM     16  C   UNL     1       1.962  -1.333  -5.954  0.00  0.00    +0.039 A 
ATOM     17  N   UNL     1       0.964  -1.494  -6.918  0.00  0.00    -0.283 N 
ATOM     18  C   UNL     1      -0.266  -1.266  -6.418  0.00  0.00    +0.243 C 
ATOM     19  O   UNL     1      -1.316  -1.332  -7.021  0.00  0.00    -0.273 OA
ATOM     20 CL   UNL     1       4.572  -0.636  -2.335  0.00  0.00    -0.084 Cl
ATOM     21  H   UNL     1      -0.461   1.062  -5.434  0.00  0.00    +0.124 HD
ATOM     22  H   UNL     1       1.136  -1.742  -7.840  0.00  0.00    +0.155 HD
ENDROOT
BRANCH   1  23
ATOM     23  C   UNL     1      -0.501  -1.329  -0.370  0.00  0.00    +0.151 C 
BRANCH  23  29
ATOM     24  C   UNL     1      -0.378   1.099   0.222  0.00  0.00    +0.009 A 
ATOM     25  C   UNL     1       0.335   2.265   0.432  0.00  0.00    +0.050 A 
ATOM     26  C   UNL     1       1.711   2.273   0.279  0.00  0.00    +0.166 A 
ATOM     27  C   UNL     1       2.375   1.104  -0.087  0.00  0.00    +0.167 A 
ATOM     28  C   UNL     1       1.655  -0.060  -0.296  0.00  0.00    +0.054 A 
ATOM     29  C   UNL     1       0.281  -0.061  -0.141  0.00  0.00    -0.026 A 
ATOM     30  O   UNL     1       3.711   1.370  -0.172  0.00  0.00    -0.453 OA
ATOM     31  C   UNL     1       3.814   2.804  -0.254  0.00  0.00    +0.466 C 
ATOM     32  O   UNL     1       2.632   3.271   0.423  0.00  0.00    -0.453 OA
ENDBRANCH  23  29
ENDBRANCH   1  23
BRANCH   5  33
ATOM     33  C   UNL     1      -2.795   0.095  -5.816  0.00  0.00    +0.115 C 
BRANCH  33  34
ATOM     34  C   UNL     1      -4.227   0.536  -5.659  0.00  0.00    +0.212 C 
ATOM     35  O   UNL     1      -4.636   0.893  -4.574  0.00  0.00    -0.276 OA
ATOM     36  N   UNL     1      -5.054   0.532  -6.723  0.00  0.00    -0.329 N 
ATOM     37  H   UNL     1      -4.728   0.247  -7.590  0.00  0.00    +0.145 HD
ATOM     38  H   UNL     1      -5.977   0.816  -6.621  0.00  0.00    +0.145 HD
ENDBRANCH  33  34
ENDBRANCH   5  33
TORSDOF 4
