REMARK  Name = ZINC36365135
REMARK  4 active torsions:
REMARK  status: ('A' for Active; 'I' for Inactive)
REMARK    1  A    between atoms: C_1  and  O_2
REMARK    2  A    between atoms: O_2  and  C_3
REMARK    3  A    between atoms: C_6  and  C_9
REMARK    4  A    between atoms: C_13  and  C_14
REMARK                            x       y       z     vdW  Elec       q    Type
REMARK                         _______ _______ _______ _____ _____    ______ ____
ROOT
ATOM      1  C   UNL     1       2.578  -2.539   4.291  0.00  0.00    +0.025 A 
ATOM      2  C   UNL     1       3.736  -3.294   4.115  0.00  0.00    +0.054 A 
ATOM      3  C   UNL     1       4.279  -3.865   5.237  0.00  0.00    +0.032 A 
ATOM      4  S   UNL     1       3.289  -3.427   6.502  0.00  0.00    -0.083 S 
ATOM      5  C   UNL     1       2.099  -2.447   5.605  0.00  0.00    +0.110 A 
ATOM      6  C   UNL     1       5.520  -4.699   5.246  0.00  0.00    +0.115 C 
ATOM      7  C   UNL     1       6.425  -4.265   4.093  0.00  0.00    +0.122 C 
ATOM      8  C   UNL     1       5.622  -4.021   2.848  0.00  0.00    +0.219 C 
ATOM      9  O   UNL     1       6.119  -4.299   1.776  0.00  0.00    -0.275 OA
ATOM     10  N   UNL     1       4.379  -3.510   2.863  0.00  0.00    -0.284 N 
ATOM     11  C   UNL     1       5.204  -6.159   5.158  0.00  0.00    -0.006 A 
ATOM     12  C   UNL     1       4.553  -6.897   4.193  0.00  0.00    +0.009 A 
ATOM     13  C   UNL     1       4.425  -8.262   4.421  0.00  0.00    +0.039 A 
ATOM     14  C   UNL     1       4.929  -8.851   5.566  0.00  0.00    +0.125 A 
ATOM     15  C   UNL     1       5.586  -8.113   6.541  0.00  0.00    +0.062 A 
ATOM     16  C   UNL     1       5.720  -6.742   6.323  0.00  0.00    +0.041 A 
ATOM     17  N   UNL     1       6.321  -5.781   7.116  0.00  0.00    -0.284 N 
ATOM     18  C   UNL     1       6.251  -4.552   6.563  0.00  0.00    +0.233 C 
ATOM     19  O   UNL     1       6.692  -3.524   7.032  0.00  0.00    -0.274 OA
ATOM     20  F   UNL     1       4.778 -10.182   5.740  0.00  0.00    -0.205 F 
ATOM     21  H   UNL     1       3.926  -3.292   2.033  0.00  0.00    +0.155 HD
ATOM     22  H   UNL     1       6.742  -5.968   7.969  0.00  0.00    +0.155 HD
ENDROOT
BRANCH   1  26
ATOM     23  C   UNL     1       0.626  -0.618   1.041  0.00  0.00    +0.120 A 
ATOM     24  C   UNL     1       1.202   0.142   2.050  0.00  0.00    +0.046 A 
ATOM     25  C   UNL     1       1.836  -0.477   3.106  0.00  0.00    +0.012 A 
ATOM     26  C   UNL     1       1.898  -1.871   3.160  0.00  0.00    -0.015 A 
ATOM     27  C   UNL     1       1.317  -2.631   2.144  0.00  0.00    +0.012 A 
ATOM     28  C   UNL     1       0.680  -2.005   1.094  0.00  0.00    +0.046 A 
BRANCH  23  30
ATOM     29  C   UNL     1      -0.017   1.425   0.010  0.00  0.00    +0.277 C 
ATOM     30  O   UNL     1       0.002  -0.004   0.002  0.00  0.00    -0.495 OA
ENDBRANCH  23  30
ENDBRANCH   1  26
BRANCH   5  31
ATOM     31  C   UNL     1       0.967  -1.758   6.092  0.00  0.00    +0.394 C 
ATOM     32  O   UNL     1       0.252  -1.130   5.319  0.00  0.00    -0.240 OA
ATOM     33  O   UNL     1       0.698  -1.788   7.288  0.00  0.00    -0.240 OA
ENDBRANCH   5  31
TORSDOF 3
