REMARK  Name = ZINC08856557
REMARK  7 active torsions:
REMARK  status: ('A' for Active; 'I' for Inactive)
REMARK    1  A    between atoms: C_1  and  C_2
REMARK    2  A    between atoms: C_2  and  C_4
REMARK    3  A    between atoms: C_2  and  N_12
REMARK    4  A    between atoms: C_4  and  C_5
REMARK    5  A    between atoms: C_5  and  C_6
REMARK    6  A    between atoms: C_13  and  C_15
REMARK    7  A    between atoms: C_15  and  N_16
REMARK                            x       y       z     vdW  Elec       q    Type
REMARK                         _______ _______ _______ _____ _____    ______ ____
ROOT
ATOM      1  N   UNL     1      -0.238  -1.141  -4.714  0.00  0.00    -0.290 N 
ATOM      2  C   UNL     1       0.170  -1.560  -5.928  0.00  0.00    +0.307 C 
ATOM      3  O   UNL     1       1.345  -1.804  -6.124  0.00  0.00    -0.252 OA
ATOM      4  N   UNL     1      -0.724  -1.708  -6.926  0.00  0.00    -0.245 N 
ATOM      5  C   UNL     1      -2.131  -1.321  -6.747  0.00  0.00    +0.211 C 
ATOM      6  C   UNL     1      -3.013  -2.373  -7.369  0.00  0.00    +0.235 C 
ATOM      7  O   UNL     1      -4.124  -2.564  -6.922  0.00  0.00    -0.274 OA
ATOM      8  N   UNL     1      -2.583  -3.103  -8.416  0.00  0.00    -0.283 N 
ATOM      9  C   UNL     1      -1.288  -2.938  -8.919  0.00  0.00    +0.055 A 
ATOM     10  C   UNL     1      -0.340  -2.231  -8.171  0.00  0.00    +0.059 A 
ATOM     11  C   UNL     1       0.944  -2.059  -8.653  0.00  0.00    +0.025 A 
ATOM     12  C   UNL     1       1.291  -2.583  -9.886  0.00  0.00    +0.002 A 
ATOM     13  C   UNL     1       0.357  -3.276 -10.634  0.00  0.00    +0.002 A 
ATOM     14  C   UNL     1      -0.933  -3.463 -10.151  0.00  0.00    +0.025 A 
ATOM     15  H   UNL     1      -1.161  -0.875  -4.577  0.00  0.00    +0.151 HD
ATOM     16  H   UNL     1      -3.177  -3.751  -8.825  0.00  0.00    +0.155 HD
ENDROOT
BRANCH   1  17
ATOM     17  C   UNL     1       0.712  -1.087  -3.600  0.00  0.00    +0.201 C 
BRANCH  17  19
ATOM     18  N   UNL     1       0.689  -0.456  -1.208  0.00  0.00    -0.311 N 
ATOM     19  C   UNL     1       0.009  -0.588  -2.364  0.00  0.00    +0.230 C 
ATOM     20  O   UNL     1      -1.170  -0.307  -2.409  0.00  0.00    -0.274 OA
ATOM     21  H   UNL     1       1.632  -0.682  -1.172  0.00  0.00    +0.149 HD
BRANCH  18  23
ATOM     22  C   UNL     1      -0.003   1.558  -0.006  0.00  0.00    +0.028 C 
ATOM     23  C   UNL     1       0.006   0.028  -0.006  0.00  0.00    +0.070 C 
BRANCH  23  24
ATOM     24  C   UNL     1       0.740  -0.478   1.237  0.00  0.00    +0.026 C 
BRANCH  24  25
ATOM     25  C   UNL     1       0.641  -2.004   1.302  0.00  0.00    +0.037 C 
BRANCH  25  26
ATOM     26  C   UNL     1       1.364  -2.503   2.526  0.00  0.00    -0.047 A 
ATOM     27  C   UNL     1       2.708  -2.818   2.455  0.00  0.00    +0.003 A 
ATOM     28  C   UNL     1       3.371  -3.276   3.578  0.00  0.00    +0.000 A 
ATOM     29  C   UNL     1       2.691  -3.417   4.773  0.00  0.00    +0.000 A 
ATOM     30  C   UNL     1       1.347  -3.100   4.845  0.00  0.00    +0.000 A 
ATOM     31  C   UNL     1       0.685  -2.639   3.723  0.00  0.00    +0.003 A 
ENDBRANCH  25  26
ENDBRANCH  24  25
ENDBRANCH  23  24
ENDBRANCH  18  23
ENDBRANCH  17  19
ENDBRANCH   1  17
TORSDOF 6
