REMARK  Name = ZINC39894530
REMARK  9 active torsions:
REMARK  status: ('A' for Active; 'I' for Inactive)
REMARK    1  A    between atoms: C_1  and  C_2
REMARK    2  A    between atoms: C_2  and  C_3
REMARK    3  A    between atoms: C_3  and  C_4
REMARK    4  A    between atoms: C_4  and  N_5
REMARK    5  A    between atoms: C_8  and  C_9
REMARK    6  A    between atoms: N_10  and  C_11
REMARK    7  A    between atoms: C_14  and  N_18
REMARK    8  A    between atoms: C_22  and  C_28
REMARK    9  A    between atoms: C_23  and  C_26
REMARK                            x       y       z     vdW  Elec       q    Type
REMARK                         _______ _______ _______ _____ _____    ______ ____
ROOT
ATOM      1  N   UNL     1      -2.787  -2.571   0.015  0.00  0.00    -0.274 N 
ATOM      2  C   UNL     1      -3.402  -2.802   1.200  0.00  0.00    +0.263 A 
ATOM      3  O   UNL     1      -2.744  -2.564   2.351  0.00  0.00    -0.267 OA
ATOM      4  C   UNL     1      -4.714  -3.286   1.240  0.00  0.00    +0.062 A 
ATOM      5  C   UNL     1      -5.398  -3.533   0.037  0.00  0.00    -0.014 A 
ATOM      6  C   UNL     1      -4.747  -3.288  -1.168  0.00  0.00    +0.120 A 
ATOM      7  C   UNL     1      -3.418  -2.793  -1.152  0.00  0.00    +0.272 A 
ATOM      8  O   UNL     1      -2.842  -2.572  -2.203  0.00  0.00    -0.266 OA
ATOM      9  C   UNL     1      -6.811  -4.054   0.052  0.00  0.00    +0.046 C 
ENDROOT
BRANCH   4  10
ATOM     10  C   UNL     1      -5.372  -3.533   2.528  0.00  0.00    +0.125 C 
ATOM     11  N   UNL     1      -4.733  -3.301   3.643  0.00  0.00    -0.253 NA
BRANCH  11  12
ATOM     12  C   UNL     1      -5.347  -3.532   4.844  0.00  0.00    +0.092 A 
ATOM     13  C   UNL     1      -6.084  -2.518   5.462  0.00  0.00    +0.046 A 
ATOM     14  C   UNL     1      -6.700  -2.758   6.674  0.00  0.00    +0.050 A 
ATOM     15  C   UNL     1      -6.589  -3.998   7.277  0.00  0.00    +0.128 A 
ATOM     16  C   UNL     1      -5.860  -5.007   6.671  0.00  0.00    +0.050 A 
ATOM     17  C   UNL     1      -5.244  -4.784   5.457  0.00  0.00    +0.046 A 
ATOM     18 BR   UNL     1      -4.255  -6.166   4.627  0.00  0.00    -0.048 Br
ATOM     19 BR   UNL     1      -6.237  -0.822   4.640  0.00  0.00    -0.048 Br
BRANCH  15  20
ATOM     20  N   UNL     1      -7.253  -4.248   8.576  0.00  0.00    +0.056 N 
ATOM     21  O   UNL     1      -7.890  -3.369   9.108  0.00  0.00    -0.126 OA
ATOM     22  O   UNL     1      -7.158  -5.330   9.106  0.00  0.00    -0.126 OA
ENDBRANCH  15  20
ENDBRANCH  11  12
ENDBRANCH   4  10
BRANCH   6  23
ATOM     23  C   UNL     1      -5.414  -3.529  -2.412  0.00  0.00    +0.105 C 
ATOM     24  N   UNL     1      -5.943  -3.720  -3.399  0.00  0.00    -0.191 NA
ENDBRANCH   6  23
BRANCH   1  25
ATOM     25  C   UNL     1      -1.413  -2.063   0.004  0.00  0.00    +0.128 C 
BRANCH  25  26
ATOM     26  C   UNL     1      -1.433  -0.534   0.013  0.00  0.00    +0.021 C 
BRANCH  26  28
ATOM     27  C   UNL     1      -0.019   1.526   0.010  0.00  0.00    +0.004 C 
ATOM     28  C   UNL     1       0.002  -0.004   0.002  0.00  0.00    -0.002 C 
ENDBRANCH  26  28
ENDBRANCH  25  26
ENDBRANCH   1  25
TORSDOF 7
