REMARK  Name = ZINC03176803
REMARK  3 active torsions:
REMARK  status: ('A' for Active; 'I' for Inactive)
REMARK    1  A    between atoms: C_2  and  N_16
REMARK    2  A    between atoms: C_6  and  S_7
REMARK    3  A    between atoms: S_7  and  C_10
REMARK                            x       y       z     vdW  Elec       q    Type
REMARK                         _______ _______ _______ _____ _____    ______ ____
ROOT
ATOM      1  C   UNL     1       0.744   2.192   3.695  0.00  0.00    +0.053 A 
ATOM      2  C   UNL     1       1.487   1.683   4.751  0.00  0.00    +0.045 A 
ATOM      3  C   UNL     1       1.558   0.309   4.948  0.00  0.00    +0.063 A 
ATOM      4  C   UNL     1       0.889  -0.546   4.092  0.00  0.00    +0.043 A 
ATOM      5  C   UNL     1       0.145  -0.034   3.044  0.00  0.00    +0.068 A 
ATOM      6  C   UNL     1       0.077   1.333   2.843  0.00  0.00    +0.118 A 
ATOM      7 CL   UNL     1      -0.700  -1.110   1.975  0.00  0.00    -0.082 Cl
ATOM      8 CL   UNL     1       2.487  -0.333   6.267  0.00  0.00    -0.082 Cl
ENDROOT
BRANCH   6   9
ATOM      9  S   UNL     1      -0.866   1.980   1.502  0.00  0.00    +0.092 S 
ATOM     10  O   UNL     1      -0.739   3.390   1.616  0.00  0.00    -0.161 OA
ATOM     11  O   UNL     1      -2.137   1.355   1.619  0.00  0.00    -0.161 OA
BRANCH   9  12
ATOM     12  C   UNL     1      -0.017   1.395   0.010  0.00  0.00    +0.526 C 
ATOM     13  F   UNL     1       0.002  -0.004   0.002  0.00  0.00    -0.150 F 
ATOM     14  F   UNL     1       1.296   1.879  -0.000  0.00  0.00    -0.150 F 
ATOM     15  F   UNL     1      -0.694   1.858  -1.124  0.00  0.00    -0.150 F 
ENDBRANCH   9  12
ENDBRANCH   6   9
BRANCH   2  16
ATOM     16  N   UNL     1       2.163   2.550   5.614  0.00  0.00    -0.357 N 
ATOM     17  H   UNL     1       2.113   3.509   5.476  0.00  0.00    +0.142 HD
ATOM     18  H   UNL     1       2.682   2.193   6.352  0.00  0.00    +0.142 HD
ENDBRANCH   2  16
TORSDOF 3
