REMARK  Name = ZINC58736645
REMARK  4 active torsions:
REMARK  status: ('A' for Active; 'I' for Inactive)
REMARK    1  A    between atoms: C_1  and  C_2
REMARK    2  A    between atoms: C_2  and  N_3
REMARK    3  A    between atoms: C_5  and  C_10
REMARK    4  A    between atoms: N_12  and  C_13
REMARK                            x       y       z     vdW  Elec       q    Type
REMARK                         _______ _______ _______ _____ _____    ______ ____
ROOT
ATOM      1  C   UNL     1       3.661  -1.276   3.187  0.00  0.00    +0.222 C 
ATOM      2  O   UNL     1       4.364  -0.390   2.749  0.00  0.00    -0.275 OA
ATOM      3  N   UNL     1       4.028  -1.937   4.303  0.00  0.00    -0.284 N 
ATOM      4  H   UNL     1       3.429  -2.590   4.699  0.00  0.00    +0.155 HD
ENDROOT
BRANCH   3   5
ATOM      5  C   UNL     1       5.273  -1.682   4.891  0.00  0.00    +0.053 A 
ATOM      6  C   UNL     1       6.316  -1.185   4.122  0.00  0.00    +0.046 A 
ATOM      7  C   UNL     1       7.544  -0.934   4.705  0.00  0.00    +0.061 A 
ATOM      8  C   UNL     1       7.734  -1.178   6.055  0.00  0.00    +0.061 A 
ATOM      9  C   UNL     1       6.696  -1.674   6.823  0.00  0.00    +0.043 A 
ATOM     10  C   UNL     1       5.464  -1.921   6.246  0.00  0.00    +0.064 A 
ATOM     11 CL   UNL     1       4.160  -2.535   7.213  0.00  0.00    -0.082 Cl
ATOM     12 CL   UNL     1       9.278  -0.863   6.783  0.00  0.00    -0.082 Cl
ATOM     13 CL   UNL     1       8.849  -0.313   3.743  0.00  0.00    -0.082 Cl
ENDBRANCH   3   5
BRANCH   1  16
ATOM     14  N   UNL     1       0.717  -0.511   1.172  0.00  0.00    -0.301 N 
ATOM     15  C   UNL     1       2.163  -0.753   1.236  0.00  0.00    +0.121 C 
ATOM     16  C   UNL     1       2.378  -1.638   2.484  0.00  0.00    +0.101 C 
ATOM     17  C   UNL     1       1.150  -1.268   3.348  0.00  0.00    +0.110 C 
ATOM     18  C   UNL     1       0.124  -0.781   2.347  0.00  0.00    +0.216 C 
ATOM     19  O   UNL     1      -1.061  -0.655   2.573  0.00  0.00    -0.276 OA
BRANCH  14  21
ATOM     20  C   UNL     1      -0.019   1.499  -0.011  0.00  0.00    +0.024 C 
ATOM     21  C   UNL     1       0.012  -0.030  -0.019  0.00  0.00    +0.104 C 
ENDBRANCH  14  21
ENDBRANCH   1  16
TORSDOF 3
