REMARK  Name = ZINC47146734
REMARK  4 active torsions:
REMARK  status: ('A' for Active; 'I' for Inactive)
REMARK    1  A    between atoms: C_4  and  N_7
REMARK    2  A    between atoms: C_12  and  C_25
REMARK    3  A    between atoms: C_29  and  O_31
REMARK    4  A    between atoms: O_31  and  C_32
REMARK                            x       y       z     vdW  Elec       q    Type
REMARK                         _______ _______ _______ _____ _____    ______ ____
ROOT
ATOM      1  N   UNL     1       1.488  -0.916   0.317  0.00  0.00    -0.209 N 
ATOM      2  C   UNL     1       1.990  -2.176   0.236  0.00  0.00    +0.232 C 
ATOM      3  O   UNL     1       1.376  -3.190  -0.015  0.00  0.00    -0.274 OA
ATOM      4  C   UNL     1       3.455  -2.058   0.520  0.00  0.00    +0.110 C 
ATOM      5  C   UNL     1       4.412  -3.008  -0.159  0.00  0.00    +0.072 C 
ATOM      6  C   UNL     1       5.811  -2.609   0.203  0.00  0.00    +0.035 A 
ATOM      7  C   UNL     1       6.282  -1.417   0.679  0.00  0.00    +0.113 A 
ATOM      8  N   UNL     1       7.588  -1.391   0.931  0.00  0.00    -0.196 NA
ATOM      9  C   UNL     1       8.359  -2.433   0.714  0.00  0.00    +0.311 A 
ATOM     10  O   UNL     1       9.694  -2.550   0.918  0.00  0.00    -0.258 OA
ATOM     11  S   UNL     1       7.287  -3.589   0.119  0.00  0.00    -0.028 S 
ATOM     12  S   UNL     1       5.183  -0.028   0.912  0.00  0.00    -0.091 S 
ATOM     13  C   UNL     1       3.736  -0.623  -0.020  0.00  0.00    +0.152 C 
ATOM     14  C   UNL     1       2.443   0.049   0.350  0.00  0.00    +0.240 C 
ATOM     15  O   UNL     1       2.286   1.219   0.624  0.00  0.00    -0.274 OA
ENDROOT
BRANCH   1  19
ATOM     16  C   UNL     1      -2.596  -0.090   0.433  0.00  0.00    +0.000 A 
ATOM     17  C   UNL     1      -1.681   0.946   0.472  0.00  0.00    +0.002 A 
ATOM     18  C   UNL     1      -0.327   0.676   0.433  0.00  0.00    +0.024 A 
ATOM     19  C   UNL     1       0.115  -0.638   0.356  0.00  0.00    +0.044 A 
ATOM     20  C   UNL     1      -0.806  -1.676   0.318  0.00  0.00    +0.024 A 
ATOM     21  C   UNL     1      -2.159  -1.399   0.356  0.00  0.00    +0.002 A 
ENDBRANCH   1  19
BRANCH   5  22
ATOM     22  C   UNL     1       4.147  -4.415   0.309  0.00  0.00    -0.035 A 
ATOM     23  C   UNL     1       4.258  -4.729   1.652  0.00  0.00    +0.004 A 
ATOM     24  C   UNL     1       4.016  -6.019   2.085  0.00  0.00    +0.004 A 
ATOM     25  C   UNL     1       3.662  -6.999   1.177  0.00  0.00    +0.046 A 
ATOM     26  C   UNL     1       3.550  -6.687  -0.170  0.00  0.00    +0.129 A 
ATOM     27  C   UNL     1       3.789  -5.390  -0.602  0.00  0.00    +0.050 A 
BRANCH  26  28
ATOM     28  O   UNL     1       3.203  -7.649  -1.065  0.00  0.00    -0.456 OA
BRANCH  28  29
ATOM     29  C   UNL     1       3.115  -7.300  -2.375  0.00  0.00    +0.128 A 
ATOM     30  C   UNL     1       4.229  -7.397  -3.197  0.00  0.00    +0.046 A 
ATOM     31  C   UNL     1       4.137  -7.041  -4.528  0.00  0.00    +0.004 A 
ATOM     32  C   UNL     1       2.937  -6.588  -5.043  0.00  0.00    +0.000 A 
ATOM     33  C   UNL     1       1.825  -6.489  -4.226  0.00  0.00    +0.004 A 
ATOM     34  C   UNL     1       1.910  -6.850  -2.895  0.00  0.00    +0.046 A 
ENDBRANCH  28  29
ENDBRANCH  26  28
ENDBRANCH   5  22
TORSDOF 4
