REMARK  Name = ZINC34779482
REMARK  7 active torsions:
REMARK  status: ('A' for Active; 'I' for Inactive)
REMARK    1  A    between atoms: C_1  and  C_2
REMARK    2  A    between atoms: N_6  and  C_27
REMARK    3  A    between atoms: N_9  and  C_17
REMARK    4  A    between atoms: C_12  and  C_13
REMARK    5  A    between atoms: N_15  and  N_16
REMARK    6  A    between atoms: C_17  and  C_18
REMARK    7  A    between atoms: N_20  and  C_21
REMARK                            x       y       z     vdW  Elec       q    Type
REMARK                         _______ _______ _______ _____ _____    ______ ____
ROOT
ATOM      1  C   UNL     1      -0.018   1.503   0.010  0.00  0.00    +0.046 C 
ATOM      2  C   UNL     1       0.002  -0.004   0.002  0.00  0.00    -0.017 A 
ATOM      3  C   UNL     1       0.006  -0.728  -1.197  0.00  0.00    +0.074 A 
ATOM      4  C   UNL     1      -0.008  -0.215  -2.589  0.00  0.00    +0.265 A 
ATOM      5  O   UNL     1      -0.025   0.983  -2.803  0.00  0.00    -0.267 OA
ATOM      6  N   UNL     1      -0.002  -1.089  -3.610  0.00  0.00    -0.263 N 
ATOM      7  C   UNL     1       0.017  -2.416  -3.405  0.00  0.00    +0.333 A 
ATOM      8  O   UNL     1       0.021  -3.165  -4.363  0.00  0.00    -0.246 OA
ATOM      9  N   UNL     1       0.030  -2.936  -2.164  0.00  0.00    -0.278 N 
ATOM     10  C   UNL     1       0.025  -2.124  -1.066  0.00  0.00    +0.098 A 
ATOM     11  S   UNL     1       0.038  -2.406   0.582  0.00  0.00    -0.065 S 
ATOM     12  C   UNL     1       0.023  -0.722   1.163  0.00  0.00    +0.081 A 
ATOM     13  C   UNL     1      -0.016  -0.580  -4.984  0.00  0.00    +0.157 C 
ENDROOT
BRANCH  12  14
ATOM     14  C   UNL     1       0.031  -0.230   2.542  0.00  0.00    +0.264 C 
ATOM     15  O   UNL     1       0.017   0.967   2.762  0.00  0.00    -0.268 OA
ATOM     16  N   UNL     1       0.053  -1.103   3.569  0.00  0.00    -0.249 N 
ATOM     17  H   UNL     1       0.064  -2.058   3.394  0.00  0.00    +0.169 HD
BRANCH  16  18
ATOM     18  N   UNL     1       0.060  -0.645   4.856  0.00  0.00    -0.254 NA
ATOM     19  H   UNL     1       0.076  -1.411   5.512  0.00  0.00    +0.140 HD
ATOM     20  H   UNL     1       0.834  -0.018   5.012  0.00  0.00    +0.140 HD
ENDBRANCH  16  18
ENDBRANCH  12  14
BRANCH   9  21
ATOM     21  C   UNL     1       0.050  -4.391  -1.989  0.00  0.00    +0.223 C 
BRANCH  21  22
ATOM     22  C   UNL     1       1.477  -4.871  -1.937  0.00  0.00    +0.233 C 
ATOM     23  O   UNL     1       2.388  -4.077  -2.036  0.00  0.00    -0.274 OA
ATOM     24  N   UNL     1       1.741  -6.183  -1.780  0.00  0.00    -0.311 N 
ATOM     25  H   UNL     1       1.012  -6.819  -1.700  0.00  0.00    +0.149 HD
BRANCH  24  26
ATOM     26  C   UNL     1       3.129  -6.650  -1.729  0.00  0.00    +0.073 C 
ATOM     27  C   UNL     1       3.646  -6.867  -3.152  0.00  0.00    +0.022 C 
ATOM     28  C   UNL     1       5.096  -7.355  -3.099  0.00  0.00    +0.002 C 
ATOM     29  C   UNL     1       5.162  -8.673  -2.327  0.00  0.00    +0.000 C 
ATOM     30  C   UNL     1       4.644  -8.457  -0.903  0.00  0.00    +0.002 C 
ATOM     31  C   UNL     1       3.195  -7.969  -0.956  0.00  0.00    +0.022 C 
ENDBRANCH  24  26
ENDBRANCH  21  22
ENDBRANCH   9  21
TORSDOF 5
