REMARK  Name = ZINC66470100
REMARK  7 active torsions:
REMARK  status: ('A' for Active; 'I' for Inactive)
REMARK    1  A    between atoms: C_1  and  C_2
REMARK    2  A    between atoms: C_7  and  C_8
REMARK    3  A    between atoms: C_10  and  C_13
REMARK    4  A    between atoms: C_13  and  N_14
REMARK    5  A    between atoms: N_14  and  C_15
REMARK    6  A    between atoms: C_17  and  N_22
REMARK    7  A    between atoms: C_23  and  C_27
REMARK                            x       y       z     vdW  Elec       q    Type
REMARK                         _______ _______ _______ _____ _____    ______ ____
ROOT
ATOM      1  N   UNL     1       1.366  -0.059   6.639  0.00  0.00    -0.333 N 
ATOM      2  H   UNL     1       2.058   0.186   6.005  0.00  0.00    +0.147 HD
ENDROOT
BRANCH   1   3
ATOM      3  C   UNL     1       1.696  -0.299   7.977  0.00  0.00    +0.065 A 
ATOM      4  C   UNL     1       0.708  -0.656   8.883  0.00  0.00    +0.053 A 
ATOM      5  C   UNL     1       1.038  -0.894  10.209  0.00  0.00    +0.071 A 
ATOM      6  C   UNL     1       2.357  -0.775  10.627  0.00  0.00    +0.031 A 
ATOM      7  C   UNL     1       3.341  -0.419   9.724  0.00  0.00    +0.042 A 
ATOM      8  C   UNL     1       3.016  -0.186   8.400  0.00  0.00    +0.144 A 
ATOM      9  F   UNL     1       3.981   0.156   7.518  0.00  0.00    -0.204 F 
BRANCH   5  10
ATOM     10  N   UNL     1       0.041  -1.254  11.127  0.00  0.00    -0.197 N 
ATOM     11  C   UNL     1       0.157  -2.099  12.175  0.00  0.00    +0.154 A 
ATOM     12  N   UNL     1      -1.009  -2.149  12.764  0.00  0.00    -0.113 NA
ATOM     13  N   UNL     1      -1.854  -1.394  12.161  0.00  0.00    -0.023 NA
ATOM     14  N   UNL     1      -1.293  -0.810  11.157  0.00  0.00    -0.039 NA
ATOM     15  C   UNL     1       1.400  -2.845  12.587  0.00  0.00    +0.090 C 
ENDBRANCH   5  10
ENDBRANCH   1   3
BRANCH   1  16
ATOM     16  C   UNL     1      -0.025  -0.178   6.195  0.00  0.00    +0.200 C 
BRANCH  16  19
ATOM     17  C   UNL     1      -0.122  -0.120   2.567  0.00  0.00    +0.202 A 
ATOM     18  N   UNL     1       0.006  -0.736   3.756  0.00  0.00    -0.190 NA
ATOM     19  C   UNL     1      -0.110   0.129   4.722  0.00  0.00    +0.245 A 
ATOM     20  O   UNL     1      -0.317   1.339   4.186  0.00  0.00    -0.336 OA
ATOM     21  N   UNL     1      -0.316   1.159   2.777  0.00  0.00    -0.056 NA
BRANCH  17  28
ATOM     22  C   UNL     1       2.011  -1.993   2.010  0.00  0.00    +0.044 C 
ATOM     23  C   UNL     1       0.975  -1.681   0.961  0.00  0.00    -0.040 A 
ATOM     24  C   UNL     1       1.035  -2.294  -0.274  0.00  0.00    +0.004 A 
ATOM     25  C   UNL     1       0.085  -2.008  -1.238  0.00  0.00    +0.000 A 
ATOM     26  C   UNL     1      -0.930  -1.107  -0.970  0.00  0.00    +0.001 A 
ATOM     27  C   UNL     1      -1.000  -0.489   0.262  0.00  0.00    +0.012 A 
ATOM     28  C   UNL     1      -0.048  -0.777   1.238  0.00  0.00    +0.025 A 
ENDBRANCH  17  28
ENDBRANCH  16  19
ENDBRANCH   1  16
TORSDOF 5
