REMARK  Name = ZINC12500347
REMARK  9 active torsions:
REMARK  status: ('A' for Active; 'I' for Inactive)
REMARK    1  A    between atoms: C_1  and  C_2
REMARK    2  A    between atoms: C_3  and  C_25
REMARK    3  A    between atoms: C_5  and  N_10
REMARK    4  A    between atoms: C_6  and  C_7
REMARK    5  A    between atoms: N_10  and  C_11
REMARK    6  A    between atoms: C_11  and  N_13
REMARK    7  A    between atoms: C_14  and  C_16
REMARK    8  A    between atoms: C_16  and  O_17
REMARK    9  A    between atoms: O_17  and  C_18
REMARK                            x       y       z     vdW  Elec       q    Type
REMARK                         _______ _______ _______ _____ _____    ______ ____
ROOT
ATOM      1  C   UNL     1       1.893   5.681   0.015  0.00  0.00    +0.141 C 
ATOM      2  S   UNL     1       0.302   6.314   0.033  0.00  0.00    -0.018 S 
ENDROOT
BRANCH   1   3
ATOM      3  N   UNL     1       2.088   4.348   0.005  0.00  0.00    -0.265 N 
ATOM      4  C   UNL     1       1.030   3.512   0.011  0.00  0.00    +0.256 C 
ATOM      5  O   UNL     1      -0.096   3.960   0.024  0.00  0.00    -0.272 OA
ATOM      6  H   UNL     1       2.989   3.989  -0.005  0.00  0.00    +0.157 HD
BRANCH   4   7
ATOM      7  C   UNL     1       1.248   2.021   0.001  0.00  0.00    +0.325 C 
BRANCH   7   8
ATOM      8  O   UNL     1      -0.016   1.355   0.009  0.00  0.00    -0.481 OA
BRANCH   8   9
ATOM      9  C   UNL     1       0.002  -0.004   0.002  0.00  0.00    +0.139 A 
ATOM     10  C   UNL     1       1.212  -0.682  -0.019  0.00  0.00    +0.047 A 
ATOM     11  C   UNL     1       1.228  -2.064  -0.021  0.00  0.00    +0.004 A 
ATOM     12  C   UNL     1       0.040  -2.771  -0.013  0.00  0.00    +0.002 A 
ATOM     13  C   UNL     1      -1.168  -2.098   0.002  0.00  0.00    +0.023 A 
ATOM     14  C   UNL     1      -1.190  -0.716   0.010  0.00  0.00    +0.083 A 
ATOM     15 CL   UNL     1      -2.706   0.129   0.028  0.00  0.00    -0.080 Cl
ENDBRANCH   8   9
ENDBRANCH   7   8
ENDBRANCH   4   7
ENDBRANCH   1   3
BRANCH   1  16
ATOM     16  N   UNL     1       2.951   6.517   0.009  0.00  0.00    -0.291 N 
ATOM     17  H   UNL     1       3.852   6.158  -0.002  0.00  0.00    +0.154 HD
BRANCH  16  22
ATOM     18  C   UNL     1       4.150  11.434   0.024  0.00  0.00    +0.045 C 
ATOM     19  C   UNL     1       3.210  10.256   0.026  0.00  0.00    -0.027 A 
ATOM     20  C   UNL     1       1.876  10.424   0.039  0.00  0.00    -0.008 A 
ATOM     21  S   UNL     1       1.252   8.756   0.029  0.00  0.00    -0.078 S 
ATOM     22  C   UNL     1       2.751   7.888   0.018  0.00  0.00    +0.084 A 
ATOM     23  C   UNL     1       3.704   8.900   0.015  0.00  0.00    +0.068 A 
ATOM     24  C   UNL     1       1.096  11.714   0.052  0.00  0.00    +0.052 C 
BRANCH  23  25
ATOM     25  C   UNL     1       5.139   8.604   0.000  0.00  0.00    +0.244 C 
ATOM     26  O   UNL     1       5.726   8.487  -1.060  0.00  0.00    -0.270 OA
ATOM     27  N   UNL     1       5.810   8.462   1.161  0.00  0.00    -0.325 N 
ATOM     28  H   UNL     1       5.342   8.555   2.005  0.00  0.00    +0.145 HD
ATOM     29  H   UNL     1       6.760   8.266   1.151  0.00  0.00    +0.145 HD
ENDBRANCH  23  25
ENDBRANCH  16  22
ENDBRANCH   1  16
TORSDOF 7
