REMARK  Name = ZINC05006141
REMARK  5 active torsions:
REMARK  status: ('A' for Active; 'I' for Inactive)
REMARK    1  A    between atoms: C_1  and  C_2
REMARK    2  A    between atoms: C_5  and  C_7
REMARK    3  A    between atoms: C_7  and  C_22
REMARK    4  A    between atoms: N_8  and  N_9
REMARK    5  A    between atoms: C_12  and  C_16
REMARK                            x       y       z     vdW  Elec       q    Type
REMARK                         _______ _______ _______ _____ _____    ______ ____
ROOT
ATOM      1  N   UNL     1      -4.807   1.443   0.031  0.00  0.00    -0.204 N 
ATOM      2  C   UNL     1      -3.604   2.129   0.030  0.00  0.00    +0.255 A 
ATOM      3  N   UNL     1      -2.463   1.451   0.016  0.00  0.00    -0.210 NA
ATOM      4  C   UNL     1      -1.310   2.116   0.020  0.00  0.00    +0.094 A 
ATOM      5  C   UNL     1      -1.342   3.515   0.028  0.00  0.00    +0.163 A 
ATOM      6  N   UNL     1      -2.510   4.131   0.036  0.00  0.00    -0.152 NA
ATOM      7  N   UNL     1      -3.606   3.457   0.037  0.00  0.00    -0.112 NA
ATOM      8  H   UNL     1      -4.812   0.473   0.026  0.00  0.00    +0.178 HD
ENDROOT
BRANCH   4   9
ATOM      9  C   UNL     1      -0.017   1.390   0.010  0.00  0.00    +0.002 A 
ATOM     10  C   UNL     1       1.184   2.098   0.002  0.00  0.00    +0.010 A 
ATOM     11  C   UNL     1       2.384   1.416  -0.013  0.00  0.00    +0.001 A 
ATOM     12  C   UNL     1       2.396   0.033  -0.021  0.00  0.00    +0.000 A 
ATOM     13  C   UNL     1       1.208  -0.675  -0.013  0.00  0.00    +0.001 A 
ATOM     14  C   UNL     1       0.002  -0.004   0.002  0.00  0.00    +0.010 A 
ENDBRANCH   4   9
BRANCH   1  16
ATOM     15  C   UNL     1      -7.146   1.506   0.042  0.00  0.00    +0.098 C 
ATOM     16  N   UNL     1      -6.016   2.150   0.040  0.00  0.00    -0.181 NA
ATOM     17  C   UNL     1      -7.154  -0.001   0.034  0.00  0.00    +0.071 C 
BRANCH  15  22
ATOM     18  C   UNL     1     -12.058   2.488   0.070  0.00  0.00    +0.086 C 
ATOM     19  C   UNL     1     -10.564   2.685   0.064  0.00  0.00    +0.103 A 
ATOM     20  C   UNL     1      -9.928   3.873   0.067  0.00  0.00    +0.045 A 
ATOM     21  C   UNL     1      -8.547   3.604   0.065  0.00  0.00    +0.051 A 
ATOM     22  C   UNL     1      -8.412   2.246   0.051  0.00  0.00    +0.150 A 
ATOM     23  O   UNL     1      -9.646   1.704   0.054  0.00  0.00    -0.459 OA
ENDBRANCH  15  22
ENDBRANCH   1  16
TORSDOF 3
