REMARK  Name = ZINC09138328
REMARK  8 active torsions:
REMARK  status: ('A' for Active; 'I' for Inactive)
REMARK    1  A    between atoms: C_1  and  C_2
REMARK    2  A    between atoms: C_5  and  N_9
REMARK    3  A    between atoms: C_10  and  C_12
REMARK    4  A    between atoms: N_14  and  C_15
REMARK    5  A    between atoms: C_15  and  C_16
REMARK    6  A    between atoms: C_16  and  C_18
REMARK    7  A    between atoms: C_16  and  N_66
REMARK    8  A    between atoms: N_27  and  C_28
REMARK                            x       y       z     vdW  Elec       q    Type
REMARK                         _______ _______ _______ _____ _____    ______ ____
ROOT
ATOM      1  C   UNL     1      -2.659   1.115  -0.051  0.00  0.00    -0.020 C 
ENDROOT
BRANCH   1   2
ATOM      2  C   UNL     1      -1.377   1.893   0.104  0.00  0.00    -0.059 A 
ATOM      3  C   UNL     1      -0.158   1.257  -0.044  0.00  0.00    +0.004 A 
ATOM      4  C   UNL     1       1.012   1.972   0.094  0.00  0.00    +0.023 A 
ATOM      5  C   UNL     1       0.977   3.336   0.389  0.00  0.00    +0.033 A 
ATOM      6  C   UNL     1      -0.246   3.967   0.537  0.00  0.00    -0.026 A 
ATOM      7  C   UNL     1      -1.419   3.241   0.399  0.00  0.00    +0.007 A 
ATOM      8  C   UNL     1      -0.353   5.440   0.844  0.00  0.00    +0.038 C 
ATOM      9  C   UNL     1       0.999   5.963   1.336  0.00  0.00    +0.024 C 
ATOM     10  C   UNL     1       2.081   5.451   0.376  0.00  0.00    +0.105 C 
ATOM     11  N   UNL     1       2.195   3.999   0.530  0.00  0.00    -0.333 N 
ATOM     12  C   UNL     1       3.203   3.450  -0.387  0.00  0.00    +0.129 C 
ENDBRANCH   1   2
BRANCH   1  18
ATOM     13  C   UNL     1      -1.824   0.156   2.010  0.00  0.00    -0.078 C 
ATOM     14  C   UNL     1      -1.911  -1.066   2.926  0.00  0.00    -0.019 C 
ATOM     15  C   UNL     1      -1.367  -2.292   2.187  0.00  0.00    -0.004 C 
ATOM     16  C   UNL     1      -2.166  -2.496   0.897  0.00  0.00    -0.019 C 
ATOM     17  C   UNL     1      -2.072  -1.232   0.039  0.00  0.00    -0.078 C 
ATOM     18  N   UNL     1      -2.633  -0.094   0.798  0.00  0.00    +0.385 N 
ATOM     19  H   UNL     1      -3.594  -0.324   1.080  0.00  0.00    -0.081 HD
ENDBRANCH   1  18
BRANCH   1  20
ATOM     20  C   UNL     1      -2.834   0.707  -1.514  0.00  0.00    +0.094 C 
BRANCH  20  23
ATOM     21  C   UNL     1      -4.435  -0.536  -2.867  0.00  0.00    +0.299 C 
ATOM     22  O   UNL     1      -3.816  -0.199  -3.856  0.00  0.00    -0.265 OA
ATOM     23  N   UNL     1      -4.026  -0.135  -1.647  0.00  0.00    -0.309 N 
ATOM     24  H   UNL     1      -4.520  -0.404  -0.857  0.00  0.00    +0.149 HD
BRANCH  21  26
ATOM     25  N   UNL     1      -6.059  -1.794  -4.223  0.00  0.00    -0.278 N 
ATOM     26  C   UNL     1      -5.650  -1.394  -3.003  0.00  0.00    +0.303 C 
ATOM     27  O   UNL     1      -6.269  -1.730  -2.014  0.00  0.00    -0.265 OA
ATOM     28  H   UNL     1      -5.516  -1.604  -5.003  0.00  0.00    +0.155 HD
BRANCH  25  33
ATOM     29  C   UNL     1     -10.958  -4.596  -4.797  0.00  0.00    +0.047 C 
ATOM     30  C   UNL     1      -9.657  -3.852  -4.644  0.00  0.00    -0.015 A 
ATOM     31  C   UNL     1      -8.598  -4.132  -5.488  0.00  0.00    +0.008 A 
ATOM     32  C   UNL     1      -7.406  -3.448  -5.354  0.00  0.00    +0.024 A 
ATOM     33  C   UNL     1      -7.266  -2.484  -4.363  0.00  0.00    +0.037 A 
ATOM     34  C   UNL     1      -8.330  -2.204  -3.516  0.00  0.00    +0.062 A 
ATOM     35  C   UNL     1      -9.524  -2.888  -3.658  0.00  0.00    +0.128 A 
ATOM     36  F   UNL     1     -10.560  -2.617  -2.834  0.00  0.00    -0.205 F 
ENDBRANCH  25  33
ENDBRANCH  21  26
ENDBRANCH  20  23
ENDBRANCH   1  20
TORSDOF 6
