REMARK  Name = ZINC29335046
REMARK  5 active torsions:
REMARK  status: ('A' for Active; 'I' for Inactive)
REMARK    1  A    between atoms: C_4  and  N_7
REMARK    2  A    between atoms: N_7  and  C_8
REMARK    3  A    between atoms: C_16  and  C_18
REMARK    4  A    between atoms: C_18  and  S_19
REMARK    5  A    between atoms: S_19  and  C_20
REMARK                            x       y       z     vdW  Elec       q    Type
REMARK                         _______ _______ _______ _____ _____    ______ ____
ROOT
ATOM      1  N   UNL     1      -3.144   2.263  -1.775  0.00  0.00    -0.293 N 
ATOM      2  C   UNL     1      -3.043   3.607  -1.807  0.00  0.00    +0.226 C 
ATOM      3  O   UNL     1      -3.776   4.254  -2.524  0.00  0.00    -0.275 OA
ENDROOT
BRANCH   1   4
ATOM      4  C   UNL     1      -2.333   1.489  -0.833  0.00  0.00    +0.099 C 
ATOM      5  C   UNL     1      -3.255   0.788   0.179  0.00  0.00    +0.046 C 
ATOM      6  C   UNL     1      -2.411  -0.262   0.957  0.00  0.00    +0.168 C 
ATOM      7  S   UNL     1      -1.386  -0.952  -0.410  0.00  0.00    -0.029 S 
ATOM      8  O   UNL     1      -0.040  -1.066   0.033  0.00  0.00    -0.174 OA
ATOM      9  O   UNL     1      -2.043  -2.090  -0.951  0.00  0.00    -0.174 OA
ATOM     10  C   UNL     1      -1.506   0.437  -1.611  0.00  0.00    +0.188 C 
ENDBRANCH   1   4
BRANCH   1  14
ATOM     11  C   UNL     1      -6.069   1.652  -4.821  0.00  0.00    +0.000 C 
ATOM     12  C   UNL     1      -6.456   1.345  -3.373  0.00  0.00    +0.002 C 
ATOM     13  C   UNL     1      -5.494   2.061  -2.424  0.00  0.00    +0.022 C 
ATOM     14  C   UNL     1      -4.066   1.577  -2.684  0.00  0.00    +0.076 C 
ATOM     15  C   UNL     1      -3.678   1.885  -4.132  0.00  0.00    +0.022 C 
ATOM     16  C   UNL     1      -4.641   1.168  -5.081  0.00  0.00    +0.002 C 
ENDBRANCH   1  14
BRANCH   2  17
ATOM     17  C   UNL     1      -2.018   4.305  -0.950  0.00  0.00    +0.173 C 
BRANCH  17  18
ATOM     18  S   UNL     1      -2.224   6.097  -1.103  0.00  0.00    -0.084 S 
BRANCH  18  19
ATOM     19  C   UNL     1      -0.938   6.646  -0.031  0.00  0.00    +0.123 C 
ATOM     20  N   UNL     1      -0.186   5.776   0.584  0.00  0.00    -0.382 N 
ATOM     21  N   UNL     1      -0.727   7.992   0.157  0.00  0.00    -0.340 N 
ATOM     22  H   UNL     1       0.616   6.118   1.254  0.00  0.00    +0.158 HD
ATOM     23  H   UNL     1       0.075   8.335   0.827  0.00  0.00    +0.144 HD
ATOM     24  H   UNL     1      -1.361   8.726  -0.362  0.00  0.00    +0.144 HD
ATOM     25  H   UNL     1      -0.355   4.699   0.434  0.00  0.00    +0.158 HD
ENDBRANCH  18  19
ENDBRANCH  17  18
ENDBRANCH   2  17
TORSDOF 5
