REMARK  Name = ZINC03841702
REMARK  7 active torsions:
REMARK  status: ('A' for Active; 'I' for Inactive)
REMARK    1  A    between atoms: C_10  and  N_11
REMARK    2  A    between atoms: N_11  and  C_12
REMARK    3  A    between atoms: C_12  and  N_14
REMARK    4  A    between atoms: N_14  and  C_15
REMARK    5  A    between atoms: C_25  and  O_27
REMARK    6  A    between atoms: O_27  and  C_28
REMARK    7  A    between atoms: C_28  and  C_29
REMARK                            x       y       z     vdW  Elec       q    Type
REMARK                         _______ _______ _______ _____ _____    ______ ____
ROOT
ATOM      1  N   UNL     1       1.020  -0.732   0.269  0.00  0.00    -0.319 N 
ATOM      2  H   UNL     1       1.842  -0.367  -0.095  0.00  0.00    +0.148 HD
ENDROOT
BRANCH   1   3
ATOM      3  C   UNL     1       0.963  -2.135   0.685  0.00  0.00    +0.129 C 
ATOM      4  C   UNL     1       0.477  -3.025  -0.480  0.00  0.00    +0.185 C 
ATOM      5  O   UNL     1       1.237  -4.246  -0.353  0.00  0.00    -0.369 OA
ATOM      6  C   UNL     1       2.575  -3.835  -0.004  0.00  0.00    +0.180 C 
ATOM      7  C   UNL     1       2.379  -2.662   1.004  0.00  0.00    +0.172 C 
ATOM      8  O   UNL     1       2.360  -3.292   2.299  0.00  0.00    -0.369 OA
ATOM      9  C   UNL     1       3.374  -4.318   2.247  0.00  0.00    +0.194 C 
ATOM     10  C   UNL     1       3.228  -4.947   0.845  0.00  0.00    +0.176 C 
BRANCH  10  11
ATOM     11  O   UNL     1       2.383  -6.098   0.896  0.00  0.00    -0.362 OA
BRANCH  11  12
ATOM     12  C   UNL     1       3.091  -7.333   1.030  0.00  0.00    +0.255 C 
BRANCH  12  13
ATOM     13  C   UNL     1       2.107  -8.473   1.074  0.00  0.00    +0.236 C 
ATOM     14  O   UNL     1       0.917  -8.251   0.997  0.00  0.00    -0.274 OA
ATOM     15  N   UNL     1       2.549  -9.741   1.198  0.00  0.00    -0.327 N 
ATOM     16  H   UNL     1       3.501  -9.918   1.259  0.00  0.00    +0.145 HD
ATOM     17  H   UNL     1       1.916 -10.475   1.226  0.00  0.00    +0.145 HD
ENDBRANCH  12  13
ENDBRANCH  11  12
ENDBRANCH  10  11
ENDBRANCH   1   3
BRANCH   1  18
ATOM     18  C   UNL     1      -0.069   0.052   0.392  0.00  0.00    +0.135 C 
ATOM     19  S   UNL     1      -1.519  -0.592   1.035  0.00  0.00    -0.019 S 
BRANCH  18  20
ATOM     20  N   UNL     1      -0.016   1.344   0.009  0.00  0.00    -0.296 N 
ATOM     21  H   UNL     1       0.825   1.729  -0.282  0.00  0.00    +0.154 HD
BRANCH  20  31
ATOM     22  C   UNL     1      -1.127   6.012   1.573  0.00  0.00    +0.001 A 
ATOM     23  C   UNL     1       0.039   5.250   1.565  0.00  0.00    +0.001 A 
ATOM     24  C   UNL     1       0.044   3.983   1.067  0.00  0.00    +0.010 A 
ATOM     25  C   UNL     1      -1.142   3.431   0.557  0.00  0.00    +0.003 A 
ATOM     26  C   UNL     1      -2.327   4.208   0.560  0.00  0.00    -0.016 A 
ATOM     27  C   UNL     1      -2.294   5.512   1.083  0.00  0.00    +0.008 A 
ATOM     28  C   UNL     1      -3.514   3.659   0.045  0.00  0.00    +0.008 A 
ATOM     29  C   UNL     1      -3.517   2.393  -0.456  0.00  0.00    +0.002 A 
ATOM     30  C   UNL     1      -2.358   1.623  -0.469  0.00  0.00    +0.024 A 
ATOM     31  C   UNL     1      -1.173   2.124   0.027  0.00  0.00    +0.040 A 
ENDBRANCH  20  31
ENDBRANCH  18  20
ENDBRANCH   1  18
TORSDOF 7
