REMARK  Name = ZINC65142676
REMARK  9 active torsions:
REMARK  status: ('A' for Active; 'I' for Inactive)
REMARK    1  A    between atoms: C_1  and  C_2
REMARK    2  A    between atoms: C_5  and  C_7
REMARK    3  A    between atoms: C_7  and  C_8
REMARK    4  A    between atoms: C_7  and  N_9
REMARK    5  A    between atoms: C_10  and  C_12
REMARK    6  A    between atoms: C_12  and  C_13
REMARK    7  A    between atoms: C_13  and  C_14
REMARK    8  A    between atoms: C_15  and  C_25
REMARK    9  A    between atoms: C_22  and  C_23
REMARK                            x       y       z     vdW  Elec       q    Type
REMARK                         _______ _______ _______ _____ _____    ______ ____
ROOT
ATOM      1  C   UNL     1       3.920  -6.857   2.800  0.00  0.00    +0.048 C 
ENDROOT
BRANCH   1   2
ATOM      2  C   UNL     1       5.120  -6.945   3.707  0.00  0.00    -0.005 A 
ATOM      3  C   UNL     1       6.401  -7.117   3.171  0.00  0.00    +0.047 A 
ATOM      4  N   UNL     1       7.446  -7.194   3.964  0.00  0.00    -0.216 NA
ATOM      5  C   UNL     1       7.308  -7.110   5.292  0.00  0.00    +0.255 A 
ATOM      6  N   UNL     1       8.186  -7.158   6.289  0.00  0.00    -0.176 NA
ATOM      7  C   UNL     1       7.553  -7.027   7.452  0.00  0.00    +0.234 A 
ATOM      8  N   UNL     1       6.260  -6.891   7.234  0.00  0.00    -0.128 NA
ATOM      9  N   UNL     1       6.071  -6.941   5.847  0.00  0.00    -0.199 N 
ATOM     10  C   UNL     1       4.971  -6.853   5.054  0.00  0.00    +0.048 A 
ATOM     11  C   UNL     1       3.605  -6.661   5.661  0.00  0.00    +0.066 C 
ATOM     12  N   UNL     1       8.162  -7.031   8.704  0.00  0.00    -0.326 N 
ATOM     13  C   UNL     1       6.583  -7.215   1.678  0.00  0.00    +0.066 C 
ATOM     14  H   UNL     1       9.123  -7.136   8.775  0.00  0.00    +0.145 HD
ATOM     15  H   UNL     1       7.624  -6.929   9.505  0.00  0.00    +0.145 HD
ENDBRANCH   1   2
BRANCH   1  16
ATOM     16  C   UNL     1       3.753  -5.417   2.313  0.00  0.00    +0.100 C 
BRANCH  16  18
ATOM     17  N   UNL     1       2.210  -4.147   0.855  0.00  0.00    -0.308 N 
ATOM     18  C   UNL     1       2.553  -5.328   1.406  0.00  0.00    +0.214 C 
ATOM     19  O   UNL     1       1.896  -6.321   1.172  0.00  0.00    -0.276 OA
ATOM     20  H   UNL     1       2.735  -3.354   1.042  0.00  0.00    +0.149 HD
BRANCH  17  21
ATOM     21  C   UNL     1       1.043  -4.062  -0.027  0.00  0.00    +0.107 C 
ATOM     22  C   UNL     1       1.452  -4.441  -1.452  0.00  0.00    +0.033 C 
BRANCH  21  27
ATOM     23  C   UNL     1      -0.018   1.503   0.010  0.00  0.00    +0.051 C 
ATOM     24  C   UNL     1       0.002  -0.004   0.002  0.00  0.00    -0.013 A 
ATOM     25  C   UNL     1      -1.039  -0.872   0.002  0.00  0.00    +0.011 A 
ATOM     26  C   UNL     1      -0.780  -2.230  -0.007  0.00  0.00    +0.013 A 
ATOM     27  C   UNL     1       0.507  -2.653  -0.016  0.00  0.00    +0.010 A 
ATOM     28  S   UNL     1       1.404  -1.109  -0.018  0.00  0.00    -0.097 S 
ENDBRANCH  21  27
ENDBRANCH  17  21
ENDBRANCH  16  18
ENDBRANCH   1  16
TORSDOF 5
