REMARK  Name = ZINC14302509
REMARK  6 active torsions:
REMARK  status: ('A' for Active; 'I' for Inactive)
REMARK    1  A    between atoms: C_1  and  C_2
REMARK    2  A    between atoms: C_3  and  C_16
REMARK    3  A    between atoms: C_16  and  C_17
REMARK    4  A    between atoms: C_17  and  C_18
REMARK    5  A    between atoms: N_20  and  C_21
REMARK    6  A    between atoms: C_27  and  C_29
REMARK                            x       y       z     vdW  Elec       q    Type
REMARK                         _______ _______ _______ _____ _____    ______ ____
ROOT
ATOM      1  C   UNL     1      -0.179   0.028   2.482  0.00  0.00    +0.066 C 
ATOM      2  C   UNL     1      -0.074  -0.705   1.170  0.00  0.00    +0.050 A 
ATOM      3  C   UNL     1       0.002  -0.004   0.002  0.00  0.00    +0.038 A 
ATOM      4  C   UNL     1       0.106  -0.711  -1.209  0.00  0.00    +0.256 A 
ATOM      5  O   UNL     1       0.180  -0.116  -2.272  0.00  0.00    -0.267 OA
ATOM      6  N   UNL     1       0.121  -2.061  -1.174  0.00  0.00    -0.295 N 
ATOM      7  H   UNL     1       0.192  -2.568  -1.997  0.00  0.00    +0.172 HD
ATOM      8  C   UNL     1       0.036  -2.706   0.021  0.00  0.00    +0.199 A 
ATOM      9  N   UNL     1      -0.061  -2.036   1.152  0.00  0.00    -0.221 NA
ATOM     10  N   UNL     1       0.052  -4.074   0.049  0.00  0.00    -0.297 N 
ATOM     11  C   UNL     1      -0.943  -4.632  -0.878  0.00  0.00    +0.136 C 
ATOM     12  C   UNL     1      -0.850  -6.160  -0.860  0.00  0.00    +0.179 C 
ATOM     13  O   UNL     1      -1.035  -6.628   0.479  0.00  0.00    -0.377 OA
ATOM     14  C   UNL     1      -0.082  -6.105   1.409  0.00  0.00    +0.179 C 
ATOM     15  C   UNL     1      -0.168  -4.576   1.413  0.00  0.00    +0.136 C 
ENDROOT
BRANCH   3  16
ATOM     16  C   UNL     1      -0.018   1.503   0.010  0.00  0.00    +0.051 C 
BRANCH  16  17
ATOM     17  C   UNL     1       1.417   2.032  -0.001  0.00  0.00    +0.100 C 
BRANCH  17  18
ATOM     18  C   UNL     1       1.397   3.539   0.008  0.00  0.00    +0.214 C 
ATOM     19  O   UNL     1       0.338   4.131   0.021  0.00  0.00    -0.276 OA
ATOM     20  N   UNL     1       2.554   4.229   0.000  0.00  0.00    -0.312 N 
ATOM     21  H   UNL     1       3.401   3.755  -0.010  0.00  0.00    +0.149 HD
BRANCH  20  22
ATOM     22  C   UNL     1       2.535   5.694   0.008  0.00  0.00    +0.076 C 
ATOM     23  C   UNL     1       2.388   6.210  -1.425  0.00  0.00    +0.022 C 
ATOM     24  C   UNL     1       2.368   7.739  -1.416  0.00  0.00    +0.002 C 
ATOM     25  C   UNL     1       3.674   8.264  -0.816  0.00  0.00    +0.000 C 
ATOM     26  C   UNL     1       3.820   7.748   0.617  0.00  0.00    +0.005 C 
ATOM     27  C   UNL     1       3.841   6.218   0.608  0.00  0.00    +0.006 C 
ATOM     28  C   UNL     1       3.987   5.702   2.041  0.00  0.00    +0.009 C 
ENDBRANCH  20  22
ENDBRANCH  17  18
ENDBRANCH  16  17
ENDBRANCH   3  16
TORSDOF 4
