REMARK  Name = ZINC35474672
REMARK  6 active torsions:
REMARK  status: ('A' for Active; 'I' for Inactive)
REMARK    1  A    between atoms: C_2  and  C_3
REMARK    2  A    between atoms: C_3  and  N_4
REMARK    3  A    between atoms: N_4  and  C_5
REMARK    4  A    between atoms: C_5  and  C_6
REMARK    5  A    between atoms: C_9  and  C_12
REMARK    6  A    between atoms: N_20  and  C_21
REMARK                            x       y       z     vdW  Elec       q    Type
REMARK                         _______ _______ _______ _____ _____    ______ ____
ROOT
ATOM      1  N   UNL     1       1.367  -1.676   1.111  0.00  0.00    -0.278 N 
ATOM      2  C   UNL     1       1.864  -1.275   2.299  0.00  0.00    +0.303 C 
ATOM      3  O   UNL     1       1.905  -2.052   3.233  0.00  0.00    -0.253 OA
ATOM      4  N   UNL     1       2.314  -0.014   2.450  0.00  0.00    -0.294 N 
ATOM      5  H   UNL     1       2.280   0.606   1.705  0.00  0.00    +0.151 HD
ENDROOT
BRANCH   4   6
ATOM      6  C   UNL     1       2.853   0.421   3.741  0.00  0.00    +0.037 C 
ATOM      7  C   UNL     1       4.057  -0.448   4.110  0.00  0.00    +0.029 C 
ATOM      8  C   UNL     1       4.621   0.007   5.458  0.00  0.00    -0.008 C 
ATOM      9  C   UNL     1       5.058   1.470   5.361  0.00  0.00    +0.007 C 
ATOM     10  C   UNL     1       3.854   2.339   4.992  0.00  0.00    -0.008 C 
ATOM     11  C   UNL     1       3.291   1.884   3.644  0.00  0.00    +0.029 C 
ATOM     12  C   UNL     1       2.776   2.199   6.068  0.00  0.00    +0.007 C 
ATOM     13  C   UNL     1       2.338   0.736   6.166  0.00  0.00    -0.008 C 
ATOM     14  C   UNL     1       3.542  -0.133   6.534  0.00  0.00    +0.007 C 
ATOM     15  C   UNL     1       1.775   0.282   4.818  0.00  0.00    +0.029 C 
ENDBRANCH   4   6
BRANCH   1  16
ATOM     16  C   UNL     1       1.317  -0.740  -0.015  0.00  0.00    +0.136 C 
BRANCH  16  18
ATOM     17  C   UNL     1      -0.016   1.306   0.009  0.00  0.00    +0.005 C 
ATOM     18  C   UNL     1       0.002  -0.004   0.002  0.00  0.00    -0.016 C 
ENDBRANCH  16  18
ENDBRANCH   1  16
BRANCH   1  19
ATOM     19  C   UNL     1       0.878  -3.047   0.947  0.00  0.00    +0.157 C 
BRANCH  19  20
ATOM     20  C   UNL     1       2.026  -3.945   0.481  0.00  0.00    +0.227 C 
ATOM     21  C   UNL     1       1.536  -5.394   0.250  0.00  0.00    +0.108 C 
ATOM     22  C   UNL     1       2.706  -6.221   0.746  0.00  0.00    +0.091 C 
ATOM     23  N   UNL     1       3.476  -5.455   1.444  0.00  0.00    -0.089 NA
ATOM     24  O   UNL     1       2.998  -4.127   1.530  0.00  0.00    -0.388 OA
BRANCH  22  25
ATOM     25  C   UNL     1       2.928  -7.656   0.477  0.00  0.00    -0.000 A 
ATOM     26  C   UNL     1       2.017  -8.372  -0.302  0.00  0.00    +0.010 A 
ATOM     27  C   UNL     1       2.229  -9.713  -0.549  0.00  0.00    +0.001 A 
ATOM     28  C   UNL     1       3.342 -10.348  -0.027  0.00  0.00    +0.000 A 
ATOM     29  C   UNL     1       4.249  -9.644   0.746  0.00  0.00    +0.001 A 
ATOM     30  C   UNL     1       4.052  -8.302   0.996  0.00  0.00    +0.010 A 
ENDBRANCH  22  25
ENDBRANCH  19  20
ENDBRANCH   1  19
TORSDOF 6
