REMARK  Name = ZINC33770303
REMARK  10 active torsions:
REMARK  status: ('A' for Active; 'I' for Inactive)
REMARK    1  A    between atoms: C_3  and  O_35
REMARK    2  A    between atoms: C_6  and  C_7
REMARK    3  A    between atoms: C_7  and  C_8
REMARK    4  A    between atoms: C_8  and  C_10
REMARK    5  A    between atoms: C_8  and  N_13
REMARK    6  A    between atoms: C_14  and  C_16
REMARK    7  A    between atoms: C_19  and  C_22
REMARK    8  A    between atoms: C_22  and  O_23
REMARK    9  A    between atoms: O_23  and  C_24
REMARK   10  A    between atoms: C_27  and  N_30
REMARK                            x       y       z     vdW  Elec       q    Type
REMARK                         _______ _______ _______ _____ _____    ______ ____
ROOT
ATOM      1  N   UNL     1       5.281 -12.293  -1.278  0.00  0.00    -0.300 N 
ATOM      2  C   UNL     1       4.977 -11.703  -0.105  0.00  0.00    +0.245 C 
ATOM      3  O   UNL     1       5.273 -12.245   0.943  0.00  0.00    -0.270 OA
ATOM      4  H   UNL     1       5.014 -11.803  -2.225  0.00  0.00    +0.150 HD
ENDROOT
BRANCH   2   5
ATOM      5  C   UNL     1       4.284 -10.397  -0.091  0.00  0.00    +0.037 A 
ATOM      6  C   UNL     1       3.968  -9.784   1.122  0.00  0.00    +0.013 A 
ATOM      7  C   UNL     1       3.321  -8.565   1.127  0.00  0.00    +0.008 A 
ATOM      8  C   UNL     1       2.987  -7.951  -0.067  0.00  0.00    -0.010 A 
ATOM      9  C   UNL     1       3.293  -8.556  -1.273  0.00  0.00    +0.008 A 
ATOM     10  C   UNL     1       3.944  -9.772  -1.292  0.00  0.00    +0.013 A 
BRANCH   8  11
ATOM     11  C   UNL     1       2.281  -6.620  -0.053  0.00  0.00    +0.264 C 
BRANCH  11  12
ATOM     12  O   UNL     1       3.248  -5.567  -0.057  0.00  0.00    -0.487 OA
BRANCH  12  13
ATOM     13  C   UNL     1       2.774  -4.293  -0.046  0.00  0.00    +0.121 A 
ATOM     14  C   UNL     1       3.658  -3.224  -0.050  0.00  0.00    +0.047 A 
ATOM     15  C   UNL     1       3.177  -1.930  -0.039  0.00  0.00    +0.030 A 
ATOM     16  C   UNL     1       1.809  -1.699  -0.024  0.00  0.00    +0.048 A 
ATOM     17  C   UNL     1       0.924  -2.769  -0.016  0.00  0.00    +0.030 A 
ATOM     18  C   UNL     1       1.406  -4.062  -0.032  0.00  0.00    +0.047 A 
BRANCH  16  19
ATOM     19  N   UNL     1       1.319  -0.383  -0.013  0.00  0.00    -0.306 N 
ATOM     20  C   UNL     1       0.002  -0.004   0.002  0.00  0.00    +0.112 A 
ATOM     21  C   UNL     1      -0.016   1.343   0.009  0.00  0.00    +0.130 A 
ATOM     22  N   UNL     1       1.252   1.778  -0.000  0.00  0.00    -0.244 NA
ATOM     23  C   UNL     1       2.061   0.754  -0.014  0.00  0.00    +0.204 A 
ENDBRANCH  16  19
ENDBRANCH  12  13
ENDBRANCH  11  12
ENDBRANCH   8  11
ENDBRANCH   2   5
BRANCH   1  24
ATOM     24  C   UNL     1       5.968 -13.587  -1.291  0.00  0.00    +0.163 C 
BRANCH  24  25
ATOM     25  C   UNL     1       4.954 -14.695  -1.162  0.00  0.00    +0.231 C 
ATOM     26  O   UNL     1       3.775 -14.430  -1.068  0.00  0.00    -0.274 OA
ATOM     27  N   UNL     1       5.359 -15.980  -1.151  0.00  0.00    -0.328 N 
ATOM     28  H   UNL     1       4.619 -16.789  -1.056  0.00  0.00    +0.145 HD
ATOM     29  H   UNL     1       6.429 -16.221  -1.235  0.00  0.00    +0.145 HD
ENDBRANCH  24  25
BRANCH  24  30
ATOM     30  C   UNL     1       6.732 -13.745  -2.607  0.00  0.00    +0.067 C 
BRANCH  30  36
ATOM     31  C   UNL     1       7.574 -11.478  -3.248  0.00  0.00    +0.007 A 
ATOM     32  C   UNL     1       8.575 -10.527  -3.311  0.00  0.00    +0.045 A 
ATOM     33  C   UNL     1       9.836 -10.816  -2.812  0.00  0.00    +0.117 A 
ATOM     34  C   UNL     1      10.089 -12.057  -2.247  0.00  0.00    +0.045 A 
ATOM     35  C   UNL     1       9.084 -13.003  -2.182  0.00  0.00    +0.007 A 
ATOM     36  C   UNL     1       7.827 -12.712  -2.679  0.00  0.00    -0.045 A 
BRANCH  33  37
ATOM     37  O   UNL     1      10.824  -9.884  -2.878  0.00  0.00    -0.507 OA
ATOM     38  H   UNL     1      11.824 -10.114  -2.482  0.00  0.00    +0.292 HD
ENDBRANCH  33  37
ENDBRANCH  30  36
ENDBRANCH  24  30
ENDBRANCH   1  24
TORSDOF 10
