REMARK  Name = ZINC54532223
REMARK  7 active torsions:
REMARK  status: ('A' for Active; 'I' for Inactive)
REMARK    1  A    between atoms: C_1  and  C_2
REMARK    2  A    between atoms: C_4  and  C_19
REMARK    3  A    between atoms: C_7  and  N_8
REMARK    4  A    between atoms: N_8  and  C_9
REMARK    5  A    between atoms: C_9  and  C_11
REMARK    6  A    between atoms: C_9  and  C_12
REMARK    7  A    between atoms: C_12  and  N_13
REMARK                            x       y       z     vdW  Elec       q    Type
REMARK                         _______ _______ _______ _____ _____    ______ ____
ROOT
ATOM      1  N   UNL     1      -0.189   0.284   2.497  0.00  0.00    -0.343 N 
ATOM      2  H   UNL     1      -0.167   1.243   2.637  0.00  0.00    +0.146 HD
ENDROOT
BRANCH   1   9
ATOM      3  C   UNL     1      -0.513   2.130   0.363  0.00  0.00    +0.045 C 
ATOM      4  C   UNL     1      -0.548   0.639   0.142  0.00  0.00    -0.029 A 
ATOM      5  C   UNL     1      -0.735   0.141  -1.116  0.00  0.00    +0.020 A 
ATOM      6  C   UNL     1      -0.767  -1.244  -1.320  0.00  0.00    +0.064 A 
ATOM      7  C   UNL     1      -0.608  -2.112  -0.233  0.00  0.00    +0.017 A 
ATOM      8  C   UNL     1      -0.422  -1.606   1.021  0.00  0.00    +0.024 A 
ATOM      9  C   UNL     1      -0.385  -0.227   1.220  0.00  0.00    +0.030 A 
BRANCH   6  10
ATOM     10  C   UNL     1      -0.968  -1.785  -2.673  0.00  0.00    +0.387 C 
ATOM     11  O   UNL     1      -1.108  -1.025  -3.622  0.00  0.00    -0.241 OA
ATOM     12  O   UNL     1      -0.996  -2.995  -2.850  0.00  0.00    -0.241 OA
ENDBRANCH   6  10
ENDBRANCH   1   9
BRANCH   1  13
ATOM     13  C   UNL     1      -0.017  -0.626   3.631  0.00  0.00    +0.051 C 
ATOM     14  C   UNL     1      -1.389  -1.042   4.165  0.00  0.00    +0.026 C 
BRANCH  13  15
ATOM     15  C   UNL     1       0.767   0.081   4.738  0.00  0.00    -0.057 C 
BRANCH  15  16
ATOM     16  N   UNL     1       2.054   0.548   4.205  0.00  0.00    +0.381 N 
ATOM     17  C   UNL     1       2.740   1.355   5.222  0.00  0.00    -0.079 C 
ATOM     18  C   UNL     1       4.043   1.911   4.644  0.00  0.00    -0.019 C 
ATOM     19  C   UNL     1       4.944   0.747   4.220  0.00  0.00    -0.004 C 
ATOM     20  C   UNL     1       4.191  -0.129   3.215  0.00  0.00    -0.019 C 
ATOM     21  C   UNL     1       2.882  -0.609   3.846  0.00  0.00    -0.079 C 
ATOM     22  H   UNL     1       1.892   1.112   3.384  0.00  0.00    -0.082 HD
ENDBRANCH  15  16
ENDBRANCH  13  15
ENDBRANCH   1  13
TORSDOF 5
