REMARK  Name = ZINC67313324
REMARK  6 active torsions:
REMARK  status: ('A' for Active; 'I' for Inactive)
REMARK    1  A    between atoms: C_1  and  C_2
REMARK    2  A    between atoms: C_2  and  N_3
REMARK    3  A    between atoms: C_4  and  C_6
REMARK    4  A    between atoms: C_11  and  N_12
REMARK    5  A    between atoms: C_13  and  C_15
REMARK    6  A    between atoms: C_22  and  C_27
REMARK                            x       y       z     vdW  Elec       q    Type
REMARK                         _______ _______ _______ _____ _____    ______ ____
ROOT
ATOM      1  N   UNL     1       1.357  -4.641  -1.933  0.00  0.00    -0.281 N 
ATOM      2  C   UNL     1       1.694  -5.934  -2.109  0.00  0.00    +0.252 C 
ATOM      3  O   UNL     1       2.428  -6.252  -3.025  0.00  0.00    -0.270 OA
ATOM      4  H   UNL     1       0.836  -4.377  -1.159  0.00  0.00    +0.155 HD
ENDROOT
BRANCH   2   5
ATOM      5  C   UNL     1       1.173  -6.963  -1.190  0.00  0.00    +0.080 A 
ATOM      6  C   UNL     1       0.324  -6.604  -0.138  0.00  0.00    +0.017 A 
ATOM      7  C   UNL     1      -0.162  -7.568   0.718  0.00  0.00    +0.003 A 
ATOM      8  C   UNL     1       0.185  -8.899   0.545  0.00  0.00    +0.027 A 
ATOM      9  C   UNL     1       1.024  -9.270  -0.491  0.00  0.00    +0.076 A 
ATOM     10  C   UNL     1       1.519  -8.306  -1.368  0.00  0.00    +0.155 A 
ATOM     11  O   UNL     1       2.338  -8.682  -2.382  0.00  0.00    -0.477 OA
ATOM     12  C   UNL     1       3.201  -9.795  -2.134  0.00  0.00    +0.256 C 
ATOM     13  C   UNL     1       2.417 -10.910  -1.489  0.00  0.00    +0.258 C 
ATOM     14  O   UNL     1       2.721 -12.066  -1.692  0.00  0.00    -0.271 OA
ATOM     15  N   UNL     1       1.381 -10.613  -0.677  0.00  0.00    -0.280 N 
ATOM     16  C   UNL     1       3.791 -10.288  -3.457  0.00  0.00    +0.062 C 
ATOM     17  H   UNL     1       0.884 -11.321  -0.237  0.00  0.00    +0.155 HD
ENDBRANCH   2   5
BRANCH   1  23
ATOM     18  C   UNL     1       2.089  -2.388  -2.441  0.00  0.00    +0.059 A 
ATOM     19  C   UNL     1       2.496  -1.439  -3.382  0.00  0.00    +0.035 A 
ATOM     20  C   UNL     1       2.564  -1.780  -4.717  0.00  0.00    +0.042 A 
ATOM     21  C   UNL     1       2.231  -3.061  -5.130  0.00  0.00    +0.022 A 
ATOM     22  C   UNL     1       1.827  -4.008  -4.211  0.00  0.00    +0.025 A 
ATOM     23  C   UNL     1       1.758  -3.685  -2.862  0.00  0.00    +0.046 A 
ATOM     24 CL   UNL     1       3.070  -0.599  -5.885  0.00  0.00    -0.084 Cl
BRANCH  18  26
ATOM     25  N   UNL     1       2.428  -0.817  -0.598  0.00  0.00    -0.312 N 
ATOM     26  C   UNL     1       2.014  -2.031  -1.012  0.00  0.00    +0.246 C 
ATOM     27  O   UNL     1       1.578  -2.831  -0.207  0.00  0.00    -0.270 OA
ATOM     28  H   UNL     1       2.775  -0.178  -1.240  0.00  0.00    +0.149 HD
BRANCH  25  30
ATOM     29  C   UNL     1       2.881   0.961   1.020  0.00  0.00    +0.024 C 
ATOM     30  C   UNL     1       2.353  -0.461   0.821  0.00  0.00    +0.101 C 
ENDBRANCH  25  30
ENDBRANCH  18  26
ENDBRANCH   1  23
TORSDOF 4
