REMARK  Name = ZINC40177144
REMARK  5 active torsions:
REMARK  status: ('A' for Active; 'I' for Inactive)
REMARK    1  A    between atoms: C_1  and  C_2
REMARK    2  A    between atoms: C_5  and  N_18
REMARK    3  A    between atoms: C_7  and  C_8
REMARK    4  A    between atoms: C_8  and  C_10
REMARK    5  A    between atoms: C_8  and  N_17
REMARK                            x       y       z     vdW  Elec       q    Type
REMARK                         _______ _______ _______ _____ _____    ______ ____
ROOT
ATOM      1  C   UNL     1       0.243   0.049   2.492  0.00  0.00    -0.013 C 
ENDROOT
BRANCH   1   8
ATOM      2  C   UNL     1      -0.310   0.883  -0.218  0.00  0.00    +0.044 C 
ATOM      3  C   UNL     1      -0.101  -0.577   0.093  0.00  0.00    -0.048 A 
ATOM      4  C   UNL     1      -0.167  -1.516  -0.919  0.00  0.00    +0.006 A 
ATOM      5  C   UNL     1       0.025  -2.854  -0.634  0.00  0.00    +0.033 A 
ATOM      6  C   UNL     1       0.285  -3.254   0.664  0.00  0.00    +0.126 A 
ATOM      7  C   UNL     1       0.353  -2.315   1.676  0.00  0.00    +0.035 A 
ATOM      8  C   UNL     1       0.164  -0.976   1.390  0.00  0.00    -0.053 A 
BRANCH   6   9
ATOM      9  N   UNL     1       0.490  -4.688   0.969  0.00  0.00    +0.056 N 
ATOM     10  O   UNL     1       0.431  -5.509   0.084  0.00  0.00    -0.126 OA
ATOM     11  O   UNL     1       0.718  -5.037   2.104  0.00  0.00    -0.126 OA
ENDBRANCH   6   9
ENDBRANCH   1   8
BRANCH   1  12
ATOM     12  C   UNL     1      -1.132   0.278   3.064  0.00  0.00    -0.058 A 
ATOM     13  C   UNL     1      -1.731  -0.699   3.837  0.00  0.00    +0.003 A 
ATOM     14  C   UNL     1      -2.993  -0.488   4.362  0.00  0.00    +0.014 A 
ATOM     15  C   UNL     1      -3.656   0.699   4.112  0.00  0.00    +0.013 A 
ATOM     16  C   UNL     1      -3.056   1.677   3.339  0.00  0.00    +0.014 A 
ATOM     17  C   UNL     1      -1.792   1.468   2.820  0.00  0.00    +0.003 A 
ATOM     18  I   UNL     1      -5.568   1.018   4.907  0.00  0.00    -0.044 I 
ENDBRANCH   1  12
BRANCH   1  19
ATOM     19  N   UNL     1       1.138  -0.439   3.550  0.00  0.00    +0.385 N 
ATOM     20  H   UNL     1       2.059  -0.593   3.168  0.00  0.00    -0.089 HD
ATOM     21  H   UNL     1       1.191   0.247   4.289  0.00  0.00    -0.089 HD
ATOM     22  H   UNL     1       0.779  -1.306   3.922  0.00  0.00    -0.089 HD
ENDBRANCH   1  19
TORSDOF 4
