REMARK  Name = ZINC43362764
REMARK  9 active torsions:
REMARK  status: ('A' for Active; 'I' for Inactive)
REMARK    1  A    between atoms: C_1  and  N_2
REMARK    2  A    between atoms: N_2  and  C_3
REMARK    3  A    between atoms: N_2  and  C_4
REMARK    4  A    between atoms: C_4  and  C_6
REMARK    5  A    between atoms: C_4  and  C_22
REMARK    6  A    between atoms: C_6  and  N_7
REMARK    7  A    between atoms: N_10  and  C_11
REMARK    8  A    between atoms: C_14  and  O_18
REMARK    9  A    between atoms: O_18  and  C_19
REMARK                            x       y       z     vdW  Elec       q    Type
REMARK                         _______ _______ _______ _____ _____    ______ ____
ROOT
ATOM      1  N   UNL     1      -0.408  -2.369   0.649  0.00  0.00    -0.300 N 
ATOM      2  C   UNL     1      -0.174  -3.695   0.699  0.00  0.00    +0.304 C 
ATOM      3  O   UNL     1      -0.588  -4.419  -0.185  0.00  0.00    -0.253 OA
ATOM      4  N   UNL     1       0.518  -4.218   1.730  0.00  0.00    -0.269 N 
ATOM      5  H   UNL     1      -0.078  -1.791   1.354  0.00  0.00    +0.150 HD
ATOM      6  H   UNL     1       0.774  -3.656   2.478  0.00  0.00    +0.156 HD
ENDROOT
BRANCH   4   7
ATOM      7  C   UNL     1       0.868  -5.576   1.722  0.00  0.00    +0.036 A 
ATOM      8  C   UNL     1       0.898  -6.292   2.911  0.00  0.00    +0.027 A 
ATOM      9  C   UNL     1       1.243  -7.629   2.904  0.00  0.00    +0.049 A 
ATOM     10  C   UNL     1       1.560  -8.257   1.708  0.00  0.00    +0.145 A 
ATOM     11  C   UNL     1       1.530  -7.542   0.519  0.00  0.00    +0.084 A 
ATOM     12  C   UNL     1       1.179  -6.205   0.525  0.00  0.00    +0.047 A 
ATOM     13 CL   UNL     1       1.927  -8.328  -0.977  0.00  0.00    -0.080 Cl
BRANCH  10  14
ATOM     14  O   UNL     1       1.901  -9.574   1.701  0.00  0.00    -0.433 OA
BRANCH  14  15
ATOM     15  C   UNL     1       1.912 -10.248   2.962  0.00  0.00    +0.541 C 
ATOM     16  F   UNL     1       2.830  -9.626   3.815  0.00  0.00    -0.166 F 
ATOM     17  F   UNL     1       0.635 -10.193   3.531  0.00  0.00    -0.166 F 
ENDBRANCH  14  15
ENDBRANCH  10  14
ENDBRANCH   4   7
BRANCH   1  18
ATOM     18  C   UNL     1      -1.160  -1.800  -0.472  0.00  0.00    +0.095 C 
BRANCH  18  19
ATOM     19  C   UNL     1      -1.392  -0.307  -0.226  0.00  0.00    -0.014 C 
BRANCH  19  20
ATOM     20  C   UNL     1      -2.204  -0.126   1.030  0.00  0.00    -0.022 A 
ATOM     21  C   UNL     1      -1.787   0.207   2.276  0.00  0.00    +0.009 A 
ATOM     22  C   UNL     1      -2.722   0.319   3.289  0.00  0.00    +0.008 A 
ATOM     23  C   UNL     1      -4.028   0.093   3.005  0.00  0.00    +0.045 A 
ATOM     24  S   UNL     1      -3.967  -0.285   1.262  0.00  0.00    -0.103 S 
ENDBRANCH  19  20
BRANCH  19  26
ATOM     25  C   UNL     1      -2.250   1.721  -1.176  0.00  0.00    -0.096 C 
ATOM     26  N   UNL     1      -2.116   0.271  -1.365  0.00  0.00    +0.382 N 
ATOM     27  C   UNL     1      -1.372   0.005  -2.604  0.00  0.00    -0.096 C 
ATOM     28  H   UNL     1      -3.033  -0.147  -1.428  0.00  0.00    -0.082 HD
ENDBRANCH  19  26
ENDBRANCH  18  19
ENDBRANCH   1  18
TORSDOF 7
