REMARK  Name = ZINC61368630
REMARK  7 active torsions:
REMARK  status: ('A' for Active; 'I' for Inactive)
REMARK    1  A    between atoms: C_1  and  C_2
REMARK    2  A    between atoms: C_2  and  C_4
REMARK    3  A    between atoms: C_2  and  N_9
REMARK    4  A    between atoms: N_9  and  S_10
REMARK    5  A    between atoms: S_10  and  C_13
REMARK    6  A    between atoms: C_18  and  N_19
REMARK    7  A    between atoms: N_19  and  N_20
REMARK                            x       y       z     vdW  Elec       q    Type
REMARK                         _______ _______ _______ _____ _____    ______ ____
ROOT
ATOM      1  S   UNL     1       2.352  -0.734  -1.192  0.00  0.00    +0.062 S 
ATOM      2  O   UNL     1       2.845  -1.062  -2.484  0.00  0.00    -0.153 OA
ATOM      3  O   UNL     1       2.818   0.391  -0.462  0.00  0.00    -0.153 OA
ENDROOT
BRANCH   1   4
ATOM      4  C   UNL     1       2.629  -2.146  -0.175  0.00  0.00    +0.147 A 
ATOM      5  C   UNL     1       3.236  -2.011   1.061  0.00  0.00    +0.048 A 
ATOM      6  C   UNL     1       3.435  -3.150   1.830  0.00  0.00    +0.038 A 
ATOM      7  C   UNL     1       3.025  -4.376   1.341  0.00  0.00    +0.128 A 
ATOM      8  N   UNL     1       2.449  -4.474   0.158  0.00  0.00    -0.236 NA
ATOM      9  C   UNL     1       2.236  -3.410  -0.601  0.00  0.00    +0.159 A 
ATOM     10 BR   UNL     1       4.260  -3.026   3.527  0.00  0.00    -0.049 Br
BRANCH   9  11
ATOM     11  N   UNL     1       1.619  -3.559  -1.838  0.00  0.00    -0.266 N 
ATOM     12  H   UNL     1       1.391  -2.777  -2.364  0.00  0.00    +0.167 HD
BRANCH  11  13
ATOM     13  N   UNL     1       1.335  -4.808  -2.314  0.00  0.00    -0.255 NA
ATOM     14  H   UNL     1       0.766  -5.323  -1.659  0.00  0.00    +0.140 HD
ATOM     15  H   UNL     1       0.891  -4.758  -3.218  0.00  0.00    +0.140 HD
ENDBRANCH  11  13
ENDBRANCH   9  11
ENDBRANCH   1   4
BRANCH   1  16
ATOM     16  N   UNL     1       0.712  -0.555  -1.344  0.00  0.00    -0.183 NA
ATOM     17  H   UNL     1       0.291  -0.656  -2.212  0.00  0.00    +0.149 HD
BRANCH  16  19
ATOM     18  C   UNL     1      -0.328   1.269  -0.089  0.00  0.00    +0.031 C 
ATOM     19  C   UNL     1      -0.102  -0.242  -0.166  0.00  0.00    +0.104 C 
BRANCH  19  20
ATOM     20  C   UNL     1      -1.431  -0.944  -0.274  0.00  0.00    -0.022 A 
ATOM     21  C   UNL     1      -2.014  -1.518   0.840  0.00  0.00    +0.013 A 
ATOM     22  C   UNL     1      -3.210  -2.142   0.708  0.00  0.00    +0.045 A 
ATOM     23  S   UNL     1      -3.549  -1.929  -1.032  0.00  0.00    -0.105 S 
ATOM     24  C   UNL     1      -2.075  -1.018  -1.465  0.00  0.00    +0.050 A 
ENDBRANCH  19  20
ENDBRANCH  16  19
ENDBRANCH   1  16
TORSDOF 6
