REMARK  Name = ZINC65337468
REMARK  3 active torsions:
REMARK  status: ('A' for Active; 'I' for Inactive)
REMARK    1  A    between atoms: C_1  and  C_2
REMARK    2  A    between atoms: C_7  and  N_8
REMARK    3  A    between atoms: N_11  and  C_12
REMARK                            x       y       z     vdW  Elec       q    Type
REMARK                         _______ _______ _______ _____ _____    ______ ____
ROOT
ATOM      1  C   UNL     1      -0.018   1.503   0.010  0.00  0.00    +0.047 C 
ATOM      2  C   UNL     1       0.002  -0.004   0.002  0.00  0.00    -0.001 A 
ATOM      3  C   UNL     1       0.006  -0.708  -1.196  0.00  0.00    +0.041 A 
ATOM      4  C   UNL     1       0.025  -2.089  -1.169  0.00  0.00    +0.128 A 
ATOM      5  N   UNL     1       0.039  -2.743  -0.023  0.00  0.00    -0.237 NA
ATOM      6  C   UNL     1       0.036  -2.108   1.139  0.00  0.00    +0.149 A 
ATOM      7  C   UNL     1       0.023  -0.718   1.187  0.00  0.00    +0.170 A 
ATOM      8  N   UNL     1       0.051  -2.837   2.323  0.00  0.00    -0.330 N 
ATOM      9  C   UNL     1       0.070  -4.302   2.280  0.00  0.00    +0.127 C 
ATOM     10 BR   UNL     1      -0.015   0.215  -2.846  0.00  0.00    -0.048 Br
ATOM     11  H   UNL     1       0.048  -2.377   3.176  0.00  0.00    +0.147 HD
ENDROOT
BRANCH   7  12
ATOM     12  N   UNL     1       0.026  -0.011   2.487  0.00  0.00    +0.060 N 
ATOM     13  O   UNL     1      -1.020   0.263   3.029  0.00  0.00    -0.126 OA
ATOM     14  O   UNL     1       1.074   0.291   3.009  0.00  0.00    -0.126 OA
ENDBRANCH   7  12
TORSDOF 1
