REMARK  Name = ZINC07138778
REMARK  8 active torsions:
REMARK  status: ('A' for Active; 'I' for Inactive)
REMARK    1  A    between atoms: C_1  and  C_2
REMARK    2  A    between atoms: C_6  and  O_9
REMARK    3  A    between atoms: C_7  and  C_8
REMARK    4  A    between atoms: O_9  and  C_10
REMARK    5  A    between atoms: C_10  and  C_12
REMARK    6  A    between atoms: C_10  and  C_13
REMARK    7  A    between atoms: N_15  and  N_16
REMARK    8  A    between atoms: C_17  and  C_19
REMARK                            x       y       z     vdW  Elec       q    Type
REMARK                         _______ _______ _______ _____ _____    ______ ____
ROOT
ATOM      1  C   UNL     1      -1.210   1.631   0.260  0.00  0.00    +0.270 C 
ATOM      2  O   UNL     1      -1.257   2.830   0.435  0.00  0.00    -0.270 OA
ATOM      3  N   UNL     1      -0.024   0.992   0.289  0.00  0.00    -0.231 N 
ATOM      4  H   UNL     1       0.013   0.032   0.150  0.00  0.00    +0.173 HD
ENDROOT
BRANCH   3   5
ATOM      5  N   UNL     1       1.155   1.713   0.515  0.00  0.00    -0.230 N 
ATOM      6  C   UNL     1       2.342   1.074   0.539  0.00  0.00    +0.262 C 
ATOM      7  O   UNL     1       2.389  -0.129   0.364  0.00  0.00    -0.269 OA
ATOM      8  H   UNL     1       1.118   2.672   0.655  0.00  0.00    +0.173 HD
BRANCH   6   9
ATOM      9  C   UNL     1       3.583   1.833   0.777  0.00  0.00    +0.054 A 
ATOM     10  C   UNL     1       3.535   3.233   0.982  0.00  0.00    +0.020 A 
ATOM     11  C   UNL     1       4.696   3.908   1.199  0.00  0.00    +0.071 A 
ATOM     12  C   UNL     1       5.914   3.204   1.216  0.00  0.00    +0.249 A 
ATOM     13  O   UNL     1       6.958   3.805   1.411  0.00  0.00    -0.268 OA
ATOM     14  N   UNL     1       5.937   1.873   1.020  0.00  0.00    -0.328 N 
ATOM     15  H   UNL     1       6.785   1.403   1.035  0.00  0.00    +0.168 HD
ATOM     16  C   UNL     1       4.801   1.183   0.808  0.00  0.00    +0.099 A 
ENDBRANCH   6   9
ENDBRANCH   3   5
BRANCH   1  17
ATOM     17  C   UNL     1      -2.478   0.856   0.011  0.00  0.00    +0.257 C 
ATOM     18  C   UNL     1      -2.720  -0.114   1.169  0.00  0.00    +0.062 C 
BRANCH  17  19
ATOM     19  O   UNL     1      -3.579   1.763  -0.089  0.00  0.00    -0.480 OA
BRANCH  19  25
ATOM     20  C   UNL     1      -7.955   2.735  -2.018  0.00  0.00    +0.044 C 
ATOM     21  C   UNL     1      -6.810   1.790  -1.760  0.00  0.00    -0.044 A 
ATOM     22  C   UNL     1      -6.859   0.496  -2.247  0.00  0.00    +0.004 A 
ATOM     23  C   UNL     1      -5.810  -0.373  -2.011  0.00  0.00    +0.004 A 
ATOM     24  C   UNL     1      -4.708   0.050  -1.294  0.00  0.00    +0.046 A 
ATOM     25  C   UNL     1      -4.659   1.346  -0.800  0.00  0.00    +0.125 A 
ATOM     26  C   UNL     1      -5.713   2.216  -1.037  0.00  0.00    -0.006 A 
ATOM     27  C   UNL     1      -5.660   3.626  -0.507  0.00  0.00    +0.048 C 
ENDBRANCH  19  25
ENDBRANCH  17  19
ENDBRANCH   1  17
TORSDOF 5
