REMARK  Name = ZINC38571585
REMARK  3 active torsions:
REMARK  status: ('A' for Active; 'I' for Inactive)
REMARK    1  A    between atoms: C_1  and  S_2
REMARK    2  A    between atoms: S_2  and  C_3
REMARK    3  A    between atoms: C_6  and  C_9
REMARK                            x       y       z     vdW  Elec       q    Type
REMARK                         _______ _______ _______ _____ _____    ______ ____
ROOT
ATOM      1  C   UNL     1       2.901  -1.397  -5.106  0.00  0.00    +0.074 C 
ATOM      2  C   UNL     1       4.153  -2.225  -4.780  0.00  0.00    +0.152 C 
ATOM      3  C   UNL     1       3.735  -3.639  -4.463  0.00  0.00    +0.116 C 
ATOM      4  N   UNL     1       4.016  -4.200  -3.324  0.00  0.00    -0.205 NA
ATOM      5  C   UNL     1       4.679  -3.557  -2.355  0.00  0.00    +0.206 C 
ATOM      6  N   UNL     1       5.083  -2.304  -2.495  0.00  0.00    -0.147 NA
ATOM      7  C   UNL     1       4.864  -1.621  -3.604  0.00  0.00    +0.250 C 
ATOM      8  O   UNL     1       5.253  -0.471  -3.672  0.00  0.00    -0.273 OA
ATOM      9  N   UNL     1       4.945  -4.213  -1.184  0.00  0.00    -0.329 N 
ATOM     10  N   UNL     1       3.031  -4.329  -5.420  0.00  0.00    -0.301 N 
ATOM     11  C   UNL     1       2.088  -3.584  -6.112  0.00  0.00    +0.048 C 
ATOM     12  C   UNL     1       2.000  -2.223  -5.994  0.00  0.00    +0.030 C 
ATOM     13  C   UNL     1       0.952  -1.743  -6.818  0.00  0.00    +0.192 C 
ATOM     14  O   UNL     1       0.612  -0.582  -6.947  0.00  0.00    -0.287 OA
ATOM     15  C   UNL     1       0.346  -2.911  -7.494  0.00  0.00    +0.031 A 
ATOM     16  C   UNL     1       1.061  -4.054  -7.047  0.00  0.00    +0.007 A 
ATOM     17  C   UNL     1       0.734  -5.322  -7.501  0.00  0.00    +0.010 A 
ATOM     18  C   UNL     1      -0.324  -5.415  -8.411  0.00  0.00    +0.001 A 
ATOM     19  C   UNL     1      -1.014  -4.307  -8.841  0.00  0.00    +0.001 A 
ATOM     20  C   UNL     1      -0.697  -3.018  -8.392  0.00  0.00    +0.012 A 
ATOM     21  H   UNL     1       4.655  -5.131  -1.066  0.00  0.00    +0.145 HD
ATOM     22  H   UNL     1       5.425  -3.761  -0.473  0.00  0.00    +0.145 HD
ATOM     23  H   UNL     1       3.183  -5.270  -5.599  0.00  0.00    +0.153 HD
ENDROOT
BRANCH   1  27
ATOM     24  C   UNL     1       0.848  -0.411  -1.489  0.00  0.00    +0.008 A 
ATOM     25  C   UNL     1       1.315   0.599  -2.322  0.00  0.00    +0.015 A 
ATOM     26  C   UNL     1       1.978   0.276  -3.490  0.00  0.00    +0.005 A 
ATOM     27  C   UNL     1       2.178  -1.049  -3.830  0.00  0.00    -0.039 A 
ATOM     28  C   UNL     1       1.714  -2.056  -3.004  0.00  0.00    +0.005 A 
ATOM     29  C   UNL     1       1.056  -1.742  -1.831  0.00  0.00    +0.015 A 
BRANCH  24  31
ATOM     30  C   UNL     1      -0.022   1.810   0.012  0.00  0.00    +0.090 C 
ATOM     31  S   UNL     1       0.002  -0.004   0.002  0.00  0.00    -0.129 S 
ENDBRANCH  24  31
ENDBRANCH   1  27
TORSDOF 2
