REMARK  Name = ZINC66243909
REMARK  4 active torsions:
REMARK  status: ('A' for Active; 'I' for Inactive)
REMARK    1  A    between atoms: C_3  and  C_6
REMARK    2  A    between atoms: C_6  and  N_7
REMARK    3  A    between atoms: N_10  and  C_11
REMARK    4  A    between atoms: C_11  and  C_12
REMARK                            x       y       z     vdW  Elec       q    Type
REMARK                         _______ _______ _______ _____ _____    ______ ____
ROOT
ATOM      1  N   UNL     1       4.101   0.607   1.347  0.00  0.00    -0.351 N 
ATOM      2  C   UNL     1       5.384   0.576   1.572  0.00  0.00    +0.169 C 
ATOM      3  N   UNL     1       6.267   0.560   0.518  0.00  0.00    -0.371 N 
ATOM      4  N   UNL     1       5.855   0.558   2.864  0.00  0.00    -0.354 N 
ATOM      5  H   UNL     1       5.935   0.573  -0.393  0.00  0.00    +0.159 HD
ATOM      6  H   UNL     1       7.222   0.537   0.686  0.00  0.00    +0.159 HD
ATOM      7  H   UNL     1       5.232   0.569   3.607  0.00  0.00    +0.163 HD
ATOM      8  H   UNL     1       3.478   0.617   2.090  0.00  0.00    +0.163 HD
ENDROOT
BRANCH   1   9
ATOM      9  C   UNL     1       3.599   0.625  -0.029  0.00  0.00    +0.190 C 
BRANCH   9  12
ATOM     10  C   UNL     1      -0.016   1.341   0.009  0.00  0.00    +0.041 A 
ATOM     11  C   UNL     1       1.331   1.769  -0.001  0.00  0.00    +0.046 A 
ATOM     12  C   UNL     1       2.092   0.660  -0.014  0.00  0.00    +0.124 A 
ATOM     13  O   UNL     1       1.282  -0.411  -0.012  0.00  0.00    -0.466 OA
ATOM     14  C   UNL     1       0.002  -0.004   0.002  0.00  0.00    +0.195 A 
ENDBRANCH   9  12
ENDBRANCH   1   9
BRANCH   4  15
ATOM     15  C   UNL     1       7.298   0.523   3.117  0.00  0.00    +0.152 C 
BRANCH  15  16
ATOM     16  C   UNL     1       7.546   0.510   4.603  0.00  0.00    -0.010 A 
ATOM     17  C   UNL     1       7.887   1.680   5.257  0.00  0.00    +0.008 A 
ATOM     18  C   UNL     1       8.116   1.668   6.620  0.00  0.00    +0.016 A 
ATOM     19  C   UNL     1       8.003   0.487   7.331  0.00  0.00    +0.019 A 
ATOM     20  C   UNL     1       7.662  -0.683   6.678  0.00  0.00    +0.035 A 
ATOM     21  C   UNL     1       7.428  -0.671   5.314  0.00  0.00    +0.047 A 
ATOM     22 CL   UNL     1       6.994  -2.138   4.494  0.00  0.00    -0.083 Cl
ATOM     23 BR   UNL     1       8.317   0.471   9.196  0.00  0.00    -0.050 Br
ENDBRANCH  15  16
ENDBRANCH   4  15
TORSDOF 4
