REMARK  Name = ZINC66556127
REMARK  8 active torsions:
REMARK  status: ('A' for Active; 'I' for Inactive)
REMARK    1  A    between atoms: C_1  and  C_2
REMARK    2  A    between atoms: C_2  and  C_24
REMARK    3  A    between atoms: N_5  and  C_9
REMARK    4  A    between atoms: C_9  and  C_10
REMARK    5  A    between atoms: N_12  and  N_13
REMARK    6  A    between atoms: C_14  and  C_16
REMARK    7  A    between atoms: C_16  and  C_17
REMARK    8  A    between atoms: C_17  and  C_18
REMARK                            x       y       z     vdW  Elec       q    Type
REMARK                         _______ _______ _______ _____ _____    ______ ____
ROOT
ATOM      1  C   UNL     1      -2.585  -3.391   1.260  0.00  0.00    +0.247 C 
ATOM      2  O   UNL     1      -1.707  -3.759   0.508  0.00  0.00    -0.273 OA
ATOM      3  N   UNL     1      -3.573  -4.239   1.608  0.00  0.00    -0.233 N 
ATOM      4  H   UNL     1      -4.275  -3.944   2.209  0.00  0.00    +0.173 HD
ENDROOT
BRANCH   3   5
ATOM      5  N   UNL     1      -3.587  -5.545   1.100  0.00  0.00    -0.234 N 
ATOM      6  C   UNL     1      -4.576  -6.392   1.448  0.00  0.00    +0.229 C 
ATOM      7  O   UNL     1      -5.453  -6.024   2.200  0.00  0.00    -0.274 OA
ATOM      8  H   UNL     1      -2.885  -5.839   0.499  0.00  0.00    +0.173 HD
BRANCH   6   9
ATOM      9  C   UNL     1      -4.591  -7.797   0.903  0.00  0.00    +0.097 C 
BRANCH   9  10
ATOM     10  C   UNL     1      -5.809  -8.543   1.450  0.00  0.00    +0.013 C 
BRANCH  10  11
ATOM     11  C   UNL     1      -5.825  -9.969   0.895  0.00  0.00    -0.011 C 
ATOM     12  C   UNL     1      -6.024  -9.925  -0.621  0.00  0.00    +0.003 C 
ATOM     13  C   UNL     1      -6.040 -11.351  -1.175  0.00  0.00    +0.000 C 
ATOM     14  C   UNL     1      -7.185 -12.136  -0.532  0.00  0.00    +0.000 C 
ATOM     15  C   UNL     1      -6.986 -12.180   0.984  0.00  0.00    +0.000 C 
ATOM     16  C   UNL     1      -6.971 -10.753   1.538  0.00  0.00    +0.003 C 
ENDBRANCH  10  11
ENDBRANCH   9  10
ENDBRANCH   6   9
ENDBRANCH   3   5
BRANCH   1  17
ATOM     17  C   UNL     1      -2.569  -1.986   1.805  0.00  0.00    +0.215 C 
BRANCH  17  22
ATOM     18  C   UNL     1      -0.019   1.526   0.010  0.00  0.00    +0.042 C 
ATOM     19  C   UNL     1       0.002  -0.004   0.002  0.00  0.00    +0.113 C 
ATOM     20  C   UNL     1      -1.403  -0.557   0.139  0.00  0.00    +0.247 C 
ATOM     21  O   UNL     1      -2.332  -0.392  -0.621  0.00  0.00    -0.273 OA
ATOM     22  N   UNL     1      -1.403  -1.272   1.282  0.00  0.00    -0.215 N 
ATOM     23  C   UNL     1      -0.206  -1.247   1.879  0.00  0.00    +0.310 C 
ATOM     24  O   UNL     1       0.040  -1.819   2.924  0.00  0.00    -0.252 OA
ATOM     25  N   UNL     1       0.695  -0.520   1.195  0.00  0.00    -0.285 N 
ATOM     26  H   UNL     1       1.621  -0.365   1.440  0.00  0.00    +0.151 HD
BRANCH  19  27
ATOM     27  C   UNL     1       0.667  -0.525  -1.274  0.00  0.00    +0.021 C 
ATOM     28  C   UNL     1       1.801  -1.539  -1.116  0.00  0.00    +0.006 C 
ATOM     29  C   UNL     1       2.113  -0.103  -1.540  0.00  0.00    +0.006 C 
ENDBRANCH  19  27
ENDBRANCH  17  22
ENDBRANCH   1  17
TORSDOF 7
