REMARK  Name = ZINC39438433
REMARK  7 active torsions:
REMARK  status: ('A' for Active; 'I' for Inactive)
REMARK    1  A    between atoms: C_1  and  C_2
REMARK    2  A    between atoms: C_5  and  C_7
REMARK    3  A    between atoms: C_7  and  N_8
REMARK    4  A    between atoms: C_13  and  C_16
REMARK    5  A    between atoms: C_18  and  O_24
REMARK    6  A    between atoms: C_19  and  O_23
REMARK    7  A    between atoms: O_24  and  C_25
REMARK                            x       y       z     vdW  Elec       q    Type
REMARK                         _______ _______ _______ _____ _____    ______ ____
ROOT
ATOM      1  N   UNL     1       1.983  -3.620  -1.407  0.00  0.00    -0.225 N 
ATOM      2  C   UNL     1       3.077  -3.124  -2.247  0.00  0.00    +0.212 C 
ATOM      3  C   UNL     1       3.313  -4.330  -3.156  0.00  0.00    +0.094 C 
ATOM      4  N   UNL     1       4.578  -4.438  -3.368  0.00  0.00    -0.260 NA
ATOM      5  C   UNL     1       5.314  -3.422  -2.597  0.00  0.00    +0.205 C 
ATOM      6  N   UNL     1       4.354  -2.933  -1.546  0.00  0.00    -0.267 NA
ATOM      7  C   UNL     1       1.968  -4.900  -3.263  0.00  0.00    +0.156 C 
ATOM      8  N   UNL     1       1.285  -4.537  -2.214  0.00  0.00    -0.188 NA
ATOM      9  H   UNL     1       4.504  -1.959  -1.328  0.00  0.00    +0.126 HD
ENDROOT
BRANCH   5  10
ATOM     10  C   UNL     1       6.533  -4.034  -1.957  0.00  0.00    -0.004 A 
ATOM     11  C   UNL     1       7.193  -5.075  -2.585  0.00  0.00    +0.056 A 
ATOM     12  C   UNL     1       8.314  -5.639  -1.999  0.00  0.00    +0.163 A 
ATOM     13  C   UNL     1       8.775  -5.157  -0.778  0.00  0.00    +0.177 A 
ATOM     14  C   UNL     1       8.110  -4.113  -0.153  0.00  0.00    +0.086 A 
ATOM     15  C   UNL     1       6.994  -3.550  -0.747  0.00  0.00    +0.031 A 
ATOM     16 CL   UNL     1       8.681  -3.508   1.370  0.00  0.00    -0.080 Cl
BRANCH  13  17
ATOM     17  O   UNL     1       9.875  -5.708  -0.198  0.00  0.00    -0.502 OA
ATOM     18  H   UNL     1      10.707  -5.287  -0.454  0.00  0.00    +0.292 HD
ENDBRANCH  13  17
BRANCH  12  19
ATOM     19  O   UNL     1       8.963  -6.663  -2.616  0.00  0.00    -0.491 OA
ATOM     20  C   UNL     1       8.433  -7.107  -3.866  0.00  0.00    +0.277 C 
ENDBRANCH  12  19
ENDBRANCH   5  10
BRANCH   1  21
ATOM     21  C   UNL     1       1.684  -3.245  -0.023  0.00  0.00    +0.202 C 
BRANCH  21  26
ATOM     22  C   UNL     1      -0.018   1.503   0.010  0.00  0.00    +0.086 C 
ATOM     23  C   UNL     1       0.002  -0.004   0.002  0.00  0.00    +0.102 A 
ATOM     24  C   UNL     1      -1.078  -0.805   0.003  0.00  0.00    +0.045 A 
ATOM     25  C   UNL     1      -0.601  -2.136  -0.007  0.00  0.00    +0.046 A 
ATOM     26  C   UNL     1       0.742  -2.069  -0.013  0.00  0.00    +0.124 A 
ATOM     27  O   UNL     1       1.102  -0.775  -0.013  0.00  0.00    -0.463 OA
ENDBRANCH  21  26
ENDBRANCH   1  21
TORSDOF 5
