REMARK  Name = ZINC37507745
REMARK  7 active torsions:
REMARK  status: ('A' for Active; 'I' for Inactive)
REMARK    1  A    between atoms: C_1  and  C_2
REMARK    2  A    between atoms: C_2  and  C_4
REMARK    3  A    between atoms: C_2  and  N_13
REMARK    4  A    between atoms: C_8  and  N_10
REMARK    5  A    between atoms: N_13  and  C_14
REMARK    6  A    between atoms: C_14  and  C_16
REMARK    7  A    between atoms: C_14  and  C_17
REMARK                            x       y       z     vdW  Elec       q    Type
REMARK                         _______ _______ _______ _____ _____    ______ ____
ROOT
ATOM      1  N   UNL     1       0.813  -0.491   1.126  0.00  0.00    +0.388 N 
ATOM      2  H   UNL     1       1.029  -1.475   1.064  0.00  0.00    -0.084 HD
ATOM      3  H   UNL     1       1.669   0.043   1.097  0.00  0.00    -0.084 HD
ENDROOT
BRANCH   1   5
ATOM      4  C   UNL     1      -0.244   1.411   0.003  0.00  0.00    -0.009 C 
ATOM      5  C   UNL     1      -0.044  -0.106  -0.003  0.00  0.00    -0.043 C 
BRANCH   5   6
ATOM      6  C   UNL     1       0.610  -0.522  -1.295  0.00  0.00    -0.059 A 
ATOM      7  C   UNL     1       1.976  -0.381  -1.455  0.00  0.00    +0.002 A 
ATOM      8  C   UNL     1       2.576  -0.762  -2.640  0.00  0.00    +0.002 A 
ATOM      9  C   UNL     1       1.810  -1.285  -3.666  0.00  0.00    +0.033 A 
ATOM     10  C   UNL     1       0.444  -1.426  -3.506  0.00  0.00    +0.126 A 
ATOM     11  C   UNL     1      -0.155  -1.048  -2.318  0.00  0.00    +0.034 A 
BRANCH  10  12
ATOM     12  N   UNL     1      -0.376  -1.985  -4.604  0.00  0.00    +0.056 N 
ATOM     13  O   UNL     1       0.149  -2.317  -5.641  0.00  0.00    -0.126 OA
ATOM     14  O   UNL     1      -1.571  -2.108  -4.464  0.00  0.00    -0.126 OA
ENDBRANCH  10  12
ENDBRANCH   5   6
ENDBRANCH   1   5
BRANCH   1  15
ATOM     15  C   UNL     1       0.111  -0.222   2.389  0.00  0.00    -0.043 C 
ATOM     16  C   UNL     1       1.052  -0.495   3.563  0.00  0.00    -0.009 C 
BRANCH  15  17
ATOM     17  C   UNL     1      -1.095  -1.119   2.493  0.00  0.00    -0.061 A 
ATOM     18  C   UNL     1      -1.015  -2.437   2.085  0.00  0.00    +0.002 A 
ATOM     19  C   UNL     1      -2.121  -3.260   2.180  0.00  0.00    +0.001 A 
ATOM     20  C   UNL     1      -3.309  -2.764   2.685  0.00  0.00    +0.015 A 
ATOM     21  C   UNL     1      -3.391  -1.446   3.094  0.00  0.00    +0.018 A 
ATOM     22  C   UNL     1      -2.281  -0.624   3.003  0.00  0.00    +0.017 A 
ATOM     23 BR   UNL     1      -5.016  -0.768   3.783  0.00  0.00    -0.050 Br
ENDBRANCH  15  17
ENDBRANCH   1  15
TORSDOF 5
