REMARK  Name = ZINC28060067
REMARK  6 active torsions:
REMARK  status: ('A' for Active; 'I' for Inactive)
REMARK    1  A    between atoms: C_1  and  C_2
REMARK    2  A    between atoms: C_10  and  C_13
REMARK    3  A    between atoms: C_16  and  C_19
REMARK    4  A    between atoms: C_19  and  C_20
REMARK    5  A    between atoms: C_19  and  C_21
REMARK    6  A    between atoms: C_22  and  C_30
REMARK                            x       y       z     vdW  Elec       q    Type
REMARK                         _______ _______ _______ _____ _____    ______ ____
ROOT
ATOM      1  C   UNL     1      -2.539  10.138   4.770  0.00  0.00    +0.044 C 
ATOM      2  C   UNL     1      -2.415   8.660   4.500  0.00  0.00    -0.050 A 
ATOM      3  C   UNL     1      -2.306   7.774   5.558  0.00  0.00    +0.007 A 
ATOM      4  C   UNL     1      -2.185   6.425   5.322  0.00  0.00    +0.046 A 
ATOM      5  C   UNL     1      -2.180   5.945   4.025  0.00  0.00    +0.131 A 
ATOM      6  C   UNL     1      -2.293   6.834   2.957  0.00  0.00    +0.038 A 
ATOM      7  C   UNL     1      -2.408   8.197   3.199  0.00  0.00    +0.016 A 
ATOM      8  C   UNL     1      -2.282   6.290   1.578  0.00  0.00    +0.050 C 
ATOM      9  C   UNL     1      -2.490   4.985   1.408  0.00  0.00    +0.025 C 
ATOM     10  C   UNL     1      -2.773   4.125   2.619  0.00  0.00    +0.234 C 
ATOM     11  O   UNL     1      -2.071   4.619   3.760  0.00  0.00    -0.479 OA
ATOM     12  C   UNL     1      -2.467   4.330   0.049  0.00  0.00    +0.175 C 
ATOM     13  N   UNL     1      -2.503   5.345  -0.994  0.00  0.00    -0.201 N 
ATOM     14  C   UNL     1      -2.295   6.669  -0.770  0.00  0.00    +0.240 A 
ATOM     15  N   UNL     1      -2.391   7.277  -1.917  0.00  0.00    -0.092 NA
ATOM     16  N   UNL     1      -2.652   6.428  -2.851  0.00  0.00    -0.021 NA
ATOM     17  N   UNL     1      -2.736   5.232  -2.364  0.00  0.00    -0.042 NA
ATOM     18  N   UNL     1      -2.043   7.154   0.503  0.00  0.00    -0.282 N 
ATOM     19  H   UNL     1      -1.669   8.172   0.688  0.00  0.00    +0.155 HD
ENDROOT
BRANCH  10  20
ATOM     20  C   UNL     1      -4.253   4.136   2.902  0.00  0.00    -0.003 A 
ATOM     21  C   UNL     1      -4.834   5.240   3.499  0.00  0.00    +0.008 A 
ATOM     22  C   UNL     1      -6.192   5.253   3.754  0.00  0.00    +0.004 A 
ATOM     23  C   UNL     1      -6.968   4.158   3.423  0.00  0.00    -0.045 A 
ATOM     24  C   UNL     1      -6.386   3.052   2.832  0.00  0.00    +0.004 A 
ATOM     25  C   UNL     1      -5.029   3.041   2.571  0.00  0.00    +0.008 A 
BRANCH  23  26
ATOM     26  C   UNL     1      -8.448   4.169   3.706  0.00  0.00    +0.013 C 
ATOM     27  C   UNL     1      -8.678   4.345   5.208  0.00  0.00    +0.012 C 
ATOM     28  C   UNL     1      -9.103   5.328   2.951  0.00  0.00    +0.012 C 
ENDBRANCH  23  26
ENDBRANCH  10  20
BRANCH  12  29
ATOM     29  C   UNL     1      -1.208   3.514  -0.091  0.00  0.00    -0.001 A 
ATOM     30  C   UNL     1      -1.279   2.148  -0.319  0.00  0.00    +0.009 A 
ATOM     31  C   UNL     1      -0.095   1.436  -0.436  0.00  0.00    +0.020 A 
ATOM     32  C   UNL     1       1.108   2.109  -0.334  0.00  0.00    +0.111 A 
ATOM     33  N   UNL     1       1.137   3.410  -0.122  0.00  0.00    -0.263 NA
ATOM     34  C   UNL     1       0.031   4.118  -0.000  0.00  0.00    +0.116 A 
ENDBRANCH  12  29
TORSDOF 3
