REMARK  Name = ZINC38971718
REMARK  5 active torsions:
REMARK  status: ('A' for Active; 'I' for Inactive)
REMARK    1  A    between atoms: C_2  and  C_3
REMARK    2  A    between atoms: C_3  and  N_4
REMARK    3  A    between atoms: N_4  and  C_5
REMARK    4  A    between atoms: N_8  and  S_9
REMARK    5  A    between atoms: S_9  and  C_12
REMARK                            x       y       z     vdW  Elec       q    Type
REMARK                         _______ _______ _______ _____ _____    ______ ____
ROOT
ATOM      1  C   UNL     1       2.638  -2.415   1.131  0.00  0.00    +0.218 C 
ATOM      2  C   UNL     1       3.200  -2.336   2.532  0.00  0.00    +0.167 C 
ATOM      3  N   UNL     1       3.438  -1.183   3.084  0.00  0.00    -0.112 NA
ATOM      4  N   UNL     1       3.448  -3.474   3.199  0.00  0.00    -0.338 N 
ATOM      5  C   UNL     1       3.216  -4.654   2.663  0.00  0.00    +0.064 A 
ATOM      6  C   UNL     1       3.491  -5.836   3.396  0.00  0.00    +0.028 A 
ATOM      7  C   UNL     1       3.254  -7.049   2.850  0.00  0.00    +0.002 A 
ATOM      8  C   UNL     1       2.735  -7.211   1.555  0.00  0.00    +0.002 A 
ATOM      9  C   UNL     1       2.438  -6.152   0.771  0.00  0.00    +0.027 A 
ATOM     10  C   UNL     1       2.666  -4.796   1.292  0.00  0.00    +0.060 A 
ATOM     11  N   UNL     1       2.391  -3.750   0.565  0.00  0.00    -0.362 N 
ATOM     12  H   UNL     1       2.031  -3.850  -0.331  0.00  0.00    +0.162 HD
ATOM     13  H   UNL     1       3.808  -3.427   4.099  0.00  0.00    +0.167 HD
ENDROOT
BRANCH   3  14
ATOM     14  S   UNL     1       4.053  -1.111   4.620  0.00  0.00    +0.102 S 
ATOM     15  O   UNL     1       3.049  -1.626   5.484  0.00  0.00    -0.146 OA
ATOM     16  O   UNL     1       5.361  -1.661   4.560  0.00  0.00    -0.146 OA
BRANCH  14  17
ATOM     17  C   UNL     1       4.241   0.593   5.026  0.00  0.00    +0.141 A 
ATOM     18  C   UNL     1       3.507   1.135   6.026  0.00  0.00    +0.031 A 
ATOM     19  C   UNL     1       3.630   2.479   6.375  0.00  0.00    +0.004 A 
ATOM     20  C   UNL     1       4.489   3.302   5.729  0.00  0.00    +0.031 A 
ATOM     21  C   UNL     1       5.293   2.803   4.669  0.00  0.00    +0.102 A 
ATOM     22  C   UNL     1       5.168   1.395   4.307  0.00  0.00    +0.127 A 
ATOM     23  N   UNL     1       5.973   1.038   3.305  0.00  0.00    -0.189 NA
ATOM     24  S   UNL     1       6.783   2.368   2.903  0.00  0.00    +0.117 S 
ATOM     25  N   UNL     1       6.186   3.458   3.925  0.00  0.00    -0.191 NA
ENDBRANCH  14  17
ENDBRANCH   3  14
BRANCH   1  26
ATOM     26  N   UNL     1       1.368  -1.678   1.115  0.00  0.00    -0.287 NA
ATOM     27  H   UNL     1       1.216  -1.199   1.990  0.00  0.00    +0.125 HD
BRANCH  26  28
ATOM     28  C   UNL     1       1.317  -0.740  -0.015  0.00  0.00    +0.110 C 
BRANCH  28  30
ATOM     29  C   UNL     1      -0.016   1.306   0.009  0.00  0.00    +0.005 C 
ATOM     30  C   UNL     1       0.002  -0.004   0.002  0.00  0.00    -0.019 C 
ENDBRANCH  28  30
ENDBRANCH  26  28
ENDBRANCH   1  26
TORSDOF 5
