REMARK  Name = ZINC40844503
REMARK  6 active torsions:
REMARK  status: ('A' for Active; 'I' for Inactive)
REMARK    1  A    between atoms: C_1  and  C_2
REMARK    2  A    between atoms: C_2  and  O_3
REMARK    3  A    between atoms: O_3  and  C_4
REMARK    4  A    between atoms: C_19  and  C_21
REMARK    5  A    between atoms: N_27  and  C_28
REMARK    6  A    between atoms: C_28  and  C_30
REMARK                            x       y       z     vdW  Elec       q    Type
REMARK                         _______ _______ _______ _____ _____    ______ ____
ROOT
ATOM      1  C   UNL     1       0.801  -1.813   1.304  0.00  0.00    +0.341 C 
ATOM      2  O   UNL     1       0.269  -2.637   0.379  0.00  0.00    -0.245 OA
ATOM      3  C   UNL     1       1.449  -2.332   2.387  0.00  0.00    +0.108 C 
ATOM      4  C   UNL     1       1.993  -1.475   3.346  0.00  0.00    +0.224 C 
ATOM      5  O   UNL     1       2.637  -1.961   4.420  0.00  0.00    -0.439 OA
ATOM      6  C   UNL     1       2.431  -3.242   4.818  0.00  0.00    +0.135 A 
ATOM      7  C   UNL     1       2.754  -3.591   6.138  0.00  0.00    +0.047 A 
ATOM      8  C   UNL     1       2.572  -4.855   6.599  0.00  0.00    +0.012 A 
ATOM      9  C   UNL     1       2.048  -5.839   5.743  0.00  0.00    -0.017 A 
ATOM     10  C   UNL     1       1.844  -7.158   6.184  0.00  0.00    +0.008 A 
ATOM     11  C   UNL     1       1.333  -8.083   5.326  0.00  0.00    +0.001 A 
ATOM     12  C   UNL     1       1.010  -7.743   4.013  0.00  0.00    +0.001 A 
ATOM     13  C   UNL     1       1.194  -6.476   3.552  0.00  0.00    +0.009 A 
ATOM     14  C   UNL     1       1.720  -5.493   4.410  0.00  0.00    -0.010 A 
ATOM     15  C   UNL     1       1.923  -4.175   3.962  0.00  0.00    +0.015 A 
ATOM     16  C   UNL     1       1.566  -3.822   2.544  0.00  0.00    +0.095 C 
ATOM     17  N   UNL     1       1.873  -0.156   3.193  0.00  0.00    -0.137 NA
ENDROOT
BRANCH  16  18
ATOM     18  C   UNL     1       2.642  -4.337   1.623  0.00  0.00    -0.035 A 
ATOM     19  C   UNL     1       3.942  -3.886   1.757  0.00  0.00    +0.004 A 
ATOM     20  C   UNL     1       4.928  -4.359   0.912  0.00  0.00    +0.000 A 
ATOM     21  C   UNL     1       4.615  -5.283  -0.068  0.00  0.00    +0.000 A 
ATOM     22  C   UNL     1       3.315  -5.735  -0.201  0.00  0.00    +0.000 A 
ATOM     23  C   UNL     1       2.330  -5.265   0.647  0.00  0.00    +0.004 A 
ENDBRANCH  16  18
BRANCH  17  24
ATOM     24  C   UNL     1       2.388   0.667   4.099  0.00  0.00    +0.343 C 
ATOM     25  O   UNL     1       2.969   0.218   5.069  0.00  0.00    -0.264 OA
BRANCH  24  26
ATOM     26  C   UNL     1       2.252   2.158   3.926  0.00  0.00    +0.472 C 
ATOM     27  F   UNL     1       2.869   2.811   5.000  0.00  0.00    -0.162 F 
ATOM     28  F   UNL     1       2.865   2.547   2.730  0.00  0.00    -0.162 F 
ATOM     29  F   UNL     1       0.896   2.502   3.889  0.00  0.00    -0.162 F 
ENDBRANCH  24  26
ENDBRANCH  17  24
BRANCH   1  30
ATOM     30  O   UNL     1       0.693  -0.477   1.160  0.00  0.00    -0.462 OA
BRANCH  30  32
ATOM     31  C   UNL     1      -0.019   1.526   0.010  0.00  0.00    +0.048 C 
ATOM     32  C   UNL     1       0.002  -0.004   0.002  0.00  0.00    +0.229 C 
ENDBRANCH  30  32
ENDBRANCH   1  30
TORSDOF 5
