REMARK  Name = ZINC12832922
REMARK  13 active torsions:
REMARK  status: ('A' for Active; 'I' for Inactive)
REMARK    1  A    between atoms: C_1  and  C_2
REMARK    2  A    between atoms: C_2  and  C_3
REMARK    3  A    between atoms: C_3  and  C_4
REMARK    4  A    between atoms: C_3  and  C_5
REMARK    5  A    between atoms: C_3  and  N_6
REMARK    6  A    between atoms: C_7  and  C_11
REMARK    7  A    between atoms: C_11  and  N_62
REMARK    8  A    between atoms: C_12  and  C_13
REMARK    9  A    between atoms: C_12  and  N_62
REMARK   10  A    between atoms: C_18  and  C_19
REMARK   11  A    between atoms: C_18  and  N_62
REMARK   12  A    between atoms: C_24  and  C_32
REMARK   13  A    between atoms: C_25  and  C_31
REMARK                            x       y       z     vdW  Elec       q    Type
REMARK                         _______ _______ _______ _____ _____    ______ ____
ROOT
ATOM      1  N   UNL     1       2.686   1.192  -1.737  0.00  0.00    +0.390 N 
ATOM      2  H   UNL     1       2.928   2.000  -2.324  0.00  0.00    -0.080 HD
ENDROOT
BRANCH   1   3
ATOM      3  C   UNL     1       3.916   0.425  -1.446  0.00  0.00    +0.001 C 
BRANCH   3   5
ATOM      4  N   UNL     1       5.929   1.982  -1.611  0.00  0.00    -0.226 N 
ATOM      5  C   UNL     1       4.961   1.367  -0.906  0.00  0.00    +0.136 A 
ATOM      6  N   UNL     1       5.106   1.743   0.341  0.00  0.00    -0.115 NA
ATOM      7  N   UNL     1       6.109   2.550   0.399  0.00  0.00    -0.023 NA
ATOM      8  N   UNL     1       6.606   2.700  -0.779  0.00  0.00    -0.043 NA
BRANCH   4   9
ATOM      9  C   UNL     1       6.167   1.862  -3.051  0.00  0.00    +0.061 C 
ATOM     10  C   UNL     1       6.611   0.434  -3.377  0.00  0.00    +0.036 C 
ATOM     11  C   UNL     1       4.877   2.181  -3.810  0.00  0.00    +0.036 C 
BRANCH   9  13
ATOM     12  C   UNL     1       7.511   2.719  -4.976  0.00  0.00    +0.006 C 
ATOM     13  C   UNL     1       7.262   2.845  -3.471  0.00  0.00    +0.026 C 
ENDBRANCH   9  13
ENDBRANCH   4   9
ENDBRANCH   3   5
ENDBRANCH   1   3
BRANCH   1  14
ATOM     14  C   UNL     1       2.084   1.678  -0.478  0.00  0.00    -0.035 C 
BRANCH  14  15
ATOM     15  C   UNL     1       1.073   2.746  -0.806  0.00  0.00    -0.027 A 
ATOM     16  C   UNL     1      -0.264   2.626  -0.997  0.00  0.00    +0.009 A 
ATOM     17  C   UNL     1      -1.002   3.756  -1.297  0.00  0.00    +0.008 A 
ATOM     18  C   UNL     1      -0.369   4.952  -1.380  0.00  0.00    +0.045 A 
ATOM     19  S   UNL     1       1.324   4.498  -1.041  0.00  0.00    -0.103 S 
ENDBRANCH  14  15
ENDBRANCH   1  14
BRANCH   1  20
ATOM     20  C   UNL     1       1.721   0.342  -2.465  0.00  0.00    -0.036 C 
BRANCH  20  21
ATOM     21  C   UNL     1       2.199   0.171  -3.883  0.00  0.00    +0.001 A 
ATOM     22  C   UNL     1       2.903  -0.935  -4.230  0.00  0.00    +0.017 A 
ATOM     23  C   UNL     1       3.350  -1.073  -5.617  0.00  0.00    -0.001 A 
ATOM     24  C   UNL     1       4.075  -2.194  -6.035  0.00  0.00    +0.010 A 
ATOM     25  C   UNL     1       4.482  -2.291  -7.336  0.00  0.00    +0.004 A 
ATOM     26  C   UNL     1       4.182  -1.287  -8.246  0.00  0.00    -0.046 A 
ATOM     27  C   UNL     1       3.469  -0.174  -7.857  0.00  0.00    -0.024 A 
ATOM     28  C   UNL     1       3.044  -0.054  -6.537  0.00  0.00    +0.052 A 
ATOM     29  N   UNL     1       2.328   1.048  -6.120  0.00  0.00    -0.322 N 
ATOM     30  H   UNL     1       2.118   1.750  -6.756  0.00  0.00    +0.169 HD
ATOM     31  C   UNL     1       1.918   1.165  -4.845  0.00  0.00    +0.251 A 
ATOM     32  O   UNL     1       1.287   2.153  -4.512  0.00  0.00    -0.268 OA
ATOM     33  C   UNL     1       3.149   0.907  -8.856  0.00  0.00    +0.046 C 
ATOM     34  C   UNL     1       4.641  -1.415  -9.676  0.00  0.00    +0.044 C 
ENDBRANCH  20  21
ENDBRANCH   1  20
TORSDOF 8
