REMARK  Name = ZINC03898650
REMARK  9 active torsions:
REMARK  status: ('A' for Active; 'I' for Inactive)
REMARK    1  A    between atoms: C_1  and  C_2
REMARK    2  A    between atoms: C_2  and  O_3
REMARK    3  A    between atoms: O_3  and  C_4
REMARK    4  A    between atoms: C_7  and  N_13
REMARK    5  A    between atoms: C_8  and  N_10
REMARK    6  A    between atoms: N_13  and  C_14
REMARK    7  A    between atoms: C_16  and  O_26
REMARK    8  A    between atoms: C_18  and  O_25
REMARK    9  A    between atoms: C_20  and  O_24
REMARK                            x       y       z     vdW  Elec       q    Type
REMARK                         _______ _______ _______ _____ _____    ______ ____
ROOT
ATOM      1  N   UNL     1      -0.654   1.537   1.254  0.00  0.00    -0.315 N 
ATOM      2  H   UNL     1      -0.439   2.406   1.627  0.00  0.00    +0.149 HD
ENDROOT
BRANCH   1   6
ATOM      3  C   UNL     1      -3.521  -0.868   3.090  0.00  0.00    +0.123 A 
ATOM      4  C   UNL     1      -2.774  -1.365   2.032  0.00  0.00    +0.047 A 
ATOM      5  C   UNL     1      -1.828  -0.567   1.419  0.00  0.00    +0.029 A 
ATOM      6  C   UNL     1      -1.616   0.730   1.870  0.00  0.00    +0.060 A 
ATOM      7  C   UNL     1      -2.364   1.226   2.929  0.00  0.00    +0.150 A 
ATOM      8  C   UNL     1      -3.314   0.428   3.537  0.00  0.00    +0.080 A 
BRANCH   7   9
ATOM      9  N   UNL     1      -2.144   2.610   3.407  0.00  0.00    +0.058 N 
ATOM     10  O   UNL     1      -2.712   3.006   4.409  0.00  0.00    -0.126 OA
ATOM     11  O   UNL     1      -1.393   3.352   2.799  0.00  0.00    -0.126 OA
ENDBRANCH   7   9
BRANCH   3  12
ATOM     12  O   UNL     1      -4.456  -1.652   3.689  0.00  0.00    -0.492 OA
BRANCH  12  14
ATOM     13  C   UNL     1      -5.705  -3.702   3.970  0.00  0.00    +0.048 C 
ATOM     14  C   UNL     1      -4.617  -2.977   3.177  0.00  0.00    +0.225 C 
ENDBRANCH  12  14
ENDBRANCH   3  12
ENDBRANCH   1   6
BRANCH   1  15
ATOM     15  C   UNL     1       0.029   1.070   0.045  0.00  0.00    +0.235 C 
ATOM     16  C   UNL     1       1.467   1.595   0.035  0.00  0.00    +0.192 C 
ATOM     17  C   UNL     1       2.155   1.152  -1.260  0.00  0.00    +0.178 C 
ATOM     18  C   UNL     1       1.343   1.659  -2.456  0.00  0.00    +0.171 C 
ATOM     19  C   UNL     1      -0.090   1.132  -2.350  0.00  0.00    +0.196 C 
ATOM     20  O   UNL     1      -0.661   1.554  -1.110  0.00  0.00    -0.354 OA
BRANCH  18  21
ATOM     21  O   UNL     1       1.328   3.088  -2.451  0.00  0.00    -0.387 OA
ATOM     22  H   UNL     1       0.830   3.479  -3.182  0.00  0.00    +0.210 HD
ENDBRANCH  18  21
BRANCH  17  23
ATOM     23  O   UNL     1       3.475   1.698  -1.310  0.00  0.00    -0.386 OA
ATOM     24  H   UNL     1       3.970   1.457  -2.106  0.00  0.00    +0.210 HD
ENDBRANCH  17  23
BRANCH  16  25
ATOM     25  O   UNL     1       2.176   1.066   1.157  0.00  0.00    -0.385 OA
ATOM     26  H   UNL     1       1.792   1.303   2.013  0.00  0.00    +0.210 HD
ENDBRANCH  16  25
ENDBRANCH   1  15
TORSDOF 8
