REMARK  Name = ZINC44956624
REMARK  5 active torsions:
REMARK  status: ('A' for Active; 'I' for Inactive)
REMARK    1  A    between atoms: C_1  and  N_2
REMARK    2  A    between atoms: C_4  and  C_7
REMARK    3  A    between atoms: C_9  and  C_12
REMARK    4  A    between atoms: N_14  and  N_15
REMARK    5  A    between atoms: C_16  and  C_18
REMARK                            x       y       z     vdW  Elec       q    Type
REMARK                         _______ _______ _______ _____ _____    ______ ____
ROOT
ATOM      1  C   UNL     1       0.078  -6.911  -1.823  0.00  0.00    +0.279 C 
ATOM      2  O   UNL     1       0.087  -7.742  -2.712  0.00  0.00    -0.267 OA
ATOM      3  N   UNL     1       0.083  -7.303  -0.534  0.00  0.00    -0.229 N 
ATOM      4  H   UNL     1       0.075  -6.641   0.175  0.00  0.00    +0.173 HD
ENDROOT
BRANCH   1   7
ATOM      5  C   UNL     1       0.040  -3.287  -1.538  0.00  0.00    +0.112 A 
ATOM      6  N   UNL     1       0.053  -4.562  -1.193  0.00  0.00    -0.234 NA
ATOM      7  C   UNL     1       0.062  -5.477  -2.156  0.00  0.00    +0.135 A 
ATOM      8  C   UNL     1       0.058  -5.068  -3.462  0.00  0.00    +0.080 A 
ATOM      9  S   UNL     1       0.032  -3.391  -3.319  0.00  0.00    -0.075 S 
BRANCH   5  13
ATOM     10  C   UNL     1      -0.018   1.461   0.010  0.00  0.00    +0.172 C 
ATOM     11  N   UNL     1       0.002  -0.004   0.002  0.00  0.00    -0.274 N 
ATOM     12  C   UNL     1       0.008  -0.787  -1.094  0.00  0.00    +0.118 A 
ATOM     13  C   UNL     1       0.027  -2.087  -0.673  0.00  0.00    +0.045 A 
ATOM     14  C   UNL     1       0.034  -2.075   0.738  0.00  0.00    +0.145 A 
ATOM     15  N   UNL     1       0.025  -0.830   1.132  0.00  0.00    -0.179 NA
ENDBRANCH   5  13
ENDBRANCH   1   7
BRANCH   3  16
ATOM     16  N   UNL     1       0.097  -8.668  -0.217  0.00  0.00    -0.229 N 
ATOM     17  C   UNL     1       0.102  -9.060   1.073  0.00  0.00    +0.276 C 
ATOM     18  O   UNL     1       0.093  -8.229   1.962  0.00  0.00    -0.267 OA
ATOM     19  H   UNL     1       0.105  -9.331  -0.925  0.00  0.00    +0.173 HD
BRANCH  17  20
ATOM     20  C   UNL     1       0.117 -10.489   1.404  0.00  0.00    +0.104 A 
ATOM     21  C   UNL     1       0.117 -11.031   2.672  0.00  0.00    +0.047 A 
ATOM     22  C   UNL     1       0.135 -12.422   2.524  0.00  0.00    +0.036 A 
ATOM     23  C   UNL     1       0.145 -12.699   1.198  0.00  0.00    +0.098 A 
ATOM     24  N   UNL     1       0.129 -11.533   0.507  0.00  0.00    -0.356 N 
ATOM     25  H   UNL     1       0.128 -11.447  -0.460  0.00  0.00    +0.166 HD
ATOM     26 BR   UNL     1       0.143 -13.691   3.927  0.00  0.00    -0.049 Br
ENDBRANCH  17  20
ENDBRANCH   3  16
TORSDOF 4
