REMARK  Name = ZINC67480704
REMARK  7 active torsions:
REMARK  status: ('A' for Active; 'I' for Inactive)
REMARK    1  A    between atoms: C_1  and  C_2
REMARK    2  A    between atoms: C_2  and  C_4
REMARK    3  A    between atoms: C_2  and  N_12
REMARK    4  A    between atoms: N_15  and  C_16
REMARK    5  A    between atoms: C_16  and  C_17
REMARK    6  A    between atoms: N_22  and  C_23
REMARK    7  A    between atoms: C_23  and  C_24
REMARK                            x       y       z     vdW  Elec       q    Type
REMARK                         _______ _______ _______ _____ _____    ______ ____
ROOT
ATOM      1  N   UNL     1       1.083  -0.712   0.883  0.00  0.00    -0.290 N 
ATOM      2  C   UNL     1       0.335  -0.766   2.003  0.00  0.00    +0.300 C 
ATOM      3  O   UNL     1      -0.843  -0.465   1.962  0.00  0.00    -0.253 OA
ATOM      4  N   UNL     1       0.891  -1.154   3.167  0.00  0.00    -0.301 N 
ATOM      5  H   UNL     1       2.022  -0.952   0.916  0.00  0.00    +0.151 HD
ATOM      6  H   UNL     1       1.831  -1.394   3.200  0.00  0.00    +0.150 HD
ENDROOT
BRANCH   1   8
ATOM      7  C   UNL     1       0.496   1.237  -0.473  0.00  0.00    +0.036 C 
ATOM      8  C   UNL     1       0.478  -0.290  -0.383  0.00  0.00    +0.139 C 
BRANCH   8   9
ATOM      9  C   UNL     1       1.262  -0.870  -1.532  0.00  0.00    +0.154 A 
ATOM     10  N   UNL     1       2.562  -0.899  -1.646  0.00  0.00    -0.132 NA
ATOM     11  N   UNL     1       2.886  -1.467  -2.753  0.00  0.00    -0.134 NA
ATOM     12  C   UNL     1       1.806  -1.825  -3.396  0.00  0.00    +0.134 A 
ATOM     13  N   UNL     1       0.748  -1.465  -2.637  0.00  0.00    -0.313 N 
ATOM     14  C   UNL     1      -0.517  -1.843  -3.279  0.00  0.00    +0.125 C 
ATOM     15  C   UNL     1      -0.166  -2.115  -4.758  0.00  0.00    +0.029 C 
ATOM     16  C   UNL     1       1.327  -2.492  -4.667  0.00  0.00    +0.078 C 
ENDBRANCH   8   9
ENDBRANCH   1   8
BRANCH   4  17
ATOM     17  C   UNL     1       0.078  -1.212   4.384  0.00  0.00    +0.090 C 
BRANCH  17  18
ATOM     18  C   UNL     1       0.945  -1.679   5.555  0.00  0.00    -0.051 C 
ATOM     19  C   UNL     1       0.065  -1.907   6.802  0.00  0.00    -0.016 C 
ATOM     20  C   UNL     1      -0.196  -3.436   6.772  0.00  0.00    -0.020 C 
ATOM     21  C   UNL     1       1.151  -3.972   6.225  0.00  0.00    -0.078 C 
ATOM     22  N   UNL     1       1.583  -2.967   5.226  0.00  0.00    +0.383 N 
ATOM     23  H   UNL     1       1.298  -3.260   4.303  0.00  0.00    -0.081 HD
BRANCH  22  24
ATOM     24  C   UNL     1       3.044  -2.820   5.267  0.00  0.00    -0.075 C 
BRANCH  24  25
ATOM     25  C   UNL     1       3.700  -4.117   4.789  0.00  0.00    -0.028 C 
ATOM     26  C   UNL     1       5.217  -4.015   4.964  0.00  0.00    +0.002 C 
ATOM     27  C   UNL     1       5.874  -5.311   4.486  0.00  0.00    +0.000 C 
ATOM     28  C   UNL     1       5.544  -5.536   3.009  0.00  0.00    +0.000 C 
ATOM     29  C   UNL     1       4.027  -5.638   2.835  0.00  0.00    +0.000 C 
ATOM     30  C   UNL     1       3.371  -4.341   3.312  0.00  0.00    +0.002 C 
ENDBRANCH  24  25
ENDBRANCH  22  24
ENDBRANCH  17  18
ENDBRANCH   4  17
TORSDOF 6
