REMARK  Name = ZINC08659761
REMARK  7 active torsions:
REMARK  status: ('A' for Active; 'I' for Inactive)
REMARK    1  A    between atoms: C_1  and  C_2
REMARK    2  A    between atoms: C_2  and  CA_3
REMARK    3  A    between atoms: CA_3  and  C_5
REMARK    4  A    between atoms: CA_3  and  N_7
REMARK    5  A    between atoms: C_5  and  O_6
REMARK    6  A    between atoms: C_19  and  C_22
REMARK    7  A    between atoms: C_19  and  C_23
REMARK                            x       y       z     vdW  Elec       q    Type
REMARK                         _______ _______ _______ _____ _____    ______ ____
ROOT
ATOM      1  N   UNL     1      -2.082  -0.162   1.273  0.00  0.00    -0.321 N 
ATOM      2  C   UNL     1      -1.921  -0.958   2.397  0.00  0.00    +0.166 A 
ATOM      3  C   UNL     1      -2.534  -0.615   3.607  0.00  0.00    +0.196 A 
ATOM      4  C   UNL     1      -2.332  -1.460   4.705  0.00  0.00    +0.123 A 
ATOM      5  C   UNL     1      -3.085  -0.854   5.814  0.00  0.00    +0.066 A 
ATOM      6  C   UNL     1      -3.296  -1.186   7.148  0.00  0.00    +0.023 A 
ATOM      7  C   UNL     1      -4.089  -0.350   7.918  0.00  0.00    +0.000 A 
ATOM      8  C   UNL     1      -4.639   0.780   7.345  0.00  0.00    +0.053 A 
ATOM      9  N   UNL     1      -4.422   1.070   6.073  0.00  0.00    -0.217 NA
ATOM     10  C   UNL     1      -3.676   0.307   5.289  0.00  0.00    +0.230 A 
ATOM     11  O   UNL     1      -3.327   0.408   3.988  0.00  0.00    -0.432 OA
ATOM     12  C   UNL     1      -5.500   1.720   8.155  0.00  0.00    +0.090 C 
ATOM     13  C   UNL     1      -5.974   1.019   9.429  0.00  0.00    +0.070 C 
ATOM     14  O   UNL     1      -4.841   0.422  10.069  0.00  0.00    -0.369 OA
ATOM     15  C   UNL     1      -4.328  -0.706   9.361  0.00  0.00    +0.197 C 
ATOM     16  C   UNL     1      -6.617   2.041  10.368  0.00  0.00    +0.041 C 
ATOM     17  C   UNL     1      -6.995  -0.063   9.070  0.00  0.00    +0.041 C 
ATOM     18  N   UNL     1      -1.575  -2.545   4.565  0.00  0.00    -0.231 NA
ATOM     19  C   UNL     1      -1.018  -2.827   3.406  0.00  0.00    +0.224 A 
ATOM     20  N   UNL     1      -1.185  -2.063   2.343  0.00  0.00    -0.217 NA
ATOM     21  H   UNL     1      -2.623   0.641   1.321  0.00  0.00    +0.148 HD
ENDROOT
BRANCH   1  22
ATOM     22  CA  UNL     1      -1.433  -0.534   0.013  0.00  0.00    +0.097 C 
BRANCH  22  24
ATOM     23  C   UNL     1      -3.605  -0.551  -1.222  0.00  0.00    +0.006 C 
ATOM     24  C   UNL     1      -2.209   0.072  -1.158  0.00  0.00    +0.021 C 
ENDBRANCH  22  24
BRANCH  22  25
ATOM     25  C   UNL     1       0.002  -0.004   0.002  0.00  0.00    +0.178 C 
BRANCH  25  26
ATOM     26  O   UNL     1      -0.017   1.425   0.010  0.00  0.00    -0.393 OA
ATOM     27  H   UNL     1       0.861   1.830   0.004  0.00  0.00    +0.209 HD
ENDBRANCH  25  26
ENDBRANCH  22  25
ENDBRANCH   1  22
TORSDOF 4
