REMARK  Name = ZINC66634764
REMARK  4 active torsions:
REMARK  status: ('A' for Active; 'I' for Inactive)
REMARK    1  A    between atoms: C_3  and  N_10
REMARK    2  A    between atoms: C_6  and  C_7
REMARK    3  A    between atoms: C_11  and  C_13
REMARK    4  A    between atoms: C_13  and  N_14
REMARK                            x       y       z     vdW  Elec       q    Type
REMARK                         _______ _______ _______ _____ _____    ______ ____
ROOT
ATOM      1  N   UNL     1       3.507   2.069  -1.270  0.00  0.00    -0.311 N 
ATOM      2  C   UNL     1       4.164   2.213  -2.438  0.00  0.00    +0.231 C 
ATOM      3  O   UNL     1       3.616   1.923  -3.481  0.00  0.00    -0.274 OA
ATOM      4  H   UNL     1       3.945   2.301  -0.436  0.00  0.00    +0.149 HD
ENDROOT
BRANCH   1   7
ATOM      5  C   UNL     1      -0.019   1.526   0.010  0.00  0.00    +0.014 C 
ATOM      6  C   UNL     1       1.417   2.055  -0.000  0.00  0.00    +0.023 C 
ATOM      7  C   UNL     1       2.133   1.562  -1.259  0.00  0.00    +0.073 C 
ATOM      8  C   UNL     1       2.154   0.032  -1.268  0.00  0.00    +0.023 C 
ATOM      9  C   UNL     1       0.718  -0.497  -1.257  0.00  0.00    +0.014 C 
ATOM     10  C   UNL     1       0.002  -0.004   0.002  0.00  0.00    +0.075 C 
BRANCH  10  11
ATOM     11  C   UNL     1      -1.412  -0.526   0.013  0.00  0.00    +0.214 C 
ATOM     12  O   UNL     1      -2.344   0.250   0.026  0.00  0.00    -0.276 OA
ATOM     13  N   UNL     1      -1.640  -1.854   0.008  0.00  0.00    -0.329 N 
ATOM     14  H   UNL     1      -0.894  -2.474  -0.003  0.00  0.00    +0.145 HD
ATOM     15  H   UNL     1      -2.550  -2.190   0.015  0.00  0.00    +0.145 HD
ENDBRANCH  10  11
ENDBRANCH   1   7
BRANCH   2  16
ATOM     16  C   UNL     1       5.577   2.735  -2.449  0.00  0.00    +0.212 C 
BRANCH  16  17
ATOM     17  N   UNL     1       6.064   2.798  -3.829  0.00  0.00    -0.233 N 
ATOM     18  C   UNL     1       6.708   1.760  -4.460  0.00  0.00    +0.227 C 
ATOM     19  O   UNL     1       6.724   0.592  -4.138  0.00  0.00    -0.275 OA
ATOM     20  C   UNL     1       7.386   2.399  -5.641  0.00  0.00    +0.095 C 
ATOM     21  C   UNL     1       7.469   1.714  -7.010  0.00  0.00    +0.025 C 
ATOM     22  C   UNL     1       7.676   3.067  -7.833  0.00  0.00    +0.016 C 
ATOM     23  C   UNL     1       6.257   3.641  -7.424  0.00  0.00    +0.025 C 
ATOM     24  C   UNL     1       6.159   3.351  -5.949  0.00  0.00    +0.095 C 
ATOM     25  C   UNL     1       5.922   3.909  -4.645  0.00  0.00    +0.227 C 
ATOM     26  O   UNL     1       5.665   5.054  -4.340  0.00  0.00    -0.275 OA
ATOM     27  C   UNL     1       5.419   2.422  -7.926  0.00  0.00    -0.027 C 
ATOM     28  C   UNL     1       6.118   1.332  -7.581  0.00  0.00    -0.027 C 
ENDBRANCH  16  17
ENDBRANCH   2  16
TORSDOF 4
