REMARK  Name = ZINC33595818
REMARK  14 active torsions:
REMARK  status: ('A' for Active; 'I' for Inactive)
REMARK    1  A    between atoms: C_1  and  C_2
REMARK    2  A    between atoms: C_2  and  C_3
REMARK    3  A    between atoms: C_3  and  C_5
REMARK    4  A    between atoms: C_3  and  C_11
REMARK    5  A    between atoms: N_13  and  C_14
REMARK    6  A    between atoms: N_13  and  C_21
REMARK    7  A    between atoms: C_14  and  C_15
REMARK    8  A    between atoms: C_15  and  C_16
REMARK    9  A    between atoms: C_16  and  C_17
REMARK   10  A    between atoms: C_17  and  C_18
REMARK   11  A    between atoms: C_18  and  C_19
REMARK   12  A    between atoms: C_19  and  N_20
REMARK   13  A    between atoms: C_21  and  C_23
REMARK   14  A    between atoms: C_21  and  C_24
REMARK                            x       y       z     vdW  Elec       q    Type
REMARK                         _______ _______ _______ _____ _____    ______ ____
ROOT
ATOM      1  C   UNL     1       0.149   1.720  -0.582  0.00  0.00    +0.224 C 
ATOM      2  O   UNL     1      -0.821   2.423  -0.767  0.00  0.00    -0.275 OA
ATOM      3  N   UNL     1      -0.011   0.411  -0.303  0.00  0.00    -0.291 N 
ENDROOT
BRANCH   3   4
ATOM      4  C   UNL     1      -1.356  -0.141  -0.123  0.00  0.00    +0.139 C 
ATOM      5  C   UNL     1      -2.190   0.130  -1.376  0.00  0.00    +0.036 C 
BRANCH   4   6
ATOM      6  C   UNL     1      -2.011   0.512   1.067  0.00  0.00    +0.131 A 
ATOM      7  N   UNL     1      -2.989  -0.157   1.702  0.00  0.00    -0.232 NA
ATOM      8  H   UNL     1      -0.788   2.188   0.872  0.00  0.00    +0.170 HD
ATOM      9  C   UNL     1      -3.621   0.397   2.798  0.00  0.00    +0.078 A 
ATOM     10  C   UNL     1      -4.639  -0.263   3.472  0.00  0.00    +0.028 A 
ATOM     11  C   UNL     1      -5.242   0.338   4.556  0.00  0.00    +0.002 A 
ATOM     12  C   UNL     1      -4.845   1.599   4.978  0.00  0.00    +0.001 A 
ATOM     13  C   UNL     1      -3.841   2.273   4.319  0.00  0.00    +0.015 A 
ATOM     14  C   UNL     1      -3.223   1.678   3.221  0.00  0.00    +0.065 A 
ATOM     15  C   UNL     1      -2.143   2.347   2.474  0.00  0.00    +0.259 A 
ATOM     16  O   UNL     1      -1.750   3.455   2.796  0.00  0.00    -0.267 OA
ATOM     17  N   UNL     1      -1.599   1.696   1.428  0.00  0.00    -0.309 N 
ENDBRANCH   4   6
ENDBRANCH   3   4
BRANCH   1  18
ATOM     18  C   UNL     1       1.534   2.311  -0.658  0.00  0.00    +0.105 C 
BRANCH  18  19
ATOM     19  C   UNL     1       1.700   3.343   0.427  0.00  0.00    -0.036 A 
ATOM     20  C   UNL     1       0.872   4.449   0.461  0.00  0.00    +0.004 A 
ATOM     21  C   UNL     1       1.021   5.394   1.459  0.00  0.00    +0.000 A 
ATOM     22  C   UNL     1       2.006   5.237   2.417  0.00  0.00    +0.000 A 
ATOM     23  C   UNL     1       2.837   4.134   2.380  0.00  0.00    +0.000 A 
ATOM     24  C   UNL     1       2.684   3.187   1.384  0.00  0.00    +0.004 A 
ENDBRANCH  18  19
BRANCH  18  26
ATOM     25  C   UNL     1       1.708   1.899  -3.117  0.00  0.00    +0.005 C 
ATOM     26  C   UNL     1       1.732   2.970  -2.025  0.00  0.00    +0.014 C 
ENDBRANCH  18  26
ENDBRANCH   1  18
BRANCH   3  27
ATOM     27  C   UNL     1       1.161  -0.460  -0.179  0.00  0.00    +0.108 C 
BRANCH  27  28
ATOM     28  C   UNL     1       1.706  -0.383   1.248  0.00  0.00    +0.019 C 
BRANCH  28  29
ATOM     29  C   UNL     1       2.929  -1.292   1.377  0.00  0.00    +0.001 C 
BRANCH  29  30
ATOM     30  C   UNL     1       3.474  -1.215   2.805  0.00  0.00    -0.002 C 
BRANCH  30  31
ATOM     31  C   UNL     1       4.697  -2.125   2.934  0.00  0.00    -0.020 C 
BRANCH  31  32
ATOM     32  C   UNL     1       5.242  -2.048   4.362  0.00  0.00    -0.086 C 
BRANCH  32  33
ATOM     33  N   UNL     1       6.416  -2.921   4.486  0.00  0.00    +0.378 N 
ATOM     34  H   UNL     1       6.808  -2.865   5.512  0.00  0.00    -0.090 HD
ATOM     35  H   UNL     1       7.193  -2.594   3.779  0.00  0.00    -0.090 HD
ATOM     36  H   UNL     1       6.128  -3.958   4.259  0.00  0.00    -0.090 HD
ENDBRANCH  32  33
ENDBRANCH  31  32
ENDBRANCH  30  31
ENDBRANCH  29  30
ENDBRANCH  28  29
ENDBRANCH  27  28
ENDBRANCH   3  27
TORSDOF 12
