REMARK  Name = ZINC40550488
REMARK  5 active torsions:
REMARK  status: ('A' for Active; 'I' for Inactive)
REMARK    1  A    between atoms: C_5  and  N_7
REMARK    2  A    between atoms: N_10  and  CA_11
REMARK    3  A    between atoms: CA_11  and  CB_13
REMARK    4  A    between atoms: CA_11  and  C_20
REMARK    5  A    between atoms: CB_13  and  CG_14
REMARK                            x       y       z     vdW  Elec       q    Type
REMARK                         _______ _______ _______ _____ _____    ______ ____
ROOT
ATOM      1  N   UNK A   0       1.237  -2.080  -0.021  0.00  0.00    -0.268 N 
ATOM      2  C   UNK A   0       0.086  -2.773   0.088  0.00  0.00    +0.305 C 
ATOM      3  O   UNK A   0      -0.978  -2.186   0.102  0.00  0.00    -0.252 OA
ATOM      4  N   HIS A   1       0.115  -4.117   0.182  0.00  0.00    -0.285 N 
ATOM      5  H   UNK A   0       2.079  -2.551  -0.115  0.00  0.00    +0.156 HD
ATOM      6  H   HIS A   1       0.964  -4.586   0.170  0.00  0.00    +0.151 HD
ENDROOT
BRANCH   1  11
ATOM      7  C   UNK A   0       0.154   1.371   0.643  0.00  0.00    +0.002 A 
ATOM      8  C   UNK A   0       1.174   2.086   0.042  0.00  0.00    +0.001 A 
ATOM      9  C   UNK A   0       2.214   1.422  -0.581  0.00  0.00    +0.017 A 
ATOM     10  C   UNK A   0       2.239   0.040  -0.604  0.00  0.00    +0.039 A 
ATOM     11  C   UNK A   0       1.216  -0.681  -0.000  0.00  0.00    +0.049 A 
ATOM     12  C   UNK A   0       0.172  -0.010   0.624  0.00  0.00    +0.024 A 
ATOM     13 BR   UNK A   0       3.662  -0.868  -1.456  0.00  0.00    -0.048 Br
ENDBRANCH   1  11
BRANCH   4  14
ATOM     14  CA  HIS A   1      -1.136  -4.870   0.300  0.00  0.00    +0.193 C 
BRANCH  14  15
ATOM     15  C   HIS A   1      -1.703  -5.123  -1.073  0.00  0.00    +0.376 C 
ATOM     16  O   HIS A   1      -1.035  -4.877  -2.063  0.00  0.00    -0.244 OA
ATOM     17  OXT HIS A   1      -2.829  -5.573  -1.194  0.00  0.00    -0.244 OA
ENDBRANCH  14  15
BRANCH  14  18
ATOM     18  CB  HIS A   1      -0.863  -6.207   0.993  0.00  0.00    +0.088 C 
BRANCH  18  19
ATOM     19  CG  HIS A   1      -0.412  -5.957   2.409  0.00  0.00    +0.035 A 
ATOM     20  CD2 HIS A   1       0.843  -5.688   2.816  0.00  0.00    +0.105 A 
ATOM     21  NE2 HIS A   1       0.823  -5.530   4.148  0.00  0.00    -0.352 N 
ATOM     22  HD1 HIS A   1      -2.157  -6.112   3.558  0.00  0.00    +0.166 HD
ATOM     23  CE1 HIS A   1      -0.398  -5.691   4.581  0.00  0.00    +0.171 A 
ATOM     24  ND1 HIS A   1      -1.200  -5.954   3.528  0.00  0.00    -0.350 N 
ATOM     25  HE2 HIS A   1       1.593  -5.328   4.701  0.00  0.00    +0.166 HD
ENDBRANCH  18  19
ENDBRANCH  14  18
ENDBRANCH   4  14
TORSDOF 5
