REMARK  Name = ZINC20406606
REMARK  4 active torsions:
REMARK  status: ('A' for Active; 'I' for Inactive)
REMARK    1  A    between atoms: C_1  and  C_2
REMARK    2  A    between atoms: C_9  and  N_20
REMARK    3  A    between atoms: C_10  and  C_18
REMARK    4  A    between atoms: C_15  and  C_17
REMARK                            x       y       z     vdW  Elec       q    Type
REMARK                         _______ _______ _______ _____ _____    ______ ____
ROOT
ATOM      1  C   UNL     1      -0.018   1.503   0.010  0.00  0.00    +0.068 C 
ATOM      2  C   UNL     1       0.002  -0.004   0.002  0.00  0.00    +0.068 A 
ATOM      3  C   UNL     1       0.008  -0.812  -1.126  0.00  0.00    +0.050 A 
ATOM      4  C   UNL     1       0.029  -2.118  -0.711  0.00  0.00    +0.223 A 
ATOM      5  N   UNL     1       0.034  -2.116   0.631  0.00  0.00    -0.246 N 
ATOM      6  H   UNL     1       0.046  -2.899   1.203  0.00  0.00    +0.192 HD
ATOM      7  N   UNL     1       0.023  -0.779   1.060  0.00  0.00    -0.176 NA
ATOM      8  O   UNL     1       0.040  -3.158  -1.580  0.00  0.00    -0.423 OA
ATOM      9  C   UNL     1       0.302  -2.899  -2.877  0.00  0.00    +0.200 C 
ATOM     10  C   UNL     1       0.298  -1.653  -3.408  0.00  0.00    +0.099 C 
ATOM     11  C   UNL     1      -0.004  -0.438  -2.579  0.00  0.00    +0.070 C 
ATOM     12  C   UNL     1       1.025   0.675  -2.858  0.00  0.00    +0.048 C 
ATOM     13  C   UNL     1       0.258   1.577  -3.861  0.00  0.00    +0.161 C 
ATOM     14  O   UNL     1      -1.107   1.523  -3.390  0.00  0.00    -0.376 OA
ATOM     15  C   UNL     1      -1.357   0.167  -2.977  0.00  0.00    +0.131 C 
ATOM     16  C   UNL     1      -2.306   0.155  -1.777  0.00  0.00    +0.039 C 
ENDROOT
BRANCH   9  17
ATOM     17  N   UNL     1       0.589  -3.956  -3.705  0.00  0.00    -0.328 N 
ATOM     18  H   UNL     1       0.598  -4.860  -3.352  0.00  0.00    +0.145 HD
ATOM     19  H   UNL     1       0.781  -3.800  -4.643  0.00  0.00    +0.145 HD
ENDBRANCH   9  17
BRANCH  10  20
ATOM     20  C   UNL     1       0.592  -1.489  -4.800  0.00  0.00    +0.101 C 
ATOM     21  N   UNL     1       0.826  -1.359  -5.904  0.00  0.00    -0.191 NA
ENDBRANCH  10  20
TORSDOF 2
