REMARK  Name = ZINC05190361
REMARK  2 active torsions:
REMARK  status: ('A' for Active; 'I' for Inactive)
REMARK    1  A    between atoms: C_1  and  C_2
REMARK    2  A    between atoms: C_12  and  O_14
REMARK                            x       y       z     vdW  Elec       q    Type
REMARK                         _______ _______ _______ _____ _____    ______ ____
ROOT
ATOM      1  C   UNL     1      -0.019   1.526   0.010  0.00  0.00    +0.021 C 
ATOM      2  C   UNL     1       0.002  -0.004   0.002  0.00  0.00    +0.067 C 
ATOM      3  C   UNL     1      -1.426  -0.581   0.102  0.00  0.00    +0.116 C 
ATOM      4  N   UNL     1      -1.587  -1.367   1.308  0.00  0.00    -0.337 N 
ATOM      5  C   UNL     1      -0.558  -1.512   2.164  0.00  0.00    +0.069 C 
ATOM      6  C   UNL     1      -0.575  -2.249   3.375  0.00  0.00    +0.006 C 
ATOM      7  C   UNL     1      -1.744  -2.920   3.772  0.00  0.00    +0.014 C 
ATOM      8  C   UNL     1      -1.762  -3.628   4.935  0.00  0.00    +0.055 C 
ATOM      9  C   UNL     1      -0.614  -3.690   5.738  0.00  0.00    +0.220 C 
ATOM     10  O   UNL     1      -0.633  -4.385   6.877  0.00  0.00    -0.284 OA
ATOM     11  C   UNL     1       0.559  -3.020   5.343  0.00  0.00    +0.164 C 
ATOM     12  C   UNL     1       0.580  -2.315   4.176  0.00  0.00    +0.059 C 
ATOM     13  S   UNL     1       0.750  -0.665   1.542  0.00  0.00    -0.105 S 
ATOM     14  H   UNL     1      -2.439  -1.791   1.499  0.00  0.00    +0.147 HD
ENDROOT
BRANCH  11  15
ATOM     15  O   UNL     1       1.673  -3.080   6.122  0.00  0.00    -0.503 OA
ATOM     16  H   UNL     1       1.563  -3.605   6.926  0.00  0.00    +0.292 HD
ENDBRANCH  11  15
TORSDOF 1
