REMARK  Name = ZINC39665329
REMARK  12 active torsions:
REMARK  status: ('A' for Active; 'I' for Inactive)
REMARK    1  A    between atoms: C_1  and  C_2
REMARK    2  A    between atoms: C_4  and  C_11
REMARK    3  A    between atoms: N_5  and  C_7
REMARK    4  A    between atoms: C_7  and  C_8
REMARK    5  A    between atoms: C_7  and  C_9
REMARK    6  A    between atoms: C_7  and  C_10
REMARK    7  A    between atoms: C_15  and  C_24
REMARK    8  A    between atoms: N_26  and  C_27
REMARK    9  A    between atoms: C_27  and  C_28
REMARK   10  A    between atoms: C_28  and  C_30
REMARK   11  A    between atoms: C_28  and  O_31
REMARK   12  A    between atoms: O_31  and  C_32
REMARK                            x       y       z     vdW  Elec       q    Type
REMARK                         _______ _______ _______ _____ _____    ______ ____
ROOT
ATOM      1  C   UNL     1      -0.640  -3.481  -1.716  0.00  0.00    +0.265 C 
ATOM      2  O   UNL     1      -0.955  -3.432  -2.890  0.00  0.00    -0.268 OA
ATOM      3  N   UNL     1      -0.665  -4.659  -1.061  0.00  0.00    -0.295 N 
ATOM      4  C   UNL     1      -0.447  -4.899   0.385  0.00  0.00    +0.121 C 
ATOM      5  C   UNL     1      -1.476  -5.990   0.759  0.00  0.00    +0.100 C 
ATOM      6  C   UNL     1      -1.777  -6.715  -0.563  0.00  0.00    -0.004 C 
ATOM      7  C   UNL     1      -0.921  -6.007  -1.623  0.00  0.00    +0.115 C 
ATOM      8  C   UNL     1      -3.256  -6.582  -0.914  0.00  0.00    -0.010 C 
ATOM      9  C   UNL     1      -3.542  -7.359  -2.202  0.00  0.00    -0.082 C 
ATOM     10  N   UNL     1      -3.187  -8.771  -2.013  0.00  0.00    +0.379 N 
ATOM     11  C   UNL     1      -1.746  -8.897  -1.768  0.00  0.00    -0.082 C 
ATOM     12  C   UNL     1      -1.384  -8.185  -0.462  0.00  0.00    -0.010 C 
ATOM     13  H   UNL     1      -3.695  -9.141  -1.224  0.00  0.00    -0.086 HD
ATOM     14  H   UNL     1      -3.433  -9.292  -2.842  0.00  0.00    -0.086 HD
ENDROOT
BRANCH   1  18
ATOM     15  C   UNL     1       1.087  -0.187   1.731  0.00  0.00    +0.067 C 
ATOM     16  C   UNL     1       0.517  -0.806   0.481  0.00  0.00    +0.061 A 
ATOM     17  C   UNL     1       0.295  -2.168   0.265  0.00  0.00    +0.057 A 
ATOM     18  C   UNL     1      -0.233  -2.256  -1.011  0.00  0.00    +0.124 A 
ATOM     19  N   UNL     1      -0.301  -0.976  -1.485  0.00  0.00    -0.254 N 
ATOM     20  N   UNL     1       0.137  -0.162  -0.593  0.00  0.00    -0.175 NA
BRANCH  19  21
ATOM     21  C   UNL     1      -0.802  -0.591  -2.807  0.00  0.00    +0.056 C 
ATOM     22  C   UNL     1      -2.217  -1.141  -2.996  0.00  0.00    +0.036 C 
ATOM     23  C   UNL     1      -0.829   0.935  -2.917  0.00  0.00    +0.036 C 
ATOM     24  C   UNL     1       0.117  -1.165  -3.887  0.00  0.00    +0.036 C 
ENDBRANCH  19  21
ENDBRANCH   1  18
BRANCH   5  25
ATOM     25  C   UNL     1      -2.729  -5.362   1.313  0.00  0.00    +0.218 C 
ATOM     26  O   UNL     1      -3.102  -4.285   0.899  0.00  0.00    -0.275 OA
ATOM     27  N   UNL     1      -3.435  -5.997   2.269  0.00  0.00    -0.312 N 
ATOM     28  H   UNL     1      -3.100  -6.823   2.651  0.00  0.00    +0.149 HD
BRANCH  27  29
ATOM     29  C   UNL     1      -4.710  -5.441   2.729  0.00  0.00    +0.148 C 
BRANCH  29  30
ATOM     30  C   UNL     1      -5.302  -6.349   3.809  0.00  0.00    +0.187 C 
ATOM     31  C   UNL     1      -6.633  -5.769   4.290  0.00  0.00    +0.053 C 
BRANCH  30  32
ATOM     32  O   UNL     1      -5.520  -7.654   3.267  0.00  0.00    -0.488 OA
BRANCH  32  33
ATOM     33  C   UNL     1      -5.535  -8.691   4.145  0.00  0.00    +0.121 A 
ATOM     34  C   UNL     1      -5.623  -9.995   3.678  0.00  0.00    +0.045 A 
ATOM     35  C   UNL     1      -5.638 -11.048   4.572  0.00  0.00    +0.004 A 
ATOM     36  C   UNL     1      -5.565 -10.804   5.931  0.00  0.00    +0.000 A 
ATOM     37  C   UNL     1      -5.477  -9.506   6.399  0.00  0.00    +0.004 A 
ATOM     38  C   UNL     1      -5.456  -8.449   5.509  0.00  0.00    +0.045 A 
ENDBRANCH  32  33
ENDBRANCH  30  32
ENDBRANCH  29  30
ENDBRANCH  27  29
ENDBRANCH   5  25
TORSDOF 7
