REMARK  Name = ZINC12567352
REMARK  8 active torsions:
REMARK  status: ('A' for Active; 'I' for Inactive)
REMARK    1  A    between atoms: C_1  and  C_2
REMARK    2  A    between atoms: C_2  and  C_4
REMARK    3  A    between atoms: C_2  and  O_14
REMARK    4  A    between atoms: N_6  and  C_7
REMARK    5  A    between atoms: C_8  and  C_12
REMARK    6  A    between atoms: O_14  and  C_15
REMARK    7  A    between atoms: C_15  and  C_17
REMARK    8  A    between atoms: C_22  and  N_23
REMARK                            x       y       z     vdW  Elec       q    Type
REMARK                         _______ _______ _______ _____ _____    ______ ____
ROOT
ATOM      1  C   UNL     1       4.989  -3.454  -1.311  0.00  0.00    +0.062 C 
ATOM      2  C   UNL     1       4.630  -3.066   0.125  0.00  0.00    +0.259 C 
ENDROOT
BRANCH   2   3
ATOM      3  C   UNL     1       4.435  -4.313   0.949  0.00  0.00    +0.258 C 
ATOM      4  O   UNL     1       3.342  -4.571   1.407  0.00  0.00    -0.271 OA
ATOM      5  N   UNL     1       5.474  -5.141   1.176  0.00  0.00    -0.276 N 
ATOM      6  H   UNL     1       6.348  -4.934   0.809  0.00  0.00    +0.155 HD
BRANCH   5   7
ATOM      7  C   UNL     1       5.293  -6.289   1.934  0.00  0.00    +0.089 A 
ATOM      8  C   UNL     1       6.230  -7.258   2.269  0.00  0.00    +0.080 A 
ATOM      9  C   UNL     1       5.767  -8.357   3.081  0.00  0.00    +0.028 A 
ATOM     10  C   UNL     1       4.468  -8.354   3.434  0.00  0.00    +0.048 A 
ATOM     11  S   UNL     1       3.843  -6.864   2.686  0.00  0.00    -0.081 S 
BRANCH   8  12
ATOM     12  C   UNL     1       7.592  -7.168   1.834  0.00  0.00    +0.102 C 
ATOM     13  N   UNL     1       8.671  -7.096   1.488  0.00  0.00    -0.191 NA
ENDBRANCH   8  12
ENDBRANCH   5   7
ENDBRANCH   2   3
BRANCH   2  14
ATOM     14  O   UNL     1       3.404  -2.289   0.124  0.00  0.00    -0.449 OA
BRANCH  14  15
ATOM     15  C   UNL     1       3.527  -0.951   0.010  0.00  0.00    +0.342 C 
ATOM     16  O   UNL     1       4.630  -0.449  -0.086  0.00  0.00    -0.245 OA
BRANCH  15  17
ATOM     17  C   UNL     1       2.326  -0.099   0.003  0.00  0.00    +0.081 A 
ATOM     18  C   UNL     1       1.053  -0.677  -0.011  0.00  0.00    +0.017 A 
ATOM     19  C   UNL     1      -0.066   0.124  -0.019  0.00  0.00    +0.002 A 
ATOM     20  C   UNL     1       0.061   1.505  -0.013  0.00  0.00    +0.022 A 
ATOM     21  C   UNL     1       1.310   2.092   0.001  0.00  0.00    +0.062 A 
ATOM     22  C   UNL     1       2.452   1.299   0.009  0.00  0.00    +0.057 A 
ATOM     23 CL   UNL     1       1.455   3.822   0.008  0.00  0.00    -0.082 Cl
BRANCH  22  24
ATOM     24  N   UNL     1       3.710   1.887   0.023  0.00  0.00    -0.356 N 
ATOM     25  H   UNL     1       4.504   1.335  -0.053  0.00  0.00    +0.142 HD
ATOM     26  H   UNL     1       3.795   2.849   0.109  0.00  0.00    +0.142 HD
ENDBRANCH  22  24
ENDBRANCH  15  17
ENDBRANCH  14  15
ENDBRANCH   2  14
TORSDOF 7
