REMARK  Name = ZINC60241808
REMARK  7 active torsions:
REMARK  status: ('A' for Active; 'I' for Inactive)
REMARK    1  A    between atoms: C_1  and  C_2
REMARK    2  A    between atoms: C_8  and  C_10
REMARK    3  A    between atoms: C_10  and  C_12
REMARK    4  A    between atoms: C_10  and  S_13
REMARK    5  A    between atoms: S_13  and  C_14
REMARK    6  A    between atoms: C_14  and  C_15
REMARK    7  A    between atoms: C_25  and  C_27
REMARK                            x       y       z     vdW  Elec       q    Type
REMARK                         _______ _______ _______ _____ _____    ______ ____
ROOT
ATOM      1  C   UNL     1      -7.501  -5.378  -1.371  0.00  0.00    +0.230 C 
ATOM      2  O   UNL     1      -7.865  -4.270  -1.704  0.00  0.00    -0.274 OA
ATOM      3  N   UNL     1      -8.328  -6.432  -1.521  0.00  0.00    -0.258 N 
ATOM      4  C   UNL     1      -8.019  -7.749  -1.168  0.00  0.00    +0.040 A 
ATOM      5  C   UNL     1      -6.849  -8.264  -0.608  0.00  0.00    +0.024 A 
ATOM      6  C   UNL     1      -6.744  -9.611  -0.332  0.00  0.00    +0.002 A 
ATOM      7  C   UNL     1      -7.799 -10.462  -0.608  0.00  0.00    +0.000 A 
ATOM      8  C   UNL     1      -8.961  -9.959  -1.163  0.00  0.00    +0.005 A 
ATOM      9  C   UNL     1      -9.070  -8.610  -1.441  0.00  0.00    -0.024 A 
ATOM     10  C   UNL     1     -10.206  -7.809  -2.037  0.00  0.00    +0.069 C 
ATOM     11  C   UNL     1      -9.684  -6.364  -2.072  0.00  0.00    +0.171 C 
ENDROOT
BRANCH  11  12
ATOM     12  C   UNL     1     -10.550  -5.471  -1.221  0.00  0.00    +0.232 C 
ATOM     13  O   UNL     1     -10.085  -4.934  -0.238  0.00  0.00    -0.274 OA
ATOM     14  N   UNL     1     -11.841  -5.270  -1.552  0.00  0.00    -0.328 N 
ATOM     15  H   UNL     1     -12.213  -5.700  -2.338  0.00  0.00    +0.145 HD
ATOM     16  H   UNL     1     -12.399  -4.696  -1.004  0.00  0.00    +0.145 HD
ENDBRANCH  11  12
BRANCH   1  17
ATOM     17  C   UNL     1      -6.125  -5.576  -0.790  0.00  0.00    +0.166 C 
BRANCH  17  18
ATOM     18  S   UNL     1      -5.263  -3.982  -0.718  0.00  0.00    -0.139 S 
BRANCH  18  19
ATOM     19  C   UNL     1      -3.646  -4.389  -0.006  0.00  0.00    +0.130 C 
ATOM     20  C   UNL     1      -3.831  -4.886   1.429  0.00  0.00    +0.029 C 
BRANCH  19  28
ATOM     21  C   UNL     1      -0.018   1.503   0.010  0.00  0.00    +0.089 C 
ATOM     22  C   UNL     1       0.002  -0.004   0.002  0.00  0.00    +0.136 A 
ATOM     23  C   UNL     1      -1.076  -0.808   0.003  0.00  0.00    +0.091 A 
ATOM     24  C   UNL     1      -0.625  -2.147  -0.007  0.00  0.00    +0.168 A 
ATOM     25  N   UNL     1       0.683  -2.130  -0.013  0.00  0.00    -0.063 NA
ATOM     26  O   UNL     1       1.100  -0.776  -0.013  0.00  0.00    -0.358 OA
ATOM     27  N   UNL     1      -1.432  -3.285  -0.010  0.00  0.00    -0.267 N 
ATOM     28  C   UNL     1      -2.774  -3.159  -0.003  0.00  0.00    +0.231 C 
ATOM     29  O   UNL     1      -3.280  -2.057   0.006  0.00  0.00    -0.274 OA
ATOM     30  H   UNL     1      -1.027  -4.166  -0.017  0.00  0.00    +0.156 HD
ENDBRANCH  19  28
ENDBRANCH  18  19
ENDBRANCH  17  18
ENDBRANCH   1  17
TORSDOF 5
