REMARK  Name = ZINC36278014
REMARK  5 active torsions:
REMARK  status: ('A' for Active; 'I' for Inactive)
REMARK    1  A    between atoms: C_1  and  C_2
REMARK    2  A    between atoms: C_2  and  C_3
REMARK    3  A    between atoms: C_2  and  C_4
REMARK    4  A    between atoms: C_2  and  N_6
REMARK    5  A    between atoms: C_4  and  O_5
REMARK                            x       y       z     vdW  Elec       q    Type
REMARK                         _______ _______ _______ _____ _____    ______ ____
ROOT
ATOM      1  N   UNL     1       0.688  -0.476  -1.203  0.00  0.00    -0.321 N 
ATOM      2  C   UNL     1       2.005  -0.123  -1.433  0.00  0.00    +0.132 A 
ATOM      3  C   UNL     1       2.679  -0.571  -2.602  0.00  0.00    +0.051 A 
ATOM      4  C   UNL     1       2.160  -1.415  -3.691  0.00  0.00    -0.025 A 
ATOM      5  C   UNL     1       3.006  -1.700  -4.694  0.00  0.00    -0.004 A 
ATOM      6  S   UNL     1       4.523  -0.877  -4.268  0.00  0.00    -0.073 S 
ATOM      7  C   UNL     1       4.015  -0.151  -2.733  0.00  0.00    +0.115 A 
ATOM      8  N   UNL     1       4.592   0.609  -1.822  0.00  0.00    -0.210 NA
ATOM      9  C   UNL     1       3.916   0.995  -0.755  0.00  0.00    +0.225 A 
ATOM     10  N   UNL     1       2.656   0.641  -0.570  0.00  0.00    -0.202 NA
ATOM     11 CL   UNL     1       4.699   1.995   0.429  0.00  0.00    -0.041 Cl
ATOM     12  C   UNL     1       2.369  -2.571  -5.744  0.00  0.00    +0.043 C 
ATOM     13  C   UNL     1       1.119  -3.160  -5.054  0.00  0.00    +0.010 C 
ATOM     14  C   UNL     1       0.817  -2.088  -3.988  0.00  0.00    +0.037 C 
ATOM     15  H   UNL     1       0.218  -1.037  -1.840  0.00  0.00    +0.148 HD
ENDROOT
BRANCH   1  17
ATOM     16  C   UNL     1      -0.019   1.526   0.010  0.00  0.00    +0.033 C 
ATOM     17  C   UNL     1       0.002  -0.004   0.002  0.00  0.00    +0.051 C 
ATOM     18  C   UNL     1       0.742  -0.511   1.242  0.00  0.00    +0.033 C 
BRANCH  17  19
ATOM     19  C   UNL     1      -1.433  -0.534   0.013  0.00  0.00    +0.180 C 
BRANCH  19  20
ATOM     20  O   UNL     1      -2.102  -0.073   1.189  0.00  0.00    -0.393 OA
ATOM     21  H   UNL     1      -3.019  -0.371   1.262  0.00  0.00    +0.209 HD
ENDBRANCH  19  20
ENDBRANCH  17  19
ENDBRANCH   1  17
TORSDOF 3
