REMARK  Name = ZINC03670440
REMARK  10 active torsions:
REMARK  status: ('A' for Active; 'I' for Inactive)
REMARK    1  A    between atoms: C_1  and  C_2
REMARK    2  A    between atoms: C_5  and  N_9
REMARK    3  A    between atoms: C_7  and  C_8
REMARK    4  A    between atoms: C_19  and  C_20
REMARK    5  A    between atoms: C_19  and  O_28
REMARK    6  A    between atoms: N_22  and  C_23
REMARK    7  A    between atoms: C_23  and  C_24
REMARK    8  A    between atoms: C_24  and  N_25
REMARK    9  A    between atoms: N_25  and  C_26
REMARK   10  A    between atoms: N_25  and  C_27
REMARK                            x       y       z     vdW  Elec       q    Type
REMARK                         _______ _______ _______ _____ _____    ______ ____
ROOT
ATOM      1  N   UNL     1       0.058  -4.170  -0.021  0.00  0.00    -0.214 N 
ATOM      2  C   UNL     1       0.168  -4.856   1.131  0.00  0.00    +0.314 C 
ATOM      3  O   UNL     1       0.251  -4.232   2.171  0.00  0.00    -0.252 OA
ATOM      4  N   UNL     1       0.192  -6.194   1.185  0.00  0.00    -0.269 N 
ATOM      5  C   UNL     1       0.103  -7.001   0.051  0.00  0.00    +0.043 A 
ATOM      6  C   UNL     1       0.133  -8.385   0.162  0.00  0.00    +0.025 A 
ATOM      7  C   UNL     1       0.044  -9.168  -0.973  0.00  0.00    +0.017 A 
ATOM      8  C   UNL     1      -0.072  -8.580  -2.220  0.00  0.00    +0.018 A 
ATOM      9  C   UNL     1      -0.102  -7.199  -2.336  0.00  0.00    +0.025 A 
ATOM     10  C   UNL     1      -0.015  -6.419  -1.206  0.00  0.00    +0.034 A 
ATOM     11  C   UNL     1      -0.049  -4.910  -1.290  0.00  0.00    +0.247 C 
ATOM     12 BR   UNL     1      -0.191  -9.660  -3.768  0.00  0.00    -0.050 Br
ATOM     13  H   UNL     1       0.274  -6.621   2.053  0.00  0.00    +0.156 HD
ENDROOT
BRANCH   1  18
ATOM     14  C   UNL     1      -0.017   1.503   0.012  0.00  0.00    +0.044 C 
ATOM     15  C   UNL     1       0.003  -0.004   0.003  0.00  0.00    -0.047 A 
ATOM     16  C   UNL     1      -1.163  -0.711   0.231  0.00  0.00    +0.005 A 
ATOM     17  C   UNL     1      -1.149  -2.092   0.224  0.00  0.00    +0.024 A 
ATOM     18  C   UNL     1       0.040  -2.771  -0.013  0.00  0.00    +0.042 A 
ATOM     19  C   UNL     1       1.209  -2.058  -0.242  0.00  0.00    +0.027 A 
ATOM     20  C   UNL     1       1.187  -0.677  -0.239  0.00  0.00    -0.046 A 
ATOM     21  C   UNL     1       2.454   0.097  -0.494  0.00  0.00    +0.044 C 
ENDBRANCH   1  18
BRANCH  11  22
ATOM     22  C   UNL     1      -1.339  -4.506  -1.956  0.00  0.00    +0.269 C 
ATOM     23  O   UNL     1      -1.327  -4.076  -3.090  0.00  0.00    -0.270 OA
ATOM     24  N   UNL     1      -2.506  -4.622  -1.292  0.00  0.00    -0.313 N 
ATOM     25  H   UNL     1      -2.515  -4.966  -0.385  0.00  0.00    +0.149 HD
BRANCH  24  26
ATOM     26  C   UNL     1      -3.760  -4.229  -1.940  0.00  0.00    +0.086 C 
BRANCH  26  27
ATOM     27  C   UNL     1      -4.926  -4.460  -0.976  0.00  0.00    -0.061 C 
BRANCH  27  28
ATOM     28  N   UNL     1      -6.183  -4.066  -1.625  0.00  0.00    +0.377 N 
ATOM     29  C   UNL     1      -7.313  -4.398  -0.747  0.00  0.00    -0.097 C 
ATOM     30  C   UNL     1      -6.170  -2.619  -1.881  0.00  0.00    -0.097 C 
ATOM     31  H   UNL     1      -6.279  -4.561  -2.499  0.00  0.00    -0.083 HD
ENDBRANCH  27  28
ENDBRANCH  26  27
ENDBRANCH  24  26
ENDBRANCH  11  22
BRANCH  11  32
ATOM     32  O   UNL     1       1.027  -4.495  -2.134  0.00  0.00    -0.360 OA
ATOM     33  H   UNL     1       1.040  -4.931  -2.997  0.00  0.00    +0.213 HD
ENDBRANCH  11  32
TORSDOF 6
