REMARK  Name = ZINC06493096
REMARK  9 active torsions:
REMARK  status: ('A' for Active; 'I' for Inactive)
REMARK    1  A    between atoms: C_1  and  C_2
REMARK    2  A    between atoms: C_2  and  C_3
REMARK    3  A    between atoms: C_2  and  C_4
REMARK    4  A    between atoms: C_4  and  N_5
REMARK    5  A    between atoms: C_6  and  C_12
REMARK    6  A    between atoms: C_19  and  C_22
REMARK    7  A    between atoms: C_22  and  C_23
REMARK    8  A    between atoms: C_22  and  C_24
REMARK    9  A    between atoms: C_22  and  C_25
REMARK                            x       y       z     vdW  Elec       q    Type
REMARK                         _______ _______ _______ _____ _____    ______ ____
ROOT
ATOM      1  C   UNL     1       0.092   1.632   0.377  0.00  0.00    +0.030 A 
ATOM      2  C   UNL     1       0.292   0.289   0.234  0.00  0.00    +0.057 A 
ATOM      3  S   UNL     1       2.042   0.141   0.560  0.00  0.00    -0.101 S 
ATOM      4  C   UNL     1       2.381   1.855   0.860  0.00  0.00    -0.006 A 
ATOM      5  C   UNL     1       1.178   2.462   0.706  0.00  0.00    -0.026 A 
ATOM      6  C   UNL     1       1.047   3.972   0.886  0.00  0.00    +0.037 C 
ATOM      7  C   UNL     1       2.256   4.482   1.671  0.00  0.00    +0.009 C 
ATOM      8  C   UNL     1       3.550   4.012   1.002  0.00  0.00    -0.000 C 
ATOM      9  C   UNL     1       3.687   2.496   1.204  0.00  0.00    +0.046 C 
ENDROOT
BRANCH   1  11
ATOM     10  N   UNL     1      -2.425   1.736   0.743  0.00  0.00    -0.303 N 
ATOM     11  C   UNL     1      -1.256   2.210   0.183  0.00  0.00    +0.163 A 
ATOM     12  N   UNL     1      -1.538   3.256  -0.543  0.00  0.00    -0.153 NA
ATOM     13  N   UNL     1      -2.921   3.474  -0.469  0.00  0.00    -0.254 N 
ATOM     14  H   UNL     1      -3.414   4.182  -0.912  0.00  0.00    +0.191 HD
ATOM     15  C   UNL     1      -3.440   2.522   0.334  0.00  0.00    +0.176 A 
ATOM     16  S   UNL     1      -5.089   2.346   0.757  0.00  0.00    -0.011 S 
BRANCH  10  17
ATOM     17  C   UNL     1      -2.542   0.577   1.631  0.00  0.00    +0.128 C 
BRANCH  17  19
ATOM     18  C   UNL     1      -3.313   1.987   3.544  0.00  0.00    +0.009 C 
ATOM     19  C   UNL     1      -2.242   1.004   3.070  0.00  0.00    +0.003 C 
ATOM     20  C   UNL     1      -2.241  -0.228   3.978  0.00  0.00    +0.009 C 
ENDBRANCH  17  19
ENDBRANCH  10  17
ENDBRANCH   1  11
BRANCH   8  21
ATOM     21  C   UNL     1       4.745   4.729   1.635  0.00  0.00    -0.035 C 
ATOM     22  C   UNL     1       4.799   4.405   3.129  0.00  0.00    +0.011 C 
ATOM     23  C   UNL     1       4.593   6.239   1.445  0.00  0.00    +0.011 C 
ATOM     24  C   UNL     1       6.036   4.257   0.964  0.00  0.00    +0.011 C 
ENDBRANCH   8  21
TORSDOF 4
