REMARK  Name = ZINC41087771
REMARK  8 active torsions:
REMARK  status: ('A' for Active; 'I' for Inactive)
REMARK    1  A    between atoms: C_1  and  C_2
REMARK    2  A    between atoms: C_5  and  O_12
REMARK    3  A    between atoms: C_8  and  C_10
REMARK    4  A    between atoms: C_8  and  C_11
REMARK    5  A    between atoms: O_12  and  C_13
REMARK    6  A    between atoms: C_13  and  C_15
REMARK    7  A    between atoms: C_17  and  N_22
REMARK    8  A    between atoms: C_19  and  N_21
REMARK                            x       y       z     vdW  Elec       q    Type
REMARK                         _______ _______ _______ _____ _____    ______ ____
ROOT
ATOM      1  C   UNL     1      -4.430  -0.097   0.733  0.00  0.00    +0.340 C 
ATOM      2  O   UNL     1      -4.162   1.065   0.503  0.00  0.00    -0.245 OA
ENDROOT
BRANCH   1   3
ATOM      3  C   UNL     1      -5.819  -0.578   0.583  0.00  0.00    +0.062 A 
ATOM      4  C   UNL     1      -6.130  -1.912   0.853  0.00  0.00    +0.037 A 
ATOM      5  C   UNL     1      -7.435  -2.360   0.712  0.00  0.00    +0.027 A 
ATOM      6  C   UNL     1      -8.432  -1.484   0.303  0.00  0.00    +0.045 A 
ATOM      7  C   UNL     1      -8.126  -0.156   0.033  0.00  0.00    +0.027 A 
ATOM      8  C   UNL     1      -6.824   0.301   0.178  0.00  0.00    +0.037 A 
BRANCH   7   9
ATOM      9  N   UNL     1      -9.132   0.722  -0.379  0.00  0.00    -0.358 N 
ATOM     10  H   UNL     1     -10.043   0.404  -0.477  0.00  0.00    +0.142 HD
ATOM     11  H   UNL     1      -8.919   1.649  -0.567  0.00  0.00    +0.142 HD
ENDBRANCH   7   9
BRANCH   5  12
ATOM     12  N   UNL     1      -7.747  -3.695   0.981  0.00  0.00    -0.358 N 
ATOM     13  H   UNL     1      -7.051  -4.308   1.266  0.00  0.00    +0.142 HD
ATOM     14  H   UNL     1      -8.660  -4.009   0.883  0.00  0.00    +0.142 HD
ENDBRANCH   5  12
ENDBRANCH   1   3
BRANCH   1  15
ATOM     15  O   UNL     1      -3.461  -0.947   1.124  0.00  0.00    -0.458 OA
BRANCH  15  19
ATOM     16  C   UNL     1      -0.019   1.524   0.010  0.00  0.00    +0.007 C 
ATOM     17  C   UNL     1       0.002  -0.004   0.002  0.00  0.00    -0.010 C 
ATOM     18  C   UNL     1      -1.412  -0.559  -0.088  0.00  0.00    +0.048 C 
ATOM     19  C   UNL     1      -2.138  -0.412   1.248  0.00  0.00    +0.178 C 
ATOM     20  C   UNL     1      -1.378  -1.199   2.313  0.00  0.00    +0.051 C 
ATOM     21  C   UNL     1       0.034  -0.651   2.488  0.00  0.00    -0.031 C 
ATOM     22  C   UNL     1       0.787  -0.561   1.172  0.00  0.00    +0.010 C 
ATOM     23  C   UNL     1       0.803  -1.618   3.413  0.00  0.00    +0.011 C 
ATOM     24  C   UNL     1      -0.015   0.711   3.188  0.00  0.00    +0.011 C 
ENDBRANCH  15  19
ENDBRANCH   1  15
TORSDOF 5
