REMARK  Name = ZINC08704647
REMARK  2 active torsions:
REMARK  status: ('A' for Active; 'I' for Inactive)
REMARK    1  A    between atoms: C_4  and  N_22
REMARK    2  A    between atoms: C_5  and  C_7
REMARK                            x       y       z     vdW  Elec       q    Type
REMARK                         _______ _______ _______ _____ _____    ______ ____
ROOT
ATOM      1  C   UNL     1       1.212  -2.187  -0.004  0.00  0.00    +0.210 C 
ATOM      2  N   UNL     1      -0.124  -2.697   0.354  0.00  0.00    -0.294 N 
ATOM      3  C   UNL     1      -1.091  -2.738  -0.640  0.00  0.00    +0.159 C 
ATOM      4  N   UNL     1      -0.732  -3.376  -1.828  0.00  0.00    -0.259 N 
ATOM      5  C   UNL     1       0.603  -3.232  -2.196  0.00  0.00    +0.205 A 
ATOM      6  N   UNL     1       1.538  -2.682  -1.346  0.00  0.00    -0.288 N 
ATOM      7  C   UNL     1       2.738  -2.699  -1.997  0.00  0.00    +0.072 A 
ATOM      8  C   UNL     1       4.015  -2.286  -1.637  0.00  0.00    +0.028 A 
ATOM      9  C   UNL     1       5.022  -2.458  -2.573  0.00  0.00    +0.002 A 
ATOM     10  C   UNL     1       4.780  -3.016  -3.817  0.00  0.00    +0.002 A 
ATOM     11  C   UNL     1       3.519  -3.434  -4.200  0.00  0.00    +0.030 A 
ATOM     12  C   UNL     1       2.486  -3.271  -3.270  0.00  0.00    +0.091 A 
ATOM     13  N   UNL     1       1.169  -3.569  -3.324  0.00  0.00    -0.214 NA
ATOM     14  N   UNL     1      -2.270  -2.210  -0.474  0.00  0.00    -0.375 N 
ATOM     15  H   UNL     1      -0.322  -2.994   1.257  0.00  0.00    +0.151 HD
ATOM     16  H   UNL     1      -2.492  -1.773   0.363  0.00  0.00    +0.158 HD
ATOM     17  H   UNL     1      -1.366  -3.882  -2.359  0.00  0.00    +0.158 HD
ATOM     18  H   UNL     1      -2.926  -2.253  -1.187  0.00  0.00    +0.158 HD
ENDROOT
BRANCH   1  23
ATOM     19  C   UNL     1       1.121   1.393  -1.200  0.00  0.00    +0.000 A 
ATOM     20  C   UNL     1       1.178   2.089  -0.007  0.00  0.00    +0.002 A 
ATOM     21  C   UNL     1       1.247   1.405   1.191  0.00  0.00    +0.023 A 
ATOM     22  C   UNL     1       1.258   0.016   1.196  0.00  0.00    +0.036 A 
ATOM     23  C   UNL     1       1.200  -0.680  -0.004  0.00  0.00    +0.014 A 
ATOM     24  C   UNL     1       1.132   0.010  -1.199  0.00  0.00    +0.009 A 
BRANCH  22  25
ATOM     25  N   UNL     1       1.327  -0.679   2.406  0.00  0.00    -0.330 N 
ATOM     26  C   UNL     1       2.557  -1.174   3.040  0.00  0.00    +0.105 C 
ATOM     27  C   UNL     1       2.144  -1.897   4.339  0.00  0.00    +0.020 C 
ATOM     28  C   UNL     1       0.658  -2.261   4.077  0.00  0.00    +0.020 C 
ATOM     29  C   UNL     1       0.179  -1.032   3.261  0.00  0.00    +0.105 C 
ENDBRANCH  22  25
ENDBRANCH   1  23
TORSDOF 2
