REMARK  Name = ZINC67266812
REMARK  6 active torsions:
REMARK  status: ('A' for Active; 'I' for Inactive)
REMARK    1  A    between atoms: C_1  and  C_2
REMARK    2  A    between atoms: C_6  and  C_26
REMARK    3  A    between atoms: C_8  and  N_11
REMARK    4  A    between atoms: C_12  and  C_14
REMARK    5  A    between atoms: C_26  and  C_27
REMARK    6  A    between atoms: C_26  and  C_28
REMARK                            x       y       z     vdW  Elec       q    Type
REMARK                         _______ _______ _______ _____ _____    ______ ____
ROOT
ATOM      1  N   UNL     1       0.224   1.450   2.497  0.00  0.00    -0.312 N 
ATOM      2  C   UNL     1       1.345   2.138   2.792  0.00  0.00    +0.216 C 
ATOM      3  O   UNL     1       2.370   1.544   3.051  0.00  0.00    -0.276 OA
ATOM      4  H   UNL     1      -0.596   1.925   2.290  0.00  0.00    +0.149 HD
ENDROOT
BRANCH   2   5
ATOM      5  C   UNL     1       1.324   3.645   2.800  0.00  0.00    +0.075 C 
ATOM      6  C   UNL     1       0.930   4.157   1.413  0.00  0.00    +0.015 C 
ATOM      7  C   UNL     1       0.898   5.687   1.426  0.00  0.00    +0.036 C 
ATOM      8  C   UNL     1       2.271   6.225   1.813  0.00  0.00    +0.112 C 
ATOM      9  C   UNL     1       2.689   5.702   3.183  0.00  0.00    +0.036 C 
ATOM     10  C   UNL     1       2.714   4.172   3.163  0.00  0.00    +0.015 C 
ATOM     11  C   UNL     1       3.298   5.850   0.770  0.00  0.00    +0.244 C 
ATOM     12  O   UNL     1       3.633   4.733   0.437  0.00  0.00    -0.273 OA
ATOM     13  N   UNL     1       3.763   7.020   0.285  0.00  0.00    -0.238 N 
ATOM     14  C   UNL     1       3.175   8.067   0.877  0.00  0.00    +0.307 C 
ATOM     15  O   UNL     1       3.428   9.225   0.609  0.00  0.00    -0.252 OA
ATOM     16  N   UNL     1       2.270   7.693   1.802  0.00  0.00    -0.285 N 
ATOM     17  H   UNL     1       4.441   7.094  -0.405  0.00  0.00    +0.159 HD
ATOM     18  H   UNL     1       1.726   8.278   2.352  0.00  0.00    +0.151 HD
ENDBRANCH   2   5
BRANCH   1  24
ATOM     19  C   UNL     1       0.188   1.529  -0.001  0.00  0.00    +0.007 C 
ATOM     20  C   UNL     1       0.208  -0.001  -0.009  0.00  0.00    -0.012 C 
ATOM     21  C   UNL     1      -1.227  -0.531   0.008  0.00  0.00    +0.004 C 
ATOM     22  C   UNL     1      -1.937  -0.037   1.270  0.00  0.00    +0.006 C 
ATOM     23  C   UNL     1      -1.192  -0.544   2.506  0.00  0.00    +0.012 C 
ATOM     24  C   UNL     1       0.244  -0.015   2.489  0.00  0.00    +0.077 C 
ATOM     25  C   UNL     1       0.954  -0.508   1.227  0.00  0.00    +0.025 C 
BRANCH  23  26
ATOM     26  C   UNL     1      -1.902  -0.051   3.768  0.00  0.00    -0.012 C 
ATOM     27  C   UNL     1      -3.337  -0.580   3.786  0.00  0.00    +0.007 C 
ATOM     28  C   UNL     1      -1.156  -0.557   5.005  0.00  0.00    +0.007 C 
ENDBRANCH  23  26
ENDBRANCH   1  24
TORSDOF 3
