REMARK  Name = ZINC40757806
REMARK  6 active torsions:
REMARK  status: ('A' for Active; 'I' for Inactive)
REMARK    1  A    between atoms: C_1  and  N_2
REMARK    2  A    between atoms: N_2  and  C_3
REMARK    3  A    between atoms: C_10  and  N_26
REMARK    4  A    between atoms: C_11  and  N_15
REMARK    5  A    between atoms: N_15  and  N_16
REMARK    6  A    between atoms: C_17  and  C_19
REMARK                            x       y       z     vdW  Elec       q    Type
REMARK                         _______ _______ _______ _____ _____    ______ ____
ROOT
ATOM      1  C   UNL     1       1.269   0.378   0.636  0.00  0.00    +0.137 C 
ATOM      2  N   UNL     1       0.004   0.003   0.000  0.00  0.00    -0.287 N 
ATOM      3  C   UNL     1       0.007  -0.597  -1.254  0.00  0.00    +0.151 A 
ATOM      4  C   UNL     1       0.052   0.181  -2.412  0.00  0.00    +0.107 A 
ATOM      5  C   UNL     1       0.053  -0.473  -3.646  0.00  0.00    +0.161 A 
ATOM      6  N   UNL     1       0.013  -1.803  -3.671  0.00  0.00    -0.217 NA
ATOM      7  C   UNL     1      -0.029  -2.500  -2.554  0.00  0.00    +0.225 A 
ATOM      8  N   UNL     1      -0.027  -1.923  -1.369  0.00  0.00    -0.218 NA
ENDROOT
BRANCH   2   9
ATOM      9  C   UNL     1      -1.206   0.248   0.654  0.00  0.00    +0.035 A 
ATOM     10  C   UNL     1      -2.399  -0.203   0.103  0.00  0.00    +0.023 A 
ATOM     11  C   UNL     1      -3.594   0.041   0.753  0.00  0.00    +0.002 A 
ATOM     12  C   UNL     1      -3.603   0.734   1.950  0.00  0.00    +0.000 A 
ATOM     13  C   UNL     1      -2.417   1.184   2.501  0.00  0.00    +0.002 A 
ATOM     14  C   UNL     1      -1.219   0.939   1.860  0.00  0.00    +0.023 A 
ENDBRANCH   2   9
BRANCH   4  15
ATOM     15  N   UNL     1       0.093   1.583  -2.338  0.00  0.00    -0.353 N 
ATOM     16  H   UNL     1       0.018   2.025  -1.479  0.00  0.00    +0.143 HD
ATOM     17  H   UNL     1       0.198   2.108  -3.147  0.00  0.00    +0.143 HD
ENDBRANCH   4  15
BRANCH   5  18
ATOM     18  N   UNL     1       0.096   0.254  -4.830  0.00  0.00    -0.247 N 
ATOM     19  H   UNL     1       0.126   1.223  -4.803  0.00  0.00    +0.172 HD
BRANCH  18  20
ATOM     20  N   UNL     1       0.098  -0.413  -6.062  0.00  0.00    -0.231 N 
ATOM     21  C   UNL     1       0.139   0.292  -7.210  0.00  0.00    +0.262 C 
ATOM     22  O   UNL     1       0.176   1.507  -7.176  0.00  0.00    -0.269 OA
ATOM     23  H   UNL     1       0.068  -1.382  -6.088  0.00  0.00    +0.173 HD
BRANCH  21  24
ATOM     24  C   UNL     1       0.141  -0.411  -8.509  0.00  0.00    +0.056 A 
ATOM     25  C   UNL     1       0.093  -1.806  -8.552  0.00  0.00    +0.014 A 
ATOM     26  C   UNL     1       0.094  -2.457  -9.768  0.00  0.00    +0.001 A 
ATOM     27  C   UNL     1       0.143  -1.730 -10.945  0.00  0.00    +0.001 A 
ATOM     28  C   UNL     1       0.190  -0.349 -10.912  0.00  0.00    +0.021 A 
ATOM     29  C   UNL     1       0.184   0.316  -9.701  0.00  0.00    +0.053 A 
ATOM     30 CL   UNL     1       0.236   2.051  -9.660  0.00  0.00    -0.083 Cl
ENDBRANCH  21  24
ENDBRANCH  18  20
ENDBRANCH   5  18
TORSDOF 5
