REMARK  Name = ZINC40916561
REMARK  6 active torsions:
REMARK  status: ('A' for Active; 'I' for Inactive)
REMARK    1  A    between atoms: C_1  and  C_2
REMARK    2  A    between atoms: C_3  and  C_28
REMARK    3  A    between atoms: C_4  and  C_12
REMARK    4  A    between atoms: C_17  and  O_18
REMARK    5  A    between atoms: O_18  and  C_19
REMARK    6  A    between atoms: C_19  and  C_20
REMARK                            x       y       z     vdW  Elec       q    Type
REMARK                         _______ _______ _______ _____ _____    ______ ____
ROOT
ATOM      1  C   UNL     1      -0.018   1.503   0.010  0.00  0.00    +0.061 C 
ATOM      2  C   UNL     1       0.002  -0.004   0.002  0.00  0.00    +0.018 C 
ATOM      3  C   UNL     1      -1.163  -0.668   0.004  0.00  0.00    +0.060 C 
ATOM      4  C   UNL     1      -1.253  -2.171  -0.016  0.00  0.00    +0.181 C 
ATOM      5  N   UNL     1       0.064  -2.740   0.255  0.00  0.00    -0.221 N 
ATOM      6  C   UNL     1       1.211  -2.016   0.249  0.00  0.00    +0.218 A 
ATOM      7  N   UNL     1       2.199  -2.824   0.520  0.00  0.00    -0.201 NA
ATOM      8  C   UNL     1       1.727  -4.060   0.708  0.00  0.00    +0.247 A 
ATOM      9  N   UNL     1       0.425  -4.052   0.556  0.00  0.00    -0.156 NA
ATOM     10  N   UNL     1       1.213  -0.651  -0.013  0.00  0.00    -0.287 N 
ATOM     11  H   UNL     1       2.038  -0.174  -0.196  0.00  0.00    +0.155 HD
ENDROOT
BRANCH   4  12
ATOM     12  C   UNL     1      -1.729  -2.627  -1.371  0.00  0.00    +0.023 A 
ATOM     13  C   UNL     1      -0.992  -2.328  -2.500  0.00  0.00    +0.009 A 
ATOM     14  C   UNL     1      -1.429  -2.746  -3.743  0.00  0.00    +0.001 A 
ATOM     15  C   UNL     1      -2.603  -3.466  -3.860  0.00  0.00    +0.004 A 
ATOM     16  C   UNL     1      -3.344  -3.769  -2.733  0.00  0.00    +0.046 A 
ATOM     17  C   UNL     1      -2.905  -3.354  -1.484  0.00  0.00    +0.127 A 
BRANCH  17  18
ATOM     18  O   UNL     1      -3.629  -3.656  -0.374  0.00  0.00    -0.487 OA
BRANCH  18  19
ATOM     19  C   UNL     1      -4.829  -4.408  -0.566  0.00  0.00    +0.266 C 
BRANCH  19  20
ATOM     20  C   UNL     1      -5.492  -4.645   0.766  0.00  0.00    +0.008 A 
ATOM     21  C   UNL     1      -4.919  -4.147   1.921  0.00  0.00    +0.010 A 
ATOM     22  C   UNL     1      -5.526  -4.365   3.144  0.00  0.00    +0.020 A 
ATOM     23  C   UNL     1      -6.709  -5.080   3.211  0.00  0.00    +0.042 A 
ATOM     24  C   UNL     1      -7.283  -5.577   2.055  0.00  0.00    +0.040 A 
ATOM     25  C   UNL     1      -6.677  -5.355   0.832  0.00  0.00    +0.049 A 
ATOM     26 CL   UNL     1      -7.400  -5.974  -0.620  0.00  0.00    -0.083 Cl
ATOM     27 CL   UNL     1      -7.472  -5.353   4.747  0.00  0.00    -0.083 Cl
ENDBRANCH  19  20
ENDBRANCH  18  19
ENDBRANCH  17  18
ENDBRANCH   4  12
BRANCH   3  28
ATOM     28  C   UNL     1      -2.365   0.079   0.026  0.00  0.00    +0.241 C 
ATOM     29  O   UNL     1      -2.325   1.296   0.043  0.00  0.00    -0.271 OA
ATOM     30  N   UNL     1      -3.553  -0.556   0.029  0.00  0.00    -0.325 N 
ATOM     31  H   UNL     1      -3.585  -1.525   0.016  0.00  0.00    +0.145 HD
ATOM     32  H   UNL     1      -4.377  -0.044   0.044  0.00  0.00    +0.145 HD
ENDBRANCH   3  28
TORSDOF 5
