REMARK  Name = ZINC08283391
REMARK  9 active torsions:
REMARK  status: ('A' for Active; 'I' for Inactive)
REMARK    1  A    between atoms: C_1  and  C_2
REMARK    2  A    between atoms: C_5  and  C_8
REMARK    3  A    between atoms: C_11  and  S_14
REMARK    4  A    between atoms: N_12  and  N_13
REMARK    5  A    between atoms: S_14  and  C_15
REMARK    6  A    between atoms: C_15  and  C_17
REMARK    7  A    between atoms: C_15  and  C_18
REMARK    8  A    between atoms: N_20  and  C_21
REMARK    9  A    between atoms: C_27  and  C_29
REMARK                            x       y       z     vdW  Elec       q    Type
REMARK                         _______ _______ _______ _____ _____    ______ ____
ROOT
ATOM      1  C   UNL     1       2.901   1.485  -9.008  0.00  0.00    +0.182 A 
ATOM      2  N   UNL     1       2.775   0.394  -8.289  0.00  0.00    -0.127 NA
ATOM      3  N   UNL     1       2.091   0.643  -7.230  0.00  0.00    -0.121 NA
ATOM      4  C   UNL     1       1.739   1.909  -7.208  0.00  0.00    +0.209 A 
ATOM      5  N   UNL     1       2.236   2.488  -8.340  0.00  0.00    -0.224 N 
ENDROOT
BRANCH   1  10
ATOM      6  C   UNL     1       5.688   1.976 -14.019  0.00  0.00    +0.044 C 
ATOM      7  C   UNL     1       4.958   1.848 -12.706  0.00  0.00    -0.050 A 
ATOM      8  C   UNL     1       4.639   0.594 -12.216  0.00  0.00    +0.004 A 
ATOM      9  C   UNL     1       3.971   0.469 -11.015  0.00  0.00    +0.012 A 
ATOM     10  C   UNL     1       3.617   1.611 -10.295  0.00  0.00    +0.021 A 
ATOM     11  C   UNL     1       3.937   2.873 -10.799  0.00  0.00    +0.012 A 
ATOM     12  C   UNL     1       4.611   2.984 -11.998  0.00  0.00    +0.004 A 
ENDBRANCH   1  10
BRANCH   5  13
ATOM     13  N   UNL     1       2.104   3.791  -8.728  0.00  0.00    -0.295 N 
ATOM     14  H   UNL     1       2.862   4.353  -8.372  0.00  0.00    +0.163 HD
ATOM     15  H   UNL     1       2.040   3.864  -9.733  0.00  0.00    +0.163 HD
ENDBRANCH   5  13
BRANCH   4  16
ATOM     16  S   UNL     1       0.794   2.709  -5.954  0.00  0.00    -0.072 S 
BRANCH  16  17
ATOM     17  C   UNL     1       0.515   1.316  -4.833  0.00  0.00    +0.137 C 
ATOM     18  C   UNL     1      -0.348   0.264  -5.532  0.00  0.00    +0.029 C 
BRANCH  17  19
ATOM     19  C   UNL     1      -0.190   1.802  -3.593  0.00  0.00    +0.226 C 
ATOM     20  O   UNL     1      -0.868   2.806  -3.636  0.00  0.00    -0.275 OA
ATOM     21  N   UNL     1      -0.067   1.120  -2.437  0.00  0.00    -0.311 N 
ATOM     22  H   UNL     1       0.476   0.317  -2.403  0.00  0.00    +0.149 HD
BRANCH  21  23
ATOM     23  C   UNL     1      -0.753   1.593  -1.232  0.00  0.00    +0.076 C 
ATOM     24  C   UNL     1      -2.188   1.063  -1.221  0.00  0.00    +0.022 C 
ATOM     25  C   UNL     1      -2.904   1.556   0.038  0.00  0.00    +0.002 C 
ATOM     26  C   UNL     1      -2.164   1.050   1.278  0.00  0.00    +0.000 C 
ATOM     27  C   UNL     1      -0.729   1.579   1.267  0.00  0.00    +0.005 C 
ATOM     28  C   UNL     1      -0.013   1.086   0.008  0.00  0.00    +0.006 C 
ATOM     29  C   UNL     1       1.423   1.615  -0.003  0.00  0.00    +0.009 C 
ENDBRANCH  21  23
ENDBRANCH  17  19
ENDBRANCH  16  17
ENDBRANCH   4  16
TORSDOF 6
