REMARK  Name = ZINC08295876
REMARK  10 active torsions:
REMARK  status: ('A' for Active; 'I' for Inactive)
REMARK    1  A    between atoms: C_1  and  O_2
REMARK    2  A    between atoms: O_2  and  C_3
REMARK    3  A    between atoms: C_6  and  C_9
REMARK    4  A    between atoms: C_9  and  N_10
REMARK    5  A    between atoms: C_13  and  O_37
REMARK    6  A    between atoms: C_15  and  O_36
REMARK    7  A    between atoms: C_18  and  C_33
REMARK    8  A    between atoms: N_24  and  C_25
REMARK    9  A    between atoms: C_28  and  O_31
REMARK   10  A    between atoms: O_31  and  C_32
REMARK                            x       y       z     vdW  Elec       q    Type
REMARK                         _______ _______ _______ _____ _____    ______ ____
ROOT
ATOM      1  N   UNL     1       2.394   0.972   0.391  0.00  0.00    -0.299 N 
ATOM      2  C   UNL     1       1.265   1.846   0.560  0.00  0.00    +0.121 C 
ATOM      3  C   UNL     1       0.044   1.214   1.154  0.00  0.00    +0.164 C 
ATOM      4  C   UNL     1      -0.141   1.561   2.628  0.00  0.00    +0.146 C 
ATOM      5  C   UNL     1      -0.166   3.087   2.763  0.00  0.00    +0.048 C 
ATOM      6  C   UNL     1       1.206   3.632   2.387  0.00  0.00    +0.092 C 
ATOM      7  C   UNL     1       1.602   3.266   0.969  0.00  0.00    +0.089 C 
ATOM      8  S   UNL     1       3.439   3.217   0.884  0.00  0.00    -0.084 S 
ATOM      9  C   UNL     1       3.660   1.498   0.470  0.00  0.00    +0.158 C 
ATOM     10  N   UNL     1       4.795   0.866   0.281  0.00  0.00    -0.226 NA
ENDROOT
BRANCH  10  11
ATOM     11  C   UNL     1       5.983   1.541   0.399  0.00  0.00    +0.067 A 
ATOM     12  C   UNL     1       6.136   2.796  -0.193  0.00  0.00    +0.031 A 
ATOM     13  C   UNL     1       7.331   3.474  -0.068  0.00  0.00    +0.048 A 
ATOM     14  C   UNL     1       8.383   2.905   0.636  0.00  0.00    +0.120 A 
ATOM     15  C   UNL     1       8.238   1.655   1.220  0.00  0.00    +0.048 A 
ATOM     16  C   UNL     1       7.044   0.973   1.105  0.00  0.00    +0.031 A 
BRANCH  14  17
ATOM     17  O   UNL     1       9.561   3.575   0.752  0.00  0.00    -0.495 OA
ATOM     18  C   UNL     1       9.643   4.857   0.126  0.00  0.00    +0.277 C 
ENDBRANCH  14  17
ENDBRANCH  10  11
BRANCH   6  19
ATOM     19  C   UNL     1       1.188   5.133   2.517  0.00  0.00    +0.215 C 
ATOM     20  O   UNL     1       1.466   5.828   1.562  0.00  0.00    -0.276 OA
ATOM     21  N   UNL     1       0.863   5.704   3.694  0.00  0.00    -0.329 N 
ATOM     22  H   UNL     1       0.640   5.148   4.457  0.00  0.00    +0.145 HD
ATOM     23  H   UNL     1       0.852   6.670   3.777  0.00  0.00    +0.145 HD
ENDBRANCH   6  19
BRANCH   4  24
ATOM     24  O   UNL     1      -1.374   1.015   3.101  0.00  0.00    -0.389 OA
ATOM     25  H   UNL     1      -1.554   1.200   4.033  0.00  0.00    +0.210 HD
ENDBRANCH   4  24
BRANCH   3  26
ATOM     26  O   UNL     1       0.149  -0.205   1.024  0.00  0.00    -0.387 OA
ATOM     27  H   UNL     1      -0.605  -0.691   1.386  0.00  0.00    +0.210 HD
ENDBRANCH   3  26
BRANCH   1  28
ATOM     28  C   UNL     1       2.196  -0.458   0.138  0.00  0.00    +0.142 C 
BRANCH  28  32
ATOM     29  C   UNL     1       5.129  -1.829  -2.651  0.00  0.00    +0.120 A 
ATOM     30  C   UNL     1       5.392  -1.870  -1.290  0.00  0.00    +0.046 A 
ATOM     31  C   UNL     1       4.443  -1.426  -0.390  0.00  0.00    +0.009 A 
ATOM     32  C   UNL     1       3.230  -0.942  -0.845  0.00  0.00    -0.030 A 
ATOM     33  C   UNL     1       2.963  -0.906  -2.201  0.00  0.00    +0.009 A 
ATOM     34  C   UNL     1       3.911  -1.343  -3.106  0.00  0.00    +0.046 A 
BRANCH  29  36
ATOM     35  C   UNL     1       5.722  -2.195  -4.924  0.00  0.00    +0.277 C 
ATOM     36  O   UNL     1       6.061  -2.265  -3.538  0.00  0.00    -0.495 OA
ENDBRANCH  29  36
ENDBRANCH  28  32
ENDBRANCH   1  28
TORSDOF 8
