REMARK  Name = ZINC09846964
REMARK  14 active torsions:
REMARK  status: ('A' for Active; 'I' for Inactive)
REMARK    1  A    between atoms: C_1  and  C_2
REMARK    2  A    between atoms: C_5  and  N_9
REMARK    3  A    between atoms: C_7  and  C_8
REMARK    4  A    between atoms: C_10  and  C_12
REMARK    5  A    between atoms: N_14  and  C_15
REMARK    6  A    between atoms: C_15  and  C_16
REMARK    7  A    between atoms: C_19  and  C_21
REMARK    8  A    between atoms: N_22  and  N_23
REMARK    9  A    between atoms: C_24  and  C_26
REMARK   10  A    between atoms: N_28  and  C_29
REMARK   11  A    between atoms: C_32  and  O_37
REMARK   12  A    between atoms: C_34  and  O_35
REMARK   13  A    between atoms: O_35  and  C_36
REMARK   14  A    between atoms: O_37  and  C_38
REMARK                            x       y       z     vdW  Elec       q    Type
REMARK                         _______ _______ _______ _____ _____    ______ ____
ROOT
ATOM      1  C   UNL     1      -2.252   0.405  -0.624  0.00  0.00    +0.123 A 
ATOM      2  C   UNL     1      -2.809  -0.219   0.435  0.00  0.00    +0.047 A 
ATOM      3  C   UNL     1      -3.709  -1.172  -0.073  0.00  0.00    +0.051 A 
ATOM      4  C   UNL     1      -3.647  -1.085  -1.434  0.00  0.00    +0.148 A 
ATOM      5  O   UNL     1      -2.757  -0.122  -1.750  0.00  0.00    -0.457 OA
ENDROOT
BRANCH   4   6
ATOM      6  C   UNL     1      -4.412  -1.894  -2.385  0.00  0.00    +0.176 C 
ATOM      7  N   UNL     1      -4.188  -1.784  -3.663  0.00  0.00    -0.184 NA
BRANCH   7   8
ATOM      8  N   UNL     1      -3.292  -0.816  -4.136  0.00  0.00    -0.199 N 
ATOM      9  C   UNL     1      -3.138  -0.632  -5.463  0.00  0.00    +0.318 C 
ATOM     10  O   UNL     1      -3.775  -1.306  -6.247  0.00  0.00    -0.263 OA
ATOM     11  H   UNL     1      -2.784  -0.278  -3.510  0.00  0.00    +0.178 HD
BRANCH   9  12
ATOM     12  C   UNL     1      -2.186   0.397  -5.966  0.00  0.00    +0.305 C 
ATOM     13  O   UNL     1      -1.549   1.071  -5.181  0.00  0.00    -0.265 OA
ATOM     14  N   UNL     1      -2.031   0.581  -7.292  0.00  0.00    -0.275 N 
ATOM     15  H   UNL     1      -2.595   0.100  -7.917  0.00  0.00    +0.155 HD
BRANCH  14  16
ATOM     16  C   UNL     1      -1.056   1.467  -7.767  0.00  0.00    +0.076 A 
ATOM     17  C   UNL     1       0.146   1.606  -7.088  0.00  0.00    +0.030 A 
ATOM     18  C   UNL     1       1.107   2.481  -7.557  0.00  0.00    +0.047 A 
ATOM     19  C   UNL     1       0.874   3.221  -8.707  0.00  0.00    +0.124 A 
ATOM     20  C   UNL     1      -0.326   3.086  -9.389  0.00  0.00    +0.093 A 
ATOM     21  C   UNL     1      -1.290   2.207  -8.925  0.00  0.00    +0.145 A 
BRANCH  21  22
ATOM     22  O   UNL     1      -2.465   2.068  -9.595  0.00  0.00    -0.493 OA
ATOM     23  C   UNL     1      -2.636   2.858 -10.774  0.00  0.00    +0.277 C 
ENDBRANCH  21  22
BRANCH  19  24
ATOM     24  O   UNL     1       1.822   4.081  -9.165  0.00  0.00    -0.495 OA
ATOM     25  C   UNL     1       3.034   4.170  -8.414  0.00  0.00    +0.277 C 
ENDBRANCH  19  24
ENDBRANCH  14  16
ENDBRANCH   9  12
ENDBRANCH   7   8
ENDBRANCH   4   6
BRANCH   1  26
ATOM     26  C   UNL     1      -1.226   1.508  -0.554  0.00  0.00    +0.179 C 
BRANCH  26  29
ATOM     27  C   UNL     1       1.200   1.727  -0.492  0.00  0.00    +0.300 C 
ATOM     28  O   UNL     1       1.060   2.931  -0.445  0.00  0.00    -0.265 OA
ATOM     29  N   UNL     1       0.118   0.925  -0.545  0.00  0.00    -0.300 N 
ATOM     30  H   UNL     1       0.229  -0.038  -0.582  0.00  0.00    +0.150 HD
BRANCH  27  32
ATOM     31  N   UNL     1       3.652   1.935  -0.436  0.00  0.00    -0.278 N 
ATOM     32  C   UNL     1       2.570   1.133  -0.489  0.00  0.00    +0.303 C 
ATOM     33  O   UNL     1       2.709  -0.072  -0.536  0.00  0.00    -0.265 OA
ATOM     34  H   UNL     1       3.545   2.897  -0.485  0.00  0.00    +0.155 HD
BRANCH  31  39
ATOM     35  C   UNL     1       8.830  -0.320   0.079  0.00  0.00    +0.044 C 
ATOM     36  C   UNL     1       7.454   0.279  -0.058  0.00  0.00    -0.047 A 
ATOM     37  C   UNL     1       6.351  -0.411   0.412  0.00  0.00    +0.005 A 
ATOM     38  C   UNL     1       5.090   0.137   0.292  0.00  0.00    +0.023 A 
ATOM     39  C   UNL     1       4.928   1.379  -0.309  0.00  0.00    +0.034 A 
ATOM     40  C   UNL     1       6.037   2.070  -0.779  0.00  0.00    +0.027 A 
ATOM     41  C   UNL     1       7.297   1.518  -0.652  0.00  0.00    -0.046 A 
ATOM     42  C   UNL     1       8.502   2.266  -1.162  0.00  0.00    +0.044 C 
ENDBRANCH  31  39
ENDBRANCH  27  32
ENDBRANCH  26  29
ENDBRANCH   1  26
TORSDOF 10
