REMARK  Name = ZINC64679378
REMARK  8 active torsions:
REMARK  status: ('A' for Active; 'I' for Inactive)
REMARK    1  A    between atoms: C_1  and  C_2
REMARK    2  A    between atoms: C_2  and  C_3
REMARK    3  A    between atoms: C_3  and  O_4
REMARK    4  A    between atoms: O_4  and  C_5
REMARK    5  A    between atoms: C_8  and  C_13
REMARK    6  A    between atoms: C_10  and  O_11
REMARK    7  A    between atoms: O_11  and  C_12
REMARK    8  A    between atoms: C_22  and  C_25
REMARK                            x       y       z     vdW  Elec       q    Type
REMARK                         _______ _______ _______ _____ _____    ______ ____
ROOT
ATOM      1  C   UNL     1      -2.617  -2.596   0.013  0.00  0.00    +0.162 A 
ATOM      2  C   UNL     1      -3.790  -1.859   0.022  0.00  0.00    +0.050 A 
ATOM      3  C   UNL     1      -5.013  -2.505   0.030  0.00  0.00    +0.008 A 
ATOM      4  C   UNL     1      -5.068  -3.886   0.029  0.00  0.00    -0.036 A 
ATOM      5  C   UNL     1      -3.901  -4.628   0.020  0.00  0.00    +0.053 A 
ATOM      6  C   UNL     1      -2.673  -3.987   0.006  0.00  0.00    +0.162 A 
ENDROOT
BRANCH   4   7
ATOM      7  C   UNL     1      -6.403  -4.585   0.038  0.00  0.00    +0.059 C 
ATOM      8  C   UNL     1      -7.233  -4.158  -1.184  0.00  0.00    +0.108 C 
ATOM      9  C   UNL     1      -7.950  -2.868  -0.951  0.00  0.00    +0.216 C 
ATOM     10  O   UNL     1      -8.346  -2.293  -1.943  0.00  0.00    -0.276 OA
ATOM     11  N   UNL     1      -8.209  -2.270   0.214  0.00  0.00    -0.289 N 
ATOM     12  C   UNL     1      -7.600  -2.712   1.461  0.00  0.00    +0.243 C 
ATOM     13  C   UNL     1      -7.197  -4.170   1.244  0.00  0.00    +0.004 C 
ATOM     14  C   UNL     1      -7.708  -4.813   2.267  0.00  0.00    +0.064 C 
ATOM     15  N   UNL     1      -8.491  -3.982   3.001  0.00  0.00    -0.157 NA
ATOM     16  N   UNL     1      -8.515  -2.792   2.596  0.00  0.00    -0.160 NA
ATOM     17  C   UNL     1      -7.461  -6.266   2.581  0.00  0.00    +0.067 C 
ATOM     18  H   UNL     1      -8.822  -1.518   0.231  0.00  0.00    +0.151 HD
ENDBRANCH   4   7
BRANCH   6  19
ATOM     19  O   UNL     1      -1.524  -4.715  -0.009  0.00  0.00    -0.491 OA
ATOM     20  C   UNL     1      -1.658  -6.138  -0.015  0.00  0.00    +0.277 C 
ENDBRANCH   6  19
BRANCH   1  21
ATOM     21  O   UNL     1      -1.414  -1.962   0.005  0.00  0.00    -0.488 OA
BRANCH  21  22
ATOM     22  C   UNL     1      -1.433  -0.534   0.013  0.00  0.00    +0.229 C 
BRANCH  22  24
ATOM     23  C   UNL     1      -0.019   1.526   0.010  0.00  0.00    +0.007 C 
ATOM     24  C   UNL     1       0.002  -0.004   0.002  0.00  0.00    +0.038 C 
ENDBRANCH  22  24
ENDBRANCH  21  22
ENDBRANCH   1  21
TORSDOF 5
