REMARK  Name = ZINC65335532
REMARK  3 active torsions:
REMARK  status: ('A' for Active; 'I' for Inactive)
REMARK    1  A    between atoms: C_1  and  C_2
REMARK    2  A    between atoms: C_5  and  C_10
REMARK    3  A    between atoms: C_11  and  C_13
REMARK                            x       y       z     vdW  Elec       q    Type
REMARK                         _______ _______ _______ _____ _____    ______ ____
ROOT
ATOM      1  C   UNL     1      -0.018   1.503   0.010  0.00  0.00    +0.066 C 
ATOM      2  C   UNL     1       0.002  -0.004   0.002  0.00  0.00    +0.051 C 
ATOM      3  C   UNL     1      -1.129  -0.818   0.003  0.00  0.00    +0.072 C 
ATOM      4  C   UNL     1      -0.646  -2.162  -0.007  0.00  0.00    +0.032 C 
ATOM      5  C   UNL     1      -1.562  -3.186  -0.007  0.00  0.00    +0.068 C 
ATOM      6  N   UNL     1      -2.878  -2.904   0.001  0.00  0.00    -0.161 NA
ATOM      7  N   UNL     1      -3.335  -1.705   0.009  0.00  0.00    -0.076 NA
ATOM      8  C   UNL     1      -2.530  -0.623   0.011  0.00  0.00    +0.287 C 
ATOM      9  O   UNL     1      -2.999   0.501   0.020  0.00  0.00    -0.266 OA
ATOM     10  C   UNL     1      -1.096  -4.619  -0.018  0.00  0.00    +0.068 C 
ATOM     11  C   UNL     1       0.819  -2.039  -0.013  0.00  0.00    +0.048 C 
ATOM     12  N   UNL     1       1.105  -0.754  -0.013  0.00  0.00    -0.256 NA
ATOM     13  C   UNL     1       1.810  -3.174  -0.023  0.00  0.00    +0.066 C 
ENDROOT
TORSDOF 0
