REMARK  Name = ZINC66704969
REMARK  9 active torsions:
REMARK  status: ('A' for Active; 'I' for Inactive)
REMARK    1  A    between atoms: C_1  and  C_2
REMARK    2  A    between atoms: C_2  and  C_3
REMARK    3  A    between atoms: C_3  and  N_4
REMARK    4  A    between atoms: N_4  and  C_5
REMARK    5  A    between atoms: C_5  and  C_6
REMARK    6  A    between atoms: C_9  and  C_11
REMARK    7  A    between atoms: N_20  and  C_21
REMARK    8  A    between atoms: C_21  and  C_22
REMARK    9  A    between atoms: C_22  and  C_27
REMARK                            x       y       z     vdW  Elec       q    Type
REMARK                         _______ _______ _______ _____ _____    ______ ____
ROOT
ATOM      1  N   UNL     1       0.738  -1.962  -1.265  0.00  0.00    -0.277 N 
ATOM      2  C   UNL     1       1.764  -2.626  -0.695  0.00  0.00    +0.303 C 
ATOM      3  O   UNL     1       1.780  -3.841  -0.701  0.00  0.00    -0.253 OA
ATOM      4  N   UNL     1       2.771  -1.941  -0.117  0.00  0.00    -0.299 N 
ATOM      5  H   UNL     1       2.757  -0.971  -0.112  0.00  0.00    +0.150 HD
ENDROOT
BRANCH   1   6
ATOM      6  C   UNL     1       0.718  -0.497  -1.257  0.00  0.00    +0.109 C 
BRANCH   6   8
ATOM      7  C   UNL     1      -0.019   1.526   0.010  0.00  0.00    +0.005 C 
ATOM      8  C   UNL     1       0.002  -0.004   0.002  0.00  0.00    +0.016 C 
ENDBRANCH   6   8
ENDBRANCH   1   6
BRANCH   1   9
ATOM      9  C   UNL     1      -0.357  -2.706  -1.893  0.00  0.00    +0.206 C 
BRANCH   9  10
ATOM     10  C   UNL     1      -0.033  -2.945  -3.345  0.00  0.00    +0.235 A 
ATOM     11  N   UNL     1       0.597  -3.976  -3.834  0.00  0.00    -0.110 NA
ATOM     12  N   UNL     1       0.698  -3.853  -5.111  0.00  0.00    -0.107 NA
ATOM     13  C   UNL     1       0.130  -2.730  -5.483  0.00  0.00    +0.250 A 
ATOM     14  O   UNL     1      -0.348  -2.136  -4.372  0.00  0.00    -0.419 OA
BRANCH  13  15
ATOM     15  C   UNL     1       0.029  -2.215  -6.865  0.00  0.00    +0.057 A 
ATOM     16  C   UNL     1      -0.601  -0.995  -7.114  0.00  0.00    +0.015 A 
ATOM     17  C   UNL     1      -0.692  -0.520  -8.406  0.00  0.00    +0.001 A 
ATOM     18  C   UNL     1      -0.161  -1.250  -9.455  0.00  0.00    +0.001 A 
ATOM     19  C   UNL     1       0.465  -2.460  -9.216  0.00  0.00    +0.021 A 
ATOM     20  C   UNL     1       0.569  -2.944  -7.927  0.00  0.00    +0.053 A 
ATOM     21 CL   UNL     1       1.361  -4.460  -7.628  0.00  0.00    -0.083 Cl
ENDBRANCH  13  15
ENDBRANCH   9  10
ENDBRANCH   1   9
BRANCH   4  22
ATOM     22  C   UNL     1       3.885  -2.662   0.503  0.00  0.00    +0.112 C 
BRANCH  22  23
ATOM     23  C   UNL     1       4.884  -1.657   1.080  0.00  0.00    -0.016 C 
ATOM     24  C   UNL     1       5.482  -0.796  -0.052  0.00  0.00    +0.008 C 
ATOM     25  C   UNL     1       6.960  -0.594   0.365  0.00  0.00    +0.001 C 
ATOM     26  C   UNL     1       7.333  -1.967   0.978  0.00  0.00    +0.001 C 
ATOM     27  C   UNL     1       6.061  -2.401   1.735  0.00  0.00    +0.008 C 
ATOM     28  C   UNL     1       4.191  -0.763   2.110  0.00  0.00    +0.013 C 
ENDBRANCH  22  23
ENDBRANCH   4  22
TORSDOF 7
