REMARK  Name = ZINC36882674
REMARK  4 active torsions:
REMARK  status: ('A' for Active; 'I' for Inactive)
REMARK    1  A    between atoms: N_13  and  C_17
REMARK    2  A    between atoms: C_17  and  C_18
REMARK    3  A    between atoms: N_20  and  C_21
REMARK    4  A    between atoms: C_21  and  C_22
REMARK                            x       y       z     vdW  Elec       q    Type
REMARK                         _______ _______ _______ _____ _____    ______ ____
ROOT
ATOM      1  C   UNL     1      -0.017   1.377   0.010  0.00  0.00    +0.001 A 
ATOM      2  C   UNL     1       1.171   2.085   0.002  0.00  0.00    +0.004 A 
ATOM      3  C   UNL     1       2.375   1.410  -0.017  0.00  0.00    +0.046 A 
ATOM      4  C   UNL     1       2.398   0.019  -0.027  0.00  0.00    +0.126 A 
ATOM      5  C   UNL     1       1.207  -0.687  -0.013  0.00  0.00    +0.027 A 
ATOM      6  C   UNL     1       0.002  -0.004   0.002  0.00  0.00    +0.010 A 
ATOM      7  C   UNL     1       1.196  -2.190  -0.008  0.00  0.00    +0.144 C 
ATOM      8  C   UNL     1       2.550  -2.740  -0.447  0.00  0.00    +0.081 C 
ATOM      9  C   UNL     1       3.647  -1.989   0.320  0.00  0.00    +0.232 C 
ATOM     10  O   UNL     1       3.600  -0.612  -0.055  0.00  0.00    -0.492 OA
ATOM     11  C   UNL     1       0.098  -2.714  -0.904  0.00  0.00    +0.252 C 
ATOM     12  O   UNL     1      -0.020  -2.541  -2.098  0.00  0.00    -0.272 OA
ATOM     13  N   UNL     1      -0.723  -3.414  -0.095  0.00  0.00    -0.215 N 
ATOM     14  C   UNL     1      -0.295  -3.402   1.173  0.00  0.00    +0.310 C 
ATOM     15  O   UNL     1      -0.867  -3.964   2.086  0.00  0.00    -0.252 OA
ATOM     16  N   UNL     1       0.843  -2.697   1.324  0.00  0.00    -0.281 N 
ATOM     17  H   UNL     1       1.333  -2.553   2.149  0.00  0.00    +0.152 HD
ENDROOT
BRANCH  13  18
ATOM     18  C   UNL     1      -1.935  -4.103  -0.547  0.00  0.00    +0.213 C 
BRANCH  18  19
ATOM     19  C   UNL     1      -1.590  -5.514  -0.949  0.00  0.00    +0.231 C 
ATOM     20  O   UNL     1      -0.445  -5.906  -0.865  0.00  0.00    -0.274 OA
ATOM     21  N   UNL     1      -2.553  -6.341  -1.401  0.00  0.00    -0.310 N 
ATOM     22  H   UNL     1      -3.469  -6.027  -1.468  0.00  0.00    +0.149 HD
BRANCH  21  23
ATOM     23  C   UNL     1      -2.218  -7.713  -1.791  0.00  0.00    +0.139 C 
BRANCH  23  24
ATOM     24  C   UNL     1      -3.464  -8.421  -2.257  0.00  0.00    -0.030 A 
ATOM     25  C   UNL     1      -4.247  -9.110  -1.349  0.00  0.00    +0.006 A 
ATOM     26  C   UNL     1      -5.390  -9.760  -1.776  0.00  0.00    +0.020 A 
ATOM     27  C   UNL     1      -5.750  -9.721  -3.111  0.00  0.00    +0.041 A 
ATOM     28  C   UNL     1      -4.966  -9.031  -4.019  0.00  0.00    +0.020 A 
ATOM     29  C   UNL     1      -3.827  -8.377  -3.590  0.00  0.00    +0.006 A 
ATOM     30 CL   UNL     1      -7.185 -10.537  -3.648  0.00  0.00    -0.084 Cl
ENDBRANCH  23  24
ENDBRANCH  21  23
ENDBRANCH  18  19
ENDBRANCH  13  18
TORSDOF 4
