REMARK  Name = ZINC15672805
REMARK  5 active torsions:
REMARK  status: ('A' for Active; 'I' for Inactive)
REMARK    1  A    between atoms: C_1  and  C_2
REMARK    2  A    between atoms: C_2  and  C_22
REMARK    3  A    between atoms: N_14  and  C_15
REMARK    4  A    between atoms: C_15  and  C_16
REMARK    5  A    between atoms: N_24  and  C_25
REMARK                            x       y       z     vdW  Elec       q    Type
REMARK                         _______ _______ _______ _____ _____    ______ ____
ROOT
ATOM      1  C   UNL     1       5.075   0.635  -2.280  0.00  0.00    +0.043 C 
ATOM      2  C   UNL     1       4.798   0.107  -0.871  0.00  0.00    +0.129 C 
ATOM      3  C   UNL     1       3.327  -0.297  -0.776  0.00  0.00    +0.157 C 
ATOM      4  N   UNL     1       2.502   0.911  -0.702  0.00  0.00    -0.333 N 
ATOM      5  C   UNL     1       1.200   1.100  -1.127  0.00  0.00    +0.057 A 
ATOM      6  C   UNL     1       0.177   0.375  -1.755  0.00  0.00    +0.034 A 
ATOM      7  C   UNL     1      -1.015   0.958  -2.003  0.00  0.00    +0.048 A 
ATOM      8  S   UNL     1      -0.789   2.603  -1.350  0.00  0.00    -0.095 S 
ATOM      9  C   UNL     1       0.886   2.426  -0.791  0.00  0.00    +0.038 A 
ATOM     10  C   UNL     1       1.983   3.024  -0.184  0.00  0.00    +0.048 A 
ATOM     11  C   UNL     1       2.975   2.090  -0.137  0.00  0.00    +0.106 A 
ATOM     12  C   UNL     1       4.347   2.179   0.378  0.00  0.00    +0.264 C 
ATOM     13  O   UNL     1       4.731   3.138   1.022  0.00  0.00    -0.268 OA
ATOM     14  N   UNL     1       5.162   1.135   0.096  0.00  0.00    -0.278 N 
ENDROOT
BRANCH   2  15
ATOM     15  C   UNL     1       5.654  -1.110  -0.633  0.00  0.00    +0.238 C 
ATOM     16  O   UNL     1       6.571  -1.363  -1.386  0.00  0.00    -0.273 OA
ATOM     17  N   UNL     1       5.401  -1.917   0.416  0.00  0.00    -0.311 N 
ATOM     18  H   UNL     1       4.719  -1.675   1.061  0.00  0.00    +0.149 HD
BRANCH  17  19
ATOM     19  C   UNL     1       6.157  -3.161   0.582  0.00  0.00    +0.073 C 
ATOM     20  C   UNL     1       5.529  -4.259  -0.280  0.00  0.00    +0.022 C 
ATOM     21  C   UNL     1       6.515  -5.419  -0.426  0.00  0.00    +0.002 C 
ATOM     22  C   UNL     1       7.913  -4.869  -0.714  0.00  0.00    +0.000 C 
ATOM     23  C   UNL     1       8.831  -5.162   0.475  0.00  0.00    +0.000 C 
ATOM     24  C   UNL     1       8.509  -4.196   1.617  0.00  0.00    +0.000 C 
ATOM     25  C   UNL     1       7.213  -4.631   2.304  0.00  0.00    +0.002 C 
ATOM     26  C   UNL     1       6.125  -3.585   2.051  0.00  0.00    +0.022 C 
ENDBRANCH  17  19
ENDBRANCH   2  15
BRANCH  14  27
ATOM     27  C   UNL     1       6.451   1.036   0.786  0.00  0.00    +0.140 C 
BRANCH  27  28
ATOM     28  C   UNL     1       6.249   0.373   2.151  0.00  0.00    +0.136 C 
ATOM     29  C   UNL     1       7.606   0.231   2.885  0.00  0.00    +0.035 C 
ATOM     30  C   UNL     1       7.136   0.182   4.365  0.00  0.00    +0.031 C 
ATOM     31  C   UNL     1       5.913   1.125   4.351  0.00  0.00    +0.160 C 
ATOM     32  O   UNL     1       5.449   1.212   2.999  0.00  0.00    -0.375 OA
ENDBRANCH  27  28
ENDBRANCH  14  27
TORSDOF 4
