REMARK  Name = ZINC00291061
REMARK  4 active torsions:
REMARK  status: ('A' for Active; 'I' for Inactive)
REMARK    1  A    between atoms: C_9  and  C_12
REMARK    2  A    between atoms: N_14  and  N_15
REMARK    3  A    between atoms: C_16  and  C_17
REMARK    4  A    between atoms: C_22  and  O_23
REMARK                            x       y       z     vdW  Elec       q    Type
REMARK                         _______ _______ _______ _____ _____    ______ ____
ROOT
ATOM      1  C   UNL     1      -1.210   7.309   0.025  0.00  0.00    +0.276 C 
ATOM      2  O   UNL     1      -0.256   7.742  -0.587  0.00  0.00    -0.270 OA
ATOM      3  N   UNL     1      -2.222   8.132   0.364  0.00  0.00    -0.204 N 
ATOM      4  H   UNL     1      -2.985   7.786   0.854  0.00  0.00    +0.177 HD
ENDROOT
BRANCH   1  13
ATOM      5  C   UNL     1      -0.013   1.076   0.008  0.00  0.00    +0.004 A 
ATOM      6  C   UNL     1       1.176   1.782   0.000  0.00  0.00    +0.004 A 
ATOM      7  C   UNL     1       1.161   3.164   0.007  0.00  0.00    +0.049 A 
ATOM      8  C   UNL     1      -0.046   3.846   0.020  0.00  0.00    +0.163 A 
ATOM      9  C   UNL     1      -1.241   3.136   0.030  0.00  0.00    +0.162 A 
ATOM     10  C   UNL     1      -1.219   1.749   0.017  0.00  0.00    +0.049 A 
ATOM     11  O   UNL     1      -2.437   3.785   0.048  0.00  0.00    -0.484 OA
ATOM     12  C   UNL     1      -2.424   5.167  -0.326  0.00  0.00    +0.283 C 
ATOM     13  C   UNL     1      -1.263   5.852   0.407  0.00  0.00    +0.297 C 
ATOM     14  O   UNL     1      -0.045   5.207   0.019  0.00  0.00    -0.472 OA
ENDBRANCH   1  13
BRANCH   3  15
ATOM     15  N   UNL     1      -2.173   9.486   0.009  0.00  0.00    -0.187 NA
ATOM     16  C   UNL     1      -3.148  10.279   0.336  0.00  0.00    +0.142 C 
BRANCH  16  17
ATOM     17  C   UNL     1      -3.096  11.703  -0.038  0.00  0.00    +0.037 A 
ATOM     18  C   UNL     1      -4.146  12.558   0.307  0.00  0.00    +0.033 A 
ATOM     19  C   UNL     1      -4.089  13.892  -0.042  0.00  0.00    +0.042 A 
ATOM     20  C   UNL     1      -2.999  14.385  -0.741  0.00  0.00    +0.023 A 
ATOM     21  C   UNL     1      -1.957  13.547  -1.091  0.00  0.00    +0.047 A 
ATOM     22  C   UNL     1      -1.996  12.207  -0.745  0.00  0.00    +0.126 A 
ATOM     23 CL   UNL     1      -5.391  14.956   0.392  0.00  0.00    -0.084 Cl
BRANCH  22  24
ATOM     24  O   UNL     1      -0.972  11.384  -1.089  0.00  0.00    -0.506 OA
ATOM     25  H   UNL     1      -1.081  10.960  -1.951  0.00  0.00    +0.292 HD
ENDBRANCH  22  24
ENDBRANCH  16  17
ENDBRANCH   3  15
TORSDOF 4
