REMARK  Name = ZINC06280947
REMARK  5 active torsions:
REMARK  status: ('A' for Active; 'I' for Inactive)
REMARK    1  A    between atoms: C_1  and  C_2
REMARK    2  A    between atoms: C_9  and  C_11
REMARK    3  A    between atoms: C_12  and  C_32
REMARK    4  A    between atoms: C_16  and  C_31
REMARK    5  A    between atoms: C_22  and  C_24
REMARK                            x       y       z     vdW  Elec       q    Type
REMARK                         _______ _______ _______ _____ _____    ______ ____
ROOT
ATOM      1  C   UNL     1      -0.068  -6.115  -0.836  0.00  0.00    +0.044 C 
ATOM      2  C   UNL     1      -0.094  -6.681  -2.062  0.00  0.00    +0.047 C 
ATOM      3  N   UNL     1      -0.226  -8.012  -2.208  0.00  0.00    -0.260 NA
ATOM      4  C   UNL     1      -0.012  -8.835  -1.242  0.00  0.00    +0.031 C 
ATOM      5  C   UNL     1      -0.191 -10.320  -1.425  0.00  0.00    +0.055 C 
ATOM      6  C   UNL     1      -1.274 -10.858  -0.497  0.00  0.00    -0.002 C 
ATOM      7  C   UNL     1      -1.417 -10.026   0.770  0.00  0.00    +0.078 C 
ATOM      8  C   UNL     1      -0.114  -9.348   1.120  0.00  0.00    +0.143 C 
ATOM      9  O   UNL     1       0.468  -9.595   2.149  0.00  0.00    -0.297 OA
ATOM     10  C   UNL     1       0.433  -8.341   0.122  0.00  0.00    +0.111 C 
ATOM     11  C   UNL     1      -0.212  -6.982   0.391  0.00  0.00    +0.071 C 
ATOM     12  C   UNL     1      -2.610 -10.857  -1.242  0.00  0.00    +0.008 C 
ATOM     13  C   UNL     1       0.025  -5.808  -3.284  0.00  0.00    +0.066 C 
ENDROOT
BRANCH   1  22
ATOM     14  C   UNL     1       0.239   1.511   0.892  0.00  0.00    +0.045 C 
ATOM     15  C   UNL     1       0.167   0.007   0.828  0.00  0.00    -0.032 A 
ATOM     16  C   UNL     1      -0.118  -0.730   1.969  0.00  0.00    +0.008 A 
ATOM     17  C   UNL     1      -0.175  -2.109   1.867  0.00  0.00    +0.044 A 
ATOM     18  C   UNL     1       0.055  -2.705   0.632  0.00  0.00    +0.125 A 
ATOM     19  N   UNL     1       0.325  -1.967  -0.434  0.00  0.00    -0.240 NA
ATOM     20  C   UNL     1       0.379  -0.651  -0.367  0.00  0.00    +0.116 A 
ATOM     21  N   UNL     1       0.002  -4.092   0.515  0.00  0.00    -0.267 N 
ATOM     22  C   UNL     1       0.106  -4.671  -0.698  0.00  0.00    +0.248 C 
ATOM     23  O   UNL     1       0.343  -3.990  -1.679  0.00  0.00    -0.270 OA
ATOM     24  H   UNL     1      -0.109  -4.642   1.306  0.00  0.00    +0.157 HD
ENDBRANCH   1  22
BRANCH  11  25
ATOM     25  C   UNL     1      -1.673  -7.175   0.703  0.00  0.00    -0.039 A 
ATOM     26  C   UNL     1      -2.118  -7.089   2.010  0.00  0.00    +0.005 A 
ATOM     27  C   UNL     1      -3.458  -7.266   2.297  0.00  0.00    +0.015 A 
ATOM     28  C   UNL     1      -4.355  -7.529   1.277  0.00  0.00    +0.018 A 
ATOM     29  C   UNL     1      -3.910  -7.615  -0.030  0.00  0.00    +0.015 A 
ATOM     30  C   UNL     1      -2.570  -7.433  -0.317  0.00  0.00    +0.005 A 
ATOM     31 BR   UNL     1      -6.189  -7.772   1.669  0.00  0.00    -0.050 Br
ENDBRANCH  11  25
TORSDOF 2
