REMARK  Name = ZINC38742877
REMARK  6 active torsions:
REMARK  status: ('A' for Active; 'I' for Inactive)
REMARK    1  A    between atoms: C_1  and  C_2
REMARK    2  A    between atoms: C_2  and  C_3
REMARK    3  A    between atoms: C_2  and  C_4
REMARK    4  A    between atoms: C_6  and  C_10
REMARK    5  A    between atoms: C_16  and  C_19
REMARK    6  A    between atoms: C_22  and  C_25
REMARK                            x       y       z     vdW  Elec       q    Type
REMARK                         _______ _______ _______ _____ _____    ______ ____
ROOT
ATOM      1  C   UNL     1      -3.603  -3.012  -0.224  0.00  0.00    +0.181 A 
ATOM      2  N   UNL     1      -3.170  -3.704   0.788  0.00  0.00    -0.129 NA
ATOM      3  N   UNL     1      -3.545  -4.930   0.677  0.00  0.00    -0.121 NA
ATOM      4  C   UNL     1      -4.220  -5.077  -0.420  0.00  0.00    +0.211 A 
ATOM      5  N   UNL     1      -4.330  -3.859  -1.041  0.00  0.00    -0.222 N 
ATOM      6  N   UNL     1      -5.063  -3.760  -2.186  0.00  0.00    -0.265 N 
ATOM      7  C   UNL     1      -5.260  -5.039  -2.919  0.00  0.00    +0.182 C 
ATOM      8  S   UNL     1      -5.088  -6.199  -1.495  0.00  0.00    -0.058 S 
ATOM      9  H   UNL     1      -5.946  -3.304  -2.012  0.00  0.00    +0.168 HD
ENDROOT
BRANCH   1  12
ATOM     10  C   UNL     1      -1.412  -0.526   0.013  0.00  0.00    +0.064 C 
ATOM     11  C   UNL     1      -1.940  -1.303  -0.935  0.00  0.00    +0.034 C 
ATOM     12  C   UNL     1      -3.362  -1.543  -0.460  0.00  0.00    +0.222 C 
ATOM     13  N   UNL     1      -3.420  -0.792   0.805  0.00  0.00    -0.172 NA
ATOM     14  N   UNL     1      -2.315  -0.275   0.986  0.00  0.00    -0.158 NA
BRANCH  10  16
ATOM     15  C   UNL     1      -0.019   1.526   0.010  0.00  0.00    +0.014 C 
ATOM     16  C   UNL     1       0.002  -0.004   0.002  0.00  0.00    +0.033 C 
ATOM     17  C   UNL     1       0.742  -0.511   1.242  0.00  0.00    +0.014 C 
ENDBRANCH  10  16
ENDBRANCH   1  12
BRANCH   7  18
ATOM     18  C   UNL     1      -6.650  -5.117  -3.553  0.00  0.00    +0.185 C 
ATOM     19  C   UNL     1      -6.808  -6.405  -4.342  0.00  0.00    +0.034 C 
ATOM     20  C   UNL     1      -7.022  -5.985  -5.604  0.00  0.00    +0.091 C 
ATOM     21  N   UNL     1      -7.011  -4.628  -5.661  0.00  0.00    -0.154 NA
ATOM     22  N   UNL     1      -6.815  -4.070  -4.575  0.00  0.00    -0.177 NA
BRANCH  20  23
ATOM     23  C   UNL     1      -7.239  -6.880  -6.768  0.00  0.00    +0.002 A 
ATOM     24  C   UNL     1      -7.236  -8.263  -6.597  0.00  0.00    +0.010 A 
ATOM     25  C   UNL     1      -7.439  -9.090  -7.683  0.00  0.00    +0.001 A 
ATOM     26  C   UNL     1      -7.644  -8.549  -8.939  0.00  0.00    +0.000 A 
ATOM     27  C   UNL     1      -7.648  -7.177  -9.114  0.00  0.00    +0.001 A 
ATOM     28  C   UNL     1      -7.452  -6.340  -8.034  0.00  0.00    +0.010 A 
ENDBRANCH  20  23
ENDBRANCH   7  18
TORSDOF 4
