REMARK  Name = ZINC08752301
REMARK  8 active torsions:
REMARK  status: ('A' for Active; 'I' for Inactive)
REMARK    1  A    between atoms: C_1  and  C_2
REMARK    2  A    between atoms: C_2  and  C_3
REMARK    3  A    between atoms: C_5  and  S_23
REMARK    4  A    between atoms: C_7  and  C_22
REMARK    5  A    between atoms: C_8  and  N_9
REMARK    6  A    between atoms: C_10  and  C_12
REMARK    7  A    between atoms: C_18  and  C_20
REMARK    8  A    between atoms: S_23  and  C_24
REMARK                            x       y       z     vdW  Elec       q    Type
REMARK                         _______ _______ _______ _____ _____    ______ ____
ROOT
ATOM      1  N   UNL     1       0.319   1.098   0.545  0.00  0.00    -0.285 N 
ATOM      2  C   UNL     1      -0.107   0.434  -0.547  0.00  0.00    +0.221 C 
ATOM      3  O   UNL     1       0.334   0.719  -1.641  0.00  0.00    -0.275 OA
ATOM      4  H   UNL     1      -0.077   0.911   1.411  0.00  0.00    +0.155 HD
ENDROOT
BRANCH   1  10
ATOM      5  C   UNL     1       1.116   3.350   0.899  0.00  0.00    -0.025 A 
ATOM      6  C   UNL     1       2.114   4.298   0.791  0.00  0.00    +0.021 A 
ATOM      7  C   UNL     1       3.327   3.965   0.203  0.00  0.00    +0.023 A 
ATOM      8  C   UNL     1       3.539   2.676  -0.271  0.00  0.00    +0.021 A 
ATOM      9  C   UNL     1       2.543   1.727  -0.158  0.00  0.00    -0.028 A 
ATOM     10  C   UNL     1       1.329   2.061   0.430  0.00  0.00    +0.040 A 
ATOM     11  C   UNL     1       2.772   0.330  -0.672  0.00  0.00    +0.046 C 
BRANCH   5  13
ATOM     12  C   UNL     1      -0.179   3.336   3.014  0.00  0.00    +0.009 C 
ATOM     13  C   UNL     1      -0.203   3.714   1.532  0.00  0.00    +0.033 C 
ENDBRANCH   5  13
BRANCH   7  14
ATOM     14  S   UNL     1       4.599   5.176   0.059  0.00  0.00    -0.010 S 
BRANCH  14  15
ATOM     15  C   UNL     1       5.881   4.190  -0.752  0.00  0.00    +0.138 C 
ATOM     16  N   UNL     1       6.687   3.572  -1.262  0.00  0.00    -0.183 NA
ENDBRANCH  14  15
ENDBRANCH   7  14
ENDBRANCH   1  10
BRANCH   2  17
ATOM     17  C   UNL     1      -1.132  -0.663  -0.411  0.00  0.00    +0.093 C 
ATOM     18  C   UNL     1      -0.767  -1.826  -1.337  0.00  0.00    +0.040 C 
ATOM     19  C   UNL     1      -0.976  -1.431  -2.769  0.00  0.00    -0.030 C 
ATOM     20  C   UNL     1      -1.687  -0.417  -3.146  0.00  0.00    -0.030 C 
ATOM     21  C   UNL     1      -2.393   0.512  -2.203  0.00  0.00    +0.042 C 
ATOM     22  C   UNL     1      -2.512  -0.132  -0.820  0.00  0.00    +0.118 C 
BRANCH  22  23
ATOM     23  C   UNL     1      -2.976   0.896   0.180  0.00  0.00    +0.360 C 
ATOM     24  O   UNL     1      -2.277   1.179   1.124  0.00  0.00    -0.246 OA
ATOM     25  O   UNL     1      -4.165   1.498   0.021  0.00  0.00    -0.246 OA
ENDBRANCH  22  23
ENDBRANCH   2  17
TORSDOF 6
