REMARK  Name = ZINC39559087
REMARK  7 active torsions:
REMARK  status: ('A' for Active; 'I' for Inactive)
REMARK    1  A    between atoms: C_1  and  C_2
REMARK    2  A    between atoms: C_3  and  C_27
REMARK    3  A    between atoms: C_5  and  C_26
REMARK    4  A    between atoms: C_6  and  C_7
REMARK    5  A    between atoms: N_9  and  C_10
REMARK    6  A    between atoms: C_10  and  C_11
REMARK    7  A    between atoms: N_13  and  C_14
REMARK                            x       y       z     vdW  Elec       q    Type
REMARK                         _______ _______ _______ _____ _____    ______ ____
ROOT
ATOM      1  C   UNL     1       2.638   0.234   5.112  0.00  0.00    +0.234 C 
ATOM      2  O   UNL     1       3.555   0.027   4.345  0.00  0.00    -0.274 OA
ATOM      3  N   UNL     1       2.892   0.593   6.386  0.00  0.00    -0.284 N 
ATOM      4  H   UNL     1       2.161   0.824   6.980  0.00  0.00    +0.155 HD
ENDROOT
BRANCH   3   5
ATOM      5  C   UNL     1       4.213   0.633   6.852  0.00  0.00    +0.036 A 
ATOM      6  C   UNL     1       4.497   0.272   8.164  0.00  0.00    +0.025 A 
ATOM      7  C   UNL     1       5.795   0.309   8.629  0.00  0.00    +0.029 A 
ATOM      8  C   UNL     1       6.821   0.708   7.786  0.00  0.00    +0.067 A 
ATOM      9  C   UNL     1       6.540   1.072   6.467  0.00  0.00    +0.069 A 
ATOM     10  C   UNL     1       5.235   1.028   6.002  0.00  0.00    +0.051 A 
ATOM     11  N   UNL     1       7.753   1.419   5.877  0.00  0.00    -0.306 N 
ATOM     12  H   UNL     1       7.874   1.716   4.961  0.00  0.00    +0.170 HD
ATOM     13  C   UNL     1       8.728   1.274   6.793  0.00  0.00    +0.325 A 
ATOM     14  O   UNL     1       9.909   1.496   6.601  0.00  0.00    -0.247 OA
ATOM     15  N   UNL     1       8.199   0.846   7.955  0.00  0.00    -0.306 N 
ATOM     16  H   UNL     1       8.691   0.666   8.771  0.00  0.00    +0.170 HD
ENDBRANCH   3   5
BRANCH   1  17
ATOM     17  C   UNL     1       1.214   0.090   4.639  0.00  0.00    +0.200 C 
BRANCH  17  20
ATOM     18  C   UNL     1       0.034  -0.494   2.589  0.00  0.00    +0.248 C 
ATOM     19  O   UNL     1      -1.016  -0.336   3.183  0.00  0.00    -0.270 OA
ATOM     20  N   UNL     1       1.205  -0.305   3.229  0.00  0.00    -0.303 N 
ATOM     21  H   UNL     1       2.042  -0.431   2.755  0.00  0.00    +0.150 HD
BRANCH  18  27
ATOM     22  C   UNL     1      -0.000   1.504   0.002  0.00  0.00    +0.048 C 
ATOM     23  C   UNL     1       0.010  -0.003  -0.002  0.00  0.00    +0.003 A 
ATOM     24  C   UNL     1       0.013  -0.808  -1.075  0.00  0.00    +0.106 A 
ATOM     25  O   UNL     1       0.022  -2.087  -0.665  0.00  0.00    -0.464 OA
ATOM     26  C   UNL     1       0.025  -2.160   0.669  0.00  0.00    +0.115 A 
ATOM     27  C   UNL     1       0.025  -0.891   1.170  0.00  0.00    +0.080 A 
ATOM     28  C   UNL     1       0.035  -3.429   1.482  0.00  0.00    +0.087 C 
ATOM     29  C   UNL     1       0.006  -0.351  -2.511  0.00  0.00    +0.086 C 
ENDBRANCH  18  27
ENDBRANCH  17  20
ENDBRANCH   1  17
TORSDOF 4
