REMARK  Name = ZINC38889644
REMARK  6 active torsions:
REMARK  status: ('A' for Active; 'I' for Inactive)
REMARK    1  A    between atoms: C_1  and  O_2
REMARK    2  A    between atoms: O_2  and  C_3
REMARK    3  A    between atoms: C_5  and  C_11
REMARK    4  A    between atoms: C_8  and  O_9
REMARK    5  A    between atoms: N_12  and  N_13
REMARK    6  A    between atoms: C_14  and  C_20
REMARK                            x       y       z     vdW  Elec       q    Type
REMARK                         _______ _______ _______ _____ _____    ______ ____
ROOT
ATOM      1  C   UNL     1       2.380   0.346  -4.224  0.00  0.00    +0.138 C 
ATOM      2  N   UNL     1       2.971  -0.233  -5.225  0.00  0.00    -0.183 NA
ENDROOT
BRANCH   1   5
ATOM      3  C   UNL     1       0.575  -0.613  -1.075  0.00  0.00    +0.163 A 
ATOM      4  C   UNL     1       1.140   0.154  -2.076  0.00  0.00    +0.059 A 
ATOM      5  C   UNL     1       1.776  -0.467  -3.154  0.00  0.00    -0.001 A 
ATOM      6  C   UNL     1       1.839  -1.862  -3.214  0.00  0.00    +0.028 A 
ATOM      7  C   UNL     1       1.273  -2.621  -2.211  0.00  0.00    +0.063 A 
ATOM      8  C   UNL     1       0.645  -2.003  -1.139  0.00  0.00    +0.173 A 
ATOM      9 BR   UNL     1       1.358  -4.508  -2.295  0.00  0.00    -0.046 Br
BRANCH   3  11
ATOM     10  C   UNL     1      -0.080   1.417  -0.024  0.00  0.00    +0.277 C 
ATOM     11  O   UNL     1      -0.045  -0.011  -0.025  0.00  0.00    -0.491 OA
ENDBRANCH   3  11
BRANCH   8  12
ATOM     12  O   UNL     1       0.093  -2.756  -0.150  0.00  0.00    -0.503 OA
ATOM     13  H   UNL     1      -0.831  -2.992  -0.305  0.00  0.00    +0.292 HD
ENDBRANCH   8  12
ENDBRANCH   1   5
BRANCH   2  14
ATOM     14  N   UNL     1       3.452   0.534  -6.295  0.00  0.00    -0.172 N 
ATOM     15  C   UNL     1       4.031   0.053  -7.562  0.00  0.00    +0.264 C 
ATOM     16  N   UNL     1       4.354   1.288  -8.293  0.00  0.00    -0.189 NA
ATOM     17  N   UNL     1       4.027   2.247  -7.589  0.00  0.00    -0.219 N 
ATOM     18  C   UNL     1       3.483   1.881  -6.398  0.00  0.00    +0.174 C 
ATOM     19  S   UNL     1       2.922   2.970  -5.201  0.00  0.00    -0.015 S 
ATOM     20  H   UNL     1       4.143   3.171  -7.861  0.00  0.00    +0.176 HD
BRANCH  15  21
ATOM     21  C   UNL     1       5.278  -0.752  -7.302  0.00  0.00    -0.002 A 
ATOM     22  C   UNL     1       5.404  -1.471  -6.128  0.00  0.00    +0.007 A 
ATOM     23  C   UNL     1       6.548  -2.210  -5.889  0.00  0.00    +0.000 A 
ATOM     24  C   UNL     1       7.565  -2.230  -6.825  0.00  0.00    +0.000 A 
ATOM     25  C   UNL     1       7.438  -1.513  -8.000  0.00  0.00    +0.000 A 
ATOM     26  C   UNL     1       6.293  -0.777  -8.240  0.00  0.00    +0.007 A 
ENDBRANCH  15  21
ENDBRANCH   2  14
TORSDOF 5
