REMARK  Name = ZINC38759910
REMARK  11 active torsions:
REMARK  status: ('A' for Active; 'I' for Inactive)
REMARK    1  A    between atoms: C_1  and  C_2
REMARK    2  A    between atoms: C_5  and  C_8
REMARK    3  A    between atoms: C_8  and  O_9
REMARK    4  A    between atoms: O_9  and  C_10
REMARK    5  A    between atoms: C_13  and  C_17
REMARK    6  A    between atoms: C_14  and  O_16
REMARK    7  A    between atoms: C_19  and  O_24
REMARK    8  A    between atoms: C_20  and  C_23
REMARK    9  A    between atoms: O_24  and  C_25
REMARK   10  A    between atoms: C_29  and  O_31
REMARK   11  A    between atoms: O_31  and  C_32
REMARK                            x       y       z     vdW  Elec       q    Type
REMARK                         _______ _______ _______ _____ _____    ______ ____
ROOT
ATOM      1  C   UNL     1       1.721  -5.686   0.366  0.00  0.00    +0.124 A 
ATOM      2  C   UNL     1       0.649  -6.537   0.135  0.00  0.00    +0.046 A 
ATOM      3  C   UNL     1       0.861  -7.895  -0.002  0.00  0.00    +0.013 A 
ATOM      4  C   UNL     1       2.140  -8.410   0.091  0.00  0.00    +0.025 A 
ATOM      5  C   UNL     1       3.215  -7.564   0.322  0.00  0.00    +0.126 A 
ATOM      6  C   UNL     1       3.005  -6.199   0.454  0.00  0.00    +0.091 A 
ENDROOT
BRANCH   4   7
ATOM      7  C   UNL     1       2.367  -9.892  -0.057  0.00  0.00    +0.200 C 
ATOM      8  C   UNL     1       2.340 -10.579   1.297  0.00  0.00    +0.156 C 
ATOM      9  C   UNL     1       1.302 -11.435   1.200  0.00  0.00    +0.098 C 
ATOM     10  N   UNL     1       0.727 -11.346  -0.004  0.00  0.00    -0.179 NA
ATOM     11  N   UNL     1       1.244 -10.524  -0.771  0.00  0.00    -0.294 N 
ATOM     12  C   UNL     1       0.852 -12.364   2.298  0.00  0.00    +0.071 C 
ATOM     13  H   UNL     1       0.961 -10.328  -1.678  0.00  0.00    +0.184 HD
BRANCH   8  14
ATOM     14  O   UNL     1       3.162 -10.381   2.350  0.00  0.00    -0.456 OA
BRANCH  14  15
ATOM     15  C   UNL     1       4.466 -10.741   2.219  0.00  0.00    +0.132 A 
ATOM     16  C   UNL     1       4.894 -11.393   1.070  0.00  0.00    +0.046 A 
ATOM     17  C   UNL     1       6.219 -11.758   0.936  0.00  0.00    +0.007 A 
ATOM     18  C   UNL     1       7.122 -11.476   1.944  0.00  0.00    +0.046 A 
ATOM     19  C   UNL     1       6.699 -10.825   3.094  0.00  0.00    +0.124 A 
ATOM     20  C   UNL     1       5.371 -10.451   3.228  0.00  0.00    +0.091 A 
BRANCH  19  21
ATOM     21  O   UNL     1       7.587 -10.548   4.084  0.00  0.00    -0.495 OA
ATOM     22  C   UNL     1       8.941 -10.957   3.875  0.00  0.00    +0.277 C 
ENDBRANCH  19  21
ENDBRANCH  14  15
ENDBRANCH   8  14
ENDBRANCH   4   7
BRANCH   5  23
ATOM     23  O   UNL     1       4.472  -8.071   0.414  0.00  0.00    -0.506 OA
ATOM     24  H   UNL     1       4.941  -8.114  -0.431  0.00  0.00    +0.292 HD
ENDBRANCH   5  23
BRANCH   1  25
ATOM     25  O   UNL     1       1.512  -4.350   0.501  0.00  0.00    -0.487 OA
BRANCH  25  26
ATOM     26  C   UNL     1       0.162  -3.891   0.399  0.00  0.00    +0.264 C 
BRANCH  26  31
ATOM     27  C   UNL     1       0.021   1.848   1.064  0.00  0.00    +0.044 C 
ATOM     28  C   UNL     1       0.058   0.351   0.891  0.00  0.00    -0.050 A 
ATOM     29  C   UNL     1       0.212  -0.195  -0.370  0.00  0.00    +0.004 A 
ATOM     30  C   UNL     1       0.246  -1.568  -0.529  0.00  0.00    +0.007 A 
ATOM     31  C   UNL     1       0.126  -2.394   0.573  0.00  0.00    -0.010 A 
ATOM     32  C   UNL     1      -0.028  -1.848   1.833  0.00  0.00    +0.007 A 
ATOM     33  C   UNL     1      -0.057  -0.475   1.993  0.00  0.00    +0.004 A 
ENDBRANCH  26  31
ENDBRANCH  25  26
ENDBRANCH   1  25
TORSDOF 8
