REMARK  Name = ZINC50535963
REMARK  5 active torsions:
REMARK  status: ('A' for Active; 'I' for Inactive)
REMARK    1  A    between atoms: C_4  and  N_18
REMARK    2  A    between atoms: C_5  and  N_7
REMARK    3  A    between atoms: N_7  and  N_8
REMARK    4  A    between atoms: C_9  and  C_11
REMARK    5  A    between atoms: C_12  and  C_13
REMARK                            x       y       z     vdW  Elec       q    Type
REMARK                         _______ _______ _______ _____ _____    ______ ____
ROOT
ATOM      1  N   UNL     1       1.098  -2.035   0.472  0.00  0.00    -0.262 N 
ATOM      2  H   UNL     1       1.920  -2.547   0.526  0.00  0.00    +0.170 HD
ENDROOT
BRANCH   1   7
ATOM      3  C   UNL     1       0.030   1.454   0.031  0.00  0.00    +0.002 A 
ATOM      4  C   UNL     1       1.240   2.065  -0.243  0.00  0.00    +0.002 A 
ATOM      5  C   UNL     1       2.403   1.317  -0.280  0.00  0.00    +0.034 A 
ATOM      6  C   UNL     1       2.359  -0.043  -0.043  0.00  0.00    +0.148 A 
ATOM      7  C   UNL     1       1.145  -0.659   0.233  0.00  0.00    +0.075 A 
ATOM      8  C   UNL     1      -0.021   0.095   0.269  0.00  0.00    +0.027 A 
BRANCH   6   9
ATOM      9  N   UNL     1       3.604  -0.842  -0.083  0.00  0.00    +0.058 N 
ATOM     10  O   UNL     1       4.636  -0.375   0.339  0.00  0.00    -0.126 OA
ATOM     11  O   UNL     1       3.589  -1.963  -0.537  0.00  0.00    -0.126 OA
ENDBRANCH   6   9
ENDBRANCH   1   7
BRANCH   1  12
ATOM     12  N   UNL     1      -0.138  -2.675   0.636  0.00  0.00    -0.233 N 
ATOM     13  C   UNL     1      -0.184  -4.002   0.867  0.00  0.00    +0.253 C 
ATOM     14  O   UNL     1       0.848  -4.644   0.934  0.00  0.00    -0.269 OA
ATOM     15  H   UNL     1      -0.960  -2.163   0.582  0.00  0.00    +0.173 HD
BRANCH  13  16
ATOM     16  C   UNL     1      -1.434  -4.649   1.032  0.00  0.00    +0.071 C 
ATOM     17  C   UNL     1      -1.480  -5.981   1.264  0.00  0.00    +0.033 C 
BRANCH  17  18
ATOM     18  C   UNL     1      -2.774  -6.651   1.435  0.00  0.00    +0.071 A 
ATOM     19  C   UNL     1      -2.873  -8.008   1.679  0.00  0.00    +0.074 A 
ATOM     20  S   UNL     1      -4.534  -8.234   1.787  0.00  0.00    -0.083 S 
ATOM     21  C   UNL     1      -5.043  -6.656   1.528  0.00  0.00    +0.156 A 
ATOM     22  N   UNL     1      -3.933  -5.987   1.371  0.00  0.00    -0.248 NA
ENDBRANCH  17  18
ENDBRANCH  13  16
ENDBRANCH   1  12
TORSDOF 5
