REMARK  Name = ZINC19085717
REMARK  9 active torsions:
REMARK  status: ('A' for Active; 'I' for Inactive)
REMARK    1  A    between atoms: C_1  and  C_2
REMARK    2  A    between atoms: C_2  and  C_3
REMARK    3  A    between atoms: C_2  and  C_4
REMARK    4  A    between atoms: C_14  and  C_16
REMARK    5  A    between atoms: C_16  and  C_18
REMARK    6  A    between atoms: C_16  and  O_32
REMARK    7  A    between atoms: C_18  and  N_65
REMARK    8  A    between atoms: C_21  and  C_24
REMARK    9  A    between atoms: C_21  and  O_31
REMARK                            x       y       z     vdW  Elec       q    Type
REMARK                         _______ _______ _______ _____ _____    ______ ____
ROOT
ATOM      1  C   UNL     1      -0.570   6.000  -2.593  0.00  0.00    +0.128 C 
ENDROOT
BRANCH   1  12
ATOM      2  C   UNL     1      -3.980   7.691  -7.803  0.00  0.00    +0.222 C 
ATOM      3  O   UNL     1      -2.826   8.040  -7.939  0.00  0.00    -0.275 OA
ATOM      4  N   UNL     1      -4.351   7.005  -6.704  0.00  0.00    -0.271 N 
ATOM      5  C   UNL     1      -5.728   6.513  -6.560  0.00  0.00    +0.114 C 
ATOM      6  C   UNL     1      -6.190   6.825  -5.130  0.00  0.00    +0.024 C 
ATOM      7  C   UNL     1      -5.311   6.052  -4.147  0.00  0.00    +0.038 C 
ATOM      8  C   UNL     1      -3.854   6.295  -4.440  0.00  0.00    -0.026 A 
ATOM      9  C   UNL     1      -3.430   6.748  -5.679  0.00  0.00    +0.039 A 
ATOM     10  C   UNL     1      -2.076   6.955  -5.918  0.00  0.00    +0.024 A 
ATOM     11  C   UNL     1      -1.154   6.718  -4.918  0.00  0.00    +0.008 A 
ATOM     12  C   UNL     1      -1.577   6.263  -3.683  0.00  0.00    -0.021 A 
ATOM     13  C   UNL     1      -2.922   6.054  -3.444  0.00  0.00    +0.011 A 
BRANCH   2  15
ATOM     14  C   UNL     1      -6.012   9.024  -8.297  0.00  0.00    +0.017 C 
ATOM     15  C   UNL     1      -4.998   8.026  -8.862  0.00  0.00    +0.069 C 
ATOM     16  C   UNL     1      -4.293   8.644 -10.070  0.00  0.00    +0.017 C 
ENDBRANCH   2  15
ENDBRANCH   1  12
BRANCH   1  17
ATOM     17  O   UNL     1       0.431   7.020  -2.614  0.00  0.00    -0.389 OA
ATOM     18  H   UNL     1       0.920   7.074  -3.447  0.00  0.00    +0.210 HD
ENDBRANCH   1  17
BRANCH   1  19
ATOM     19  C   UNL     1       0.085   4.637  -2.822  0.00  0.00    -0.042 C 
BRANCH  19  25
ATOM     20  C   UNL     1       1.682   3.058  -1.917  0.00  0.00    -0.076 C 
ATOM     21  C   UNL     1       2.819   2.895  -0.906  0.00  0.00    +0.021 C 
ATOM     22  C   UNL     1       2.268   3.083   0.510  0.00  0.00    +0.088 C 
ATOM     23  C   UNL     1       1.612   4.462   0.616  0.00  0.00    +0.021 C 
ATOM     24  C   UNL     1       0.509   4.580  -0.439  0.00  0.00    -0.076 C 
ATOM     25  N   UNL     1       1.109   4.415  -1.780  0.00  0.00    +0.382 N 
ATOM     26  H   UNL     1       1.859   5.106  -1.897  0.00  0.00    -0.082 HD
BRANCH  22  27
ATOM     27  C   UNL     1       3.395   2.983   1.506  0.00  0.00    -0.016 A 
ATOM     28  C   UNL     1       4.674   3.364   1.143  0.00  0.00    +0.009 A 
ATOM     29  C   UNL     1       5.707   3.277   2.056  0.00  0.00    +0.039 A 
ATOM     30  C   UNL     1       5.463   2.800   3.333  0.00  0.00    +0.123 A 
ATOM     31  C   UNL     1       4.184   2.414   3.694  0.00  0.00    +0.039 A 
ATOM     32  C   UNL     1       3.151   2.506   2.780  0.00  0.00    +0.009 A 
ATOM     33  F   UNL     1       6.473   2.710   4.226  0.00  0.00    -0.205 F 
ENDBRANCH  22  27
BRANCH  22  34
ATOM     34  O   UNL     1       1.298   2.070   0.783  0.00  0.00    -0.384 OA
ATOM     35  H   UNL     1       0.906   2.128   1.665  0.00  0.00    +0.211 HD
ENDBRANCH  22  34
ENDBRANCH  19  25
ENDBRANCH   1  19
TORSDOF 7
