REMARK  Name = ZINC67570964
REMARK  10 active torsions:
REMARK  status: ('A' for Active; 'I' for Inactive)
REMARK    1  A    between atoms: C_1  and  C_2
REMARK    2  A    between atoms: C_2  and  C_3
REMARK    3  A    between atoms: C_2  and  C_4
REMARK    4  A    between atoms: N_6  and  C_7
REMARK    5  A    between atoms: C_7  and  C_8
REMARK    6  A    between atoms: C_8  and  N_9
REMARK    7  A    between atoms: N_12  and  C_13
REMARK    8  A    between atoms: C_13  and  C_14
REMARK    9  A    between atoms: N_19  and  C_21
REMARK   10  A    between atoms: C_21  and  C_22
REMARK                            x       y       z     vdW  Elec       q    Type
REMARK                         _______ _______ _______ _____ _____    ______ ____
ROOT
ATOM      1  N   UNL     1      -5.744  -0.713  -2.207  0.00  0.00    -0.298 N 
ATOM      2  C   UNL     1      -6.588  -0.394  -3.208  0.00  0.00    +0.300 C 
ATOM      3  O   UNL     1      -6.209   0.316  -4.120  0.00  0.00    -0.253 OA
ATOM      4  N   UNL     1      -7.853  -0.860  -3.199  0.00  0.00    -0.299 N 
ATOM      5  H   UNL     1      -6.047  -1.279  -1.480  0.00  0.00    +0.150 HD
ATOM      6  H   UNL     1      -8.155  -1.426  -2.471  0.00  0.00    +0.150 HD
ENDROOT
BRANCH   1   7
ATOM      7  C   UNL     1      -4.370  -0.206  -2.217  0.00  0.00    +0.124 C 
BRANCH   7   8
ATOM      8  C   UNL     1      -3.630  -0.713  -0.978  0.00  0.00    +0.123 C 
BRANCH   8  11
ATOM      9  C   UNL     1      -1.412  -0.526   0.013  0.00  0.00    +0.216 C 
ATOM     10  O   UNL     1      -1.790  -1.233   0.922  0.00  0.00    -0.276 OA
ATOM     11  N   UNL     1      -2.256  -0.206  -0.988  0.00  0.00    -0.314 N 
ATOM     12  H   UNL     1      -1.953   0.360  -1.716  0.00  0.00    +0.149 HD
BRANCH   9  14
ATOM     13  C   UNL     1      -0.019   1.526   0.010  0.00  0.00    +0.017 C 
ATOM     14  C   UNL     1       0.002  -0.004   0.002  0.00  0.00    +0.069 C 
ATOM     15  C   UNL     1       0.742  -0.511   1.242  0.00  0.00    +0.017 C 
ENDBRANCH   9  14
ENDBRANCH   8  11
ENDBRANCH   7   8
ENDBRANCH   1   7
BRANCH   4  16
ATOM     16  C   UNL     1      -8.770  -0.513  -4.287  0.00  0.00    +0.107 C 
BRANCH  16  17
ATOM     17  C   UNL     1     -10.130  -1.166  -4.035  0.00  0.00    -0.011 C 
ATOM     18  C   UNL     1     -10.759  -0.569  -2.773  0.00  0.00    +0.001 C 
ATOM     19  C   UNL     1     -12.152  -1.172  -2.574  0.00  0.00    -0.018 C 
ATOM     20  C   UNL     1     -12.998  -0.910  -3.822  0.00  0.00    -0.078 C 
ATOM     21  N   UNL     1     -12.358  -1.528  -4.989  0.00  0.00    +0.383 N 
ATOM     22  C   UNL     1     -11.051  -0.905  -5.230  0.00  0.00    -0.073 C 
ATOM     23  H   UNL     1     -12.233  -2.515  -4.820  0.00  0.00    -0.081 HD
BRANCH  21  24
ATOM     24  C   UNL     1     -13.212  -1.341  -6.170  0.00  0.00    -0.043 C 
BRANCH  24  25
ATOM     25  C   UNL     1     -14.505  -2.092  -5.979  0.00  0.00    -0.064 A 
ATOM     26  C   UNL     1     -14.608  -3.408  -6.392  0.00  0.00    +0.002 A 
ATOM     27  C   UNL     1     -15.793  -4.096  -6.217  0.00  0.00    +0.000 A 
ATOM     28  C   UNL     1     -16.876  -3.470  -5.628  0.00  0.00    +0.000 A 
ATOM     29  C   UNL     1     -16.772  -2.155  -5.213  0.00  0.00    +0.000 A 
ATOM     30  C   UNL     1     -15.585  -1.468  -5.385  0.00  0.00    +0.002 A 
ENDBRANCH  24  25
ENDBRANCH  21  24
ENDBRANCH  16  17
ENDBRANCH   4  16
TORSDOF 8
