REMARK  Name = ZINC15226040
REMARK  11 active torsions:
REMARK  status: ('A' for Active; 'I' for Inactive)
REMARK    1  A    between atoms: C_1  and  C_2
REMARK    2  A    between atoms: C_2  and  C_3
REMARK    3  A    between atoms: C_3  and  N_4
REMARK    4  A    between atoms: C_14  and  S_15
REMARK    5  A    between atoms: S_15  and  C_16
REMARK    6  A    between atoms: C_16  and  C_17
REMARK    7  A    between atoms: C_17  and  C_19
REMARK    8  A    between atoms: C_20  and  N_35
REMARK    9  A    between atoms: N_21  and  C_28
REMARK   10  A    between atoms: N_24  and  C_27
REMARK   11  A    between atoms: C_28  and  C_29
REMARK                            x       y       z     vdW  Elec       q    Type
REMARK                         _______ _______ _______ _____ _____    ______ ____
ROOT
ATOM      1  C   UNL     1      -2.998  -4.622   3.614  0.00  0.00    +0.120 A 
ATOM      2  C   UNL     1      -4.049  -5.488   3.263  0.00  0.00    +0.116 A 
ATOM      3  N   UNL     1      -4.212  -6.648   3.964  0.00  0.00    -0.277 N 
ATOM      4  C   UNL     1      -3.392  -6.973   4.976  0.00  0.00    +0.333 A 
ATOM      5  O   UNL     1      -3.578  -8.017   5.569  0.00  0.00    -0.246 OA
ATOM      6  N   UNL     1      -2.372  -6.186   5.357  0.00  0.00    -0.263 N 
ATOM      7  C   UNL     1      -2.123  -5.021   4.724  0.00  0.00    +0.269 A 
ATOM      8  O   UNL     1      -1.195  -4.313   5.068  0.00  0.00    -0.267 OA
ATOM      9  C   UNL     1      -1.515  -6.602   6.470  0.00  0.00    +0.157 C 
ENDROOT
BRANCH   2  10
ATOM     10  N   UNL     1      -4.890  -5.175   2.240  0.00  0.00    -0.344 N 
ATOM     11  H   UNL     1      -4.720  -4.391   1.695  0.00  0.00    +0.144 HD
ATOM     12  H   UNL     1      -5.660  -5.735   2.056  0.00  0.00    +0.144 HD
ENDBRANCH   2  10
BRANCH   1  13
ATOM     13  C   UNL     1      -2.788  -3.412   2.919  0.00  0.00    +0.182 C 
ATOM     14  O   UNL     1      -3.451  -3.154   1.935  0.00  0.00    -0.291 OA
BRANCH  13  15
ATOM     15  C   UNL     1      -1.742  -2.440   3.399  0.00  0.00    +0.157 C 
BRANCH  15  16
ATOM     16  S   UNL     1      -1.714  -0.997   2.307  0.00  0.00    -0.080 S 
BRANCH  16  27
ATOM     17  N   UNL     1      -0.103   1.153   2.535  0.00  0.00    -0.287 N 
ATOM     18  C   UNL     1       0.866   1.912   3.097  0.00  0.00    +0.262 A 
ATOM     19  O   UNL     1       1.174   2.992   2.628  0.00  0.00    -0.267 OA
ATOM     20  C   UNL     1       1.532   1.383   4.295  0.00  0.00    +0.065 A 
ATOM     21  C   UNL     1       2.541   2.089   4.949  0.00  0.00    +0.015 A 
ATOM     22  C   UNL     1       3.127   1.551   6.061  0.00  0.00    +0.001 A 
ATOM     23  C   UNL     1       2.728   0.312   6.545  0.00  0.00    +0.002 A 
ATOM     24  C   UNL     1       1.741  -0.401   5.925  0.00  0.00    +0.028 A 
ATOM     25  C   UNL     1       1.123   0.122   4.785  0.00  0.00    +0.079 A 
ATOM     26  N   UNL     1       0.144  -0.547   4.142  0.00  0.00    -0.223 NA
ATOM     27  C   UNL     1      -0.440  -0.054   3.078  0.00  0.00    +0.173 A 
BRANCH  17  28
ATOM     28  C   UNL     1      -0.800   1.632   1.339  0.00  0.00    +0.127 C 
BRANCH  28  30
ATOM     29  C   UNL     1      -0.784   1.656  -1.160  0.00  0.00    +0.005 C 
ATOM     30  C   UNL     1      -0.056   1.156   0.090  0.00  0.00    +0.018 C 
ENDBRANCH  28  30
ENDBRANCH  17  28
ENDBRANCH  16  27
ENDBRANCH  15  16
ENDBRANCH  13  15
ENDBRANCH   1  13
BRANCH   3  31
ATOM     31  C   UNL     1      -5.304  -7.557   3.606  0.00  0.00    +0.163 C 
BRANCH  31  32
ATOM     32  C   UNL     1      -4.820  -8.540   2.571  0.00  0.00    -0.028 A 
ATOM     33  C   UNL     1      -4.941  -8.244   1.227  0.00  0.00    +0.005 A 
ATOM     34  C   UNL     1      -4.493  -9.144   0.278  0.00  0.00    +0.000 A 
ATOM     35  C   UNL     1      -3.934 -10.344   0.674  0.00  0.00    +0.000 A 
ATOM     36  C   UNL     1      -3.817 -10.643   2.018  0.00  0.00    +0.000 A 
ATOM     37  C   UNL     1      -4.260  -9.740   2.967  0.00  0.00    +0.005 A 
ENDBRANCH  31  32
ENDBRANCH   3  31
TORSDOF 9
