REMARK  Name = ZINC04176363
REMARK  5 active torsions:
REMARK  status: ('A' for Active; 'I' for Inactive)
REMARK    1  A    between atoms: C_1  and  C_2
REMARK    2  A    between atoms: C_5  and  N_9
REMARK    3  A    between atoms: C_7  and  C_8
REMARK    4  A    between atoms: N_17  and  C_20
REMARK    5  A    between atoms: C_20  and  C_21
REMARK                            x       y       z     vdW  Elec       q    Type
REMARK                         _______ _______ _______ _____ _____    ______ ____
ROOT
ATOM      1  N   UNL     1       1.136   1.910   0.002  0.00  0.00    -0.228 N 
ATOM      2  C   UNL     1       0.035   1.311  -0.486  0.00  0.00    +0.270 A 
ATOM      3  O   UNL     1       0.095   0.181  -0.934  0.00  0.00    -0.266 OA
ATOM      4  C   UNL     1      -1.249   2.045  -0.476  0.00  0.00    +0.074 A 
ATOM      5  C   UNL     1      -2.559   1.591  -0.955  0.00  0.00    -0.023 A 
ATOM      6  C   UNL     1      -3.566   2.478  -0.829  0.00  0.00    -0.004 A 
ATOM      7  S   UNL     1      -2.830   3.897  -0.063  0.00  0.00    -0.075 S 
ATOM      8  C   UNL     1      -1.208   3.329   0.064  0.00  0.00    +0.097 A 
ATOM      9  N   UNL     1      -0.042   3.865   0.541  0.00  0.00    -0.278 N 
ATOM     10  C   UNL     1       1.102   3.155   0.503  0.00  0.00    +0.338 A 
ATOM     11  O   UNL     1       2.126   3.653   0.931  0.00  0.00    -0.246 OA
ATOM     12  C   UNL     1      -4.995   2.308  -1.240  0.00  0.00    +0.043 C 
ATOM     13  C   UNL     1      -5.517   0.967  -0.707  0.00  0.00    +0.005 C 
ATOM     14  C   UNL     1      -5.240  -0.110  -1.752  0.00  0.00    +0.001 C 
ATOM     15  C   UNL     1      -3.946   0.204  -2.499  0.00  0.00    +0.005 C 
ATOM     16  C   UNL     1      -2.761   0.198  -1.540  0.00  0.00    +0.037 C 
ENDROOT
BRANCH   1  21
ATOM     17  C   UNL     1       6.064  -0.904  -0.065  0.00  0.00    +0.044 C 
ATOM     18  C   UNL     1       4.755  -0.157  -0.048  0.00  0.00    -0.047 A 
ATOM     19  C   UNL     1       3.916  -0.261   1.046  0.00  0.00    +0.005 A 
ATOM     20  C   UNL     1       2.719   0.427   1.068  0.00  0.00    +0.027 A 
ATOM     21  C   UNL     1       2.353   1.215  -0.015  0.00  0.00    +0.055 A 
ATOM     22  C   UNL     1       3.198   1.318  -1.112  0.00  0.00    +0.030 A 
ATOM     23  C   UNL     1       4.396   0.632  -1.125  0.00  0.00    -0.046 A 
ATOM     24  C   UNL     1       5.314   0.743  -2.316  0.00  0.00    +0.044 C 
ENDBRANCH   1  21
BRANCH   9  25
ATOM     25  C   UNL     1      -0.039   5.220   1.097  0.00  0.00    +0.222 C 
BRANCH  25  26
ATOM     26  C   UNL     1       0.247   6.213   0.000  0.00  0.00    +0.230 C 
ATOM     27  O   UNL     1       0.430   5.826  -1.135  0.00  0.00    -0.274 OA
ATOM     28  N   UNL     1       0.299   7.530   0.280  0.00  0.00    -0.328 N 
ATOM     29  H   UNL     1       0.153   7.840   1.188  0.00  0.00    +0.145 HD
ATOM     30  H   UNL     1       0.483   8.169  -0.426  0.00  0.00    +0.145 HD
ENDBRANCH  25  26
ENDBRANCH   9  25
TORSDOF 3
