REMARK  Name = ZINC28052288
REMARK  5 active torsions:
REMARK  status: ('A' for Active; 'I' for Inactive)
REMARK    1  A    between atoms: C_1  and  C_2
REMARK    2  A    between atoms: C_10  and  C_12
REMARK    3  A    between atoms: C_15  and  O_19
REMARK    4  A    between atoms: C_16  and  O_18
REMARK    5  A    between atoms: C_23  and  C_26
REMARK                            x       y       z     vdW  Elec       q    Type
REMARK                         _______ _______ _______ _____ _____    ______ ____
ROOT
ATOM      1  C   UNL     1       6.454   0.462  -0.989  0.00  0.00    +0.069 C 
ATOM      2  C   UNL     1       6.663   1.215   0.300  0.00  0.00    +0.087 A 
ATOM      3  C   UNL     1       6.075   2.422   0.669  0.00  0.00    +0.049 A 
ATOM      4  C   UNL     1       6.584   2.684   1.915  0.00  0.00    +0.226 A 
ATOM      5  O   UNL     1       7.398   1.675   2.206  0.00  0.00    -0.339 OA
ATOM      6  N   UNL     1       7.434   0.865   1.299  0.00  0.00    -0.081 NA
ATOM      7  N   UNL     1       6.225   3.823   2.607  0.00  0.00    -0.286 N 
ATOM      8  C   UNL     1       5.588   4.833   1.925  0.00  0.00    +0.019 C 
ATOM      9  C   UNL     1       5.052   4.655   0.699  0.00  0.00    +0.024 C 
ATOM     10  C   UNL     1       5.106   3.325  -0.024  0.00  0.00    +0.091 C 
ATOM     11  C   UNL     1       4.409   5.713   0.031  0.00  0.00    +0.162 C 
ATOM     12  O   UNL     1       3.958   5.526  -1.082  0.00  0.00    -0.292 OA
ATOM     13  C   UNL     1       4.267   7.070   0.662  0.00  0.00    +0.088 C 
ATOM     14  C   UNL     1       4.241   6.907   2.186  0.00  0.00    +0.032 C 
ATOM     15  C   UNL     1       5.516   6.178   2.613  0.00  0.00    +0.059 C 
ATOM     16  H   UNL     1       6.449   3.907   3.680  0.00  0.00    +0.155 HD
ENDROOT
BRANCH  14  17
ATOM     17  C   UNL     1       4.187   8.263   2.841  0.00  0.00    -0.043 A 
ATOM     18  C   UNL     1       5.205   9.174   2.628  0.00  0.00    +0.005 A 
ATOM     19  C   UNL     1       5.153  10.420   3.225  0.00  0.00    +0.020 A 
ATOM     20  C   UNL     1       4.088  10.751   4.044  0.00  0.00    +0.041 A 
ATOM     21  C   UNL     1       3.073   9.836   4.261  0.00  0.00    +0.020 A 
ATOM     22  C   UNL     1       3.123   8.593   3.660  0.00  0.00    +0.005 A 
ATOM     23 CL   UNL     1       4.026  12.312   4.800  0.00  0.00    -0.084 Cl
ENDBRANCH  14  17
BRANCH  10  24
ATOM     24  C   UNL     1       3.738   2.693  -0.018  0.00  0.00    -0.032 A 
ATOM     25  C   UNL     1       3.120   2.397   1.183  0.00  0.00    +0.008 A 
ATOM     26  C   UNL     1       1.863   1.823   1.193  0.00  0.00    +0.049 A 
ATOM     27  C   UNL     1       1.224   1.533  -0.001  0.00  0.00    +0.158 A 
ATOM     28  C   UNL     1       1.845   1.831  -1.210  0.00  0.00    +0.159 A 
ATOM     29  C   UNL     1       3.103   2.412  -1.214  0.00  0.00    +0.053 A 
BRANCH  28  30
ATOM     30  O   UNL     1       1.219   1.555  -2.385  0.00  0.00    -0.503 OA
ATOM     31  H   UNL     1       1.712   1.791  -3.340  0.00  0.00    +0.292 HD
ENDBRANCH  28  30
BRANCH  27  32
ATOM     32  O   UNL     1      -0.011   0.963   0.007  0.00  0.00    -0.503 OA
ATOM     33  H   UNL     1      -0.517   0.733  -0.942  0.00  0.00    +0.292 HD
ENDBRANCH  27  32
ENDBRANCH  10  24
TORSDOF 4
