REMARK  Name = ZINC63456289
REMARK  10 active torsions:
REMARK  status: ('A' for Active; 'I' for Inactive)
REMARK    1  A    between atoms: C_1  and  C_2
REMARK    2  A    between atoms: C_4  and  C_11
REMARK    3  A    between atoms: C_5  and  C_10
REMARK    4  A    between atoms: N_6  and  C_7
REMARK    5  A    between atoms: C_11  and  C_13
REMARK    6  A    between atoms: C_13  and  O_14
REMARK    7  A    between atoms: O_14  and  N_15
REMARK    8  A    between atoms: C_16  and  C_17
REMARK    9  A    between atoms: C_18  and  N_28
REMARK   10  A    between atoms: N_24  and  C_27
REMARK                            x       y       z     vdW  Elec       q    Type
REMARK                         _______ _______ _______ _____ _____    ______ ____
ROOT
ATOM      1  N   UNL     1      -0.224  -4.606  -4.955  0.00  0.00    -0.068 NA
ATOM      2  C   UNL     1      -0.166  -5.729  -5.615  0.00  0.00    +0.169 C 
ATOM      3  N   UNL     1       0.067  -6.917  -4.941  0.00  0.00    -0.340 N 
ATOM      4  H   UNL     1       0.259  -6.905  -3.990  0.00  0.00    +0.144 HD
ATOM      5  H   UNL     1       0.036  -7.760  -5.420  0.00  0.00    +0.144 HD
ENDROOT
BRANCH   2   6
ATOM      6  C   UNL     1      -0.347  -5.735  -7.079  0.00  0.00    +0.098 C 
ATOM      7  C   UNL     1      -0.481  -4.623  -7.866  0.00  0.00    +0.041 C 
ATOM      8  C   UNL     1      -0.638  -5.128  -9.271  0.00  0.00    +0.076 C 
ATOM      9  C   UNL     1       0.449  -4.557 -10.197  0.00  0.00    +0.032 C 
ATOM     10  C   UNL     1      -0.169  -4.655 -11.609  0.00  0.00    +0.003 C 
ATOM     11  C   UNL     1      -1.696  -4.707 -11.420  0.00  0.00    +0.003 C 
ATOM     12  C   UNL     1      -1.955  -4.638  -9.899  0.00  0.00    +0.032 C 
ATOM     13  N   UNL     1      -0.582  -6.583  -9.213  0.00  0.00    -0.289 N 
ATOM     14  C   UNL     1      -0.405  -6.930  -7.921  0.00  0.00    +0.252 C 
ATOM     15  O   UNL     1      -0.311  -8.074  -7.515  0.00  0.00    -0.270 OA
ATOM     16  C   UNL     1      -0.693  -7.501 -10.349  0.00  0.00    +0.133 C 
BRANCH   7  17
ATOM     17  N   UNL     1      -0.474  -3.325  -7.458  0.00  0.00    -0.359 N 
ATOM     18  H   UNL     1      -0.289  -3.109  -6.531  0.00  0.00    +0.142 HD
ATOM     19  H   UNL     1      -0.654  -2.616  -8.095  0.00  0.00    +0.142 HD
ENDBRANCH   7  17
ENDBRANCH   2   6
BRANCH   1  20
ATOM     20  O   UNL     1      -0.050  -4.601  -3.550  0.00  0.00    -0.384 OA
BRANCH  20  21
ATOM     21  C   UNL     1      -0.138  -3.303  -2.958  0.00  0.00    +0.342 C 
BRANCH  21  22
ATOM     22  C   UNL     1       0.061  -3.415  -1.469  0.00  0.00    +0.205 C 
ATOM     23  O   UNL     1       0.259  -4.500  -0.963  0.00  0.00    -0.288 OA
BRANCH  22  27
ATOM     24  C   UNL     1      -0.354   1.427   0.062  0.00  0.00    +0.063 C 
ATOM     25  C   UNL     1      -0.171  -0.068   0.028  0.00  0.00    +0.017 A 
ATOM     26  C   UNL     1      -0.213  -0.833  -1.076  0.00  0.00    +0.034 A 
ATOM     27  C   UNL     1       0.015  -2.214  -0.631  0.00  0.00    +0.042 A 
ATOM     28  C   UNL     1       0.178  -2.148   0.740  0.00  0.00    +0.027 A 
ATOM     29  N   UNL     1       0.068  -0.861   1.113  0.00  0.00    -0.345 N 
ATOM     30  C   UNL     1       0.438  -3.316   1.656  0.00  0.00    +0.064 C 
BRANCH  29  31
ATOM     31  C   UNL     1       0.186  -0.378   2.491  0.00  0.00    +0.087 C 
ATOM     32  C   UNL     1       1.090   0.831   2.741  0.00  0.00    +0.027 C 
ATOM     33  C   UNL     1       1.534  -0.562   3.191  0.00  0.00    +0.027 C 
ENDBRANCH  29  31
ENDBRANCH  22  27
ENDBRANCH  21  22
ENDBRANCH  20  21
ENDBRANCH   1  20
TORSDOF 7
