REMARK  Name = ZINC13552860
REMARK  9 active torsions:
REMARK  status: ('A' for Active; 'I' for Inactive)
REMARK    1  A    between atoms: C_1  and  C_2
REMARK    2  A    between atoms: C_8  and  C_28
REMARK    3  A    between atoms: C_11  and  C_12
REMARK    4  A    between atoms: C_11  and  O_23
REMARK    5  A    between atoms: C_13  and  C_22
REMARK    6  A    between atoms: C_14  and  C_19
REMARK    7  A    between atoms: C_17  and  C_18
REMARK    8  A    between atoms: C_31  and  O_34
REMARK    9  A    between atoms: O_34  and  C_35
REMARK                            x       y       z     vdW  Elec       q    Type
REMARK                         _______ _______ _______ _____ _____    ______ ____
ROOT
ATOM      1  C   UNL     1       2.356  -6.987  -0.176  0.00  0.00    +0.089 C 
ATOM      2  C   UNL     1       2.235  -5.486  -0.101  0.00  0.00    +0.136 A 
ATOM      3  C   UNL     1       1.090  -4.766  -0.126  0.00  0.00    +0.091 A 
ATOM      4  C   UNL     1       1.531  -3.419  -0.030  0.00  0.00    +0.172 A 
ATOM      5  N   UNL     1       2.835  -3.467   0.049  0.00  0.00    -0.063 NA
ATOM      6  O   UNL     1       3.239  -4.606   0.011  0.00  0.00    -0.358 OA
ATOM      7  N   UNL     1       0.733  -2.277  -0.017  0.00  0.00    -0.235 N 
ATOM      8  C   UNL     1       1.222  -0.895  -0.021  0.00  0.00    +0.151 C 
ATOM      9  C   UNL     1       0.002  -0.004   0.002  0.00  0.00    +0.072 C 
ATOM     10  C   UNL     1      -0.017   1.379   0.010  0.00  0.00    +0.135 C 
ATOM     11  C   UNL     1      -1.107  -0.861   0.007  0.00  0.00    +0.249 C 
ATOM     12  O   UNL     1      -2.275  -0.516   0.021  0.00  0.00    -0.282 OA
ATOM     13  C   UNL     1      -0.611  -2.263  -0.004  0.00  0.00    +0.293 C 
ATOM     14  O   UNL     1      -1.317  -3.250  -0.003  0.00  0.00    -0.266 OA
ENDROOT
BRANCH  10  15
ATOM     15  C   UNL     1      -1.299   2.096   0.020  0.00  0.00    +0.041 A 
ATOM     16  C   UNL     1      -1.839   2.841   1.095  0.00  0.00    -0.010 A 
ATOM     17  C   UNL     1      -3.038   3.335   0.676  0.00  0.00    +0.105 A 
ATOM     18  N   UNL     1      -3.251   2.917  -0.620  0.00  0.00    -0.354 N 
ATOM     19  H   UNL     1      -4.031   3.129  -1.157  0.00  0.00    +0.166 HD
ATOM     20  C   UNL     1      -2.207   2.177  -1.025  0.00  0.00    +0.024 A 
ATOM     21  C   UNL     1      -2.050   1.540  -2.381  0.00  0.00    +0.064 C 
ATOM     22  C   UNL     1      -1.207   3.048   2.447  0.00  0.00    +0.047 C 
BRANCH  17  23
ATOM     23  C   UNL     1      -3.948   4.170   1.470  0.00  0.00    +0.258 C 
ATOM     24  O   UNL     1      -3.652   4.477   2.610  0.00  0.00    -0.269 OA
ATOM     25  N   UNL     1      -5.110   4.596   0.937  0.00  0.00    -0.324 N 
ATOM     26  H   UNL     1      -5.345   4.351   0.029  0.00  0.00    +0.145 HD
ATOM     27  H   UNL     1      -5.711   5.147   1.462  0.00  0.00    +0.145 HD
ENDBRANCH  17  23
ENDBRANCH  10  15
BRANCH   8  28
ATOM     28  C   UNL     1       2.066  -0.646   1.204  0.00  0.00    -0.022 A 
ATOM     29  C   UNL     1       1.714  -1.219   2.412  0.00  0.00    +0.009 A 
ATOM     30  C   UNL     1       2.489  -0.998   3.534  0.00  0.00    +0.046 A 
ATOM     31  C   UNL     1       3.614  -0.191   3.450  0.00  0.00    +0.120 A 
ATOM     32  C   UNL     1       3.962   0.387   2.238  0.00  0.00    +0.046 A 
ATOM     33  C   UNL     1       3.187   0.158   1.118  0.00  0.00    +0.009 A 
BRANCH  31  34
ATOM     34  O   UNL     1       4.374   0.033   4.554  0.00  0.00    -0.495 OA
ATOM     35  C   UNL     1       3.957  -0.594   5.768  0.00  0.00    +0.277 C 
ENDBRANCH  31  34
ENDBRANCH   8  28
BRANCH  10  36
ATOM     36  O   UNL     1       1.143   2.070   0.002  0.00  0.00    -0.506 OA
ATOM     37  H   UNL     1       0.947   3.051   0.009  0.00  0.00    +0.292 HD
ENDBRANCH  10  36
TORSDOF 5
