REMARK  Name = ZINC39630987
REMARK  10 active torsions:
REMARK  status: ('A' for Active; 'I' for Inactive)
REMARK    1  A    between atoms: C_1  and  C_2
REMARK    2  A    between atoms: C_2  and  C_3
REMARK    3  A    between atoms: C_2  and  C_4
REMARK    4  A    between atoms: C_2  and  C_28
REMARK    5  A    between atoms: C_4  and  N_5
REMARK    6  A    between atoms: C_6  and  C_8
REMARK    7  A    between atoms: C_19  and  C_21
REMARK    8  A    between atoms: C_28  and  N_29
REMARK    9  A    between atoms: N_29  and  C_30
REMARK   10  A    between atoms: N_29  and  C_31
REMARK                            x       y       z     vdW  Elec       q    Type
REMARK                         _______ _______ _______ _____ _____    ______ ____
ROOT
ATOM      1  C   UNL     1      -2.893  -0.193   2.833  0.00  0.00    +0.100 C 
ATOM      2  C   UNL     1      -2.848   1.142   3.609  0.00  0.00    +0.121 C 
ATOM      3  N   UNL     1      -4.228   1.673   3.523  0.00  0.00    -0.300 N 
ATOM      4  C   UNL     1      -5.093   0.478   3.674  0.00  0.00    +0.115 C 
ATOM      5  C   UNL     1      -4.368  -0.627   2.880  0.00  0.00    -0.004 C 
ATOM      6  C   UNL     1      -4.937  -0.722   1.468  0.00  0.00    -0.010 C 
ATOM      7  C   UNL     1      -6.387  -1.209   1.538  0.00  0.00    -0.082 C 
ATOM      8  N   UNL     1      -6.432  -2.522   2.194  0.00  0.00    +0.379 N 
ATOM      9  C   UNL     1      -5.970  -2.405   3.582  0.00  0.00    -0.082 C 
ATOM     10  C   UNL     1      -4.502  -1.967   3.598  0.00  0.00    -0.010 C 
ATOM     11  C   UNL     1      -4.612   2.953   3.346  0.00  0.00    +0.219 C 
ATOM     12  O   UNL     1      -3.781   3.811   3.138  0.00  0.00    -0.275 OA
ATOM     13  H   UNL     1      -7.380  -2.869   2.185  0.00  0.00    -0.086 HD
ATOM     14  H   UNL     1      -5.836  -3.166   1.696  0.00  0.00    -0.086 HD
ENDROOT
BRANCH  11  15
ATOM     15  C   UNL     1      -6.073   3.317   3.409  0.00  0.00    +0.079 C 
ATOM     16  C   UNL     1      -6.326   4.579   2.573  0.00  0.00    +0.017 C 
ATOM     17  C   UNL     1      -7.835   4.822   2.508  0.00  0.00    +0.027 C 
ATOM     18  C   UNL     1      -8.429   4.756   3.885  0.00  0.00    -0.031 C 
ATOM     19  C   UNL     1      -7.836   4.225   4.906  0.00  0.00    -0.030 C 
ATOM     20  C   UNL     1      -6.470   3.604   4.858  0.00  0.00    +0.039 C 
ENDBRANCH  11  15
BRANCH   1  22
ATOM     21  N   UNL     1      -1.931  -1.014   0.707  0.00  0.00    -0.315 N 
ATOM     22  C   UNL     1      -2.453   0.013   1.406  0.00  0.00    +0.218 C 
ATOM     23  O   UNL     1      -2.568   1.104   0.888  0.00  0.00    -0.275 OA
ATOM     24  H   UNL     1      -1.839  -1.886   1.121  0.00  0.00    +0.149 HD
BRANCH  21  25
ATOM     25  C   UNL     1      -1.504  -0.812  -0.680  0.00  0.00    +0.108 C 
BRANCH  25  27
ATOM     26  C   UNL     1       0.242  -2.578  -0.397  0.00  0.00    +0.010 C 
ATOM     27  C   UNL     1      -0.953  -2.126  -1.239  0.00  0.00    -0.034 C 
ATOM     28  C   UNL     1      -2.045  -3.197  -1.193  0.00  0.00    +0.010 C 
BRANCH  27  29
ATOM     29  C   UNL     1      -0.506  -1.916  -2.688  0.00  0.00    -0.072 C 
BRANCH  29  30
ATOM     30  N   UNL     1       0.016  -3.179  -3.227  0.00  0.00    +0.376 N 
ATOM     31  C   UNL     1      -1.095  -3.983  -3.753  0.00  0.00    -0.097 C 
ATOM     32  C   UNL     1       0.968  -2.893  -4.308  0.00  0.00    -0.097 C 
ATOM     33  H   UNL     1       0.483  -3.690  -2.493  0.00  0.00    -0.083 HD
ENDBRANCH  29  30
ENDBRANCH  27  29
ENDBRANCH  25  27
ENDBRANCH  21  25
ENDBRANCH   1  22
TORSDOF 6
