REMARK  Name = ZINC13098087
REMARK  8 active torsions:
REMARK  status: ('A' for Active; 'I' for Inactive)
REMARK    1  A    between atoms: C_1  and  C_2
REMARK    2  A    between atoms: C_2  and  C_3
REMARK    3  A    between atoms: C_3  and  C_5
REMARK    4  A    between atoms: C_3  and  C_6
REMARK    5  A    between atoms: C_9  and  S_12
REMARK    6  A    between atoms: S_12  and  N_15
REMARK    7  A    between atoms: N_18  and  C_21
REMARK    8  A    between atoms: C_21  and  N_22
REMARK                            x       y       z     vdW  Elec       q    Type
REMARK                         _______ _______ _______ _____ _____    ______ ____
ROOT
ATOM      1  N   UNL     1      -6.273   2.279   6.442  0.00  0.00    -0.174 NA
ATOM      2  C   UNL     1      -7.628   2.302   5.869  0.00  0.00    +0.125 C 
ATOM      3  C   UNL     1      -7.959   0.890   5.358  0.00  0.00    +0.103 C 
ATOM      4  N   UNL     1      -7.761  -0.077   6.446  0.00  0.00    -0.284 NA
ATOM      5  C   UNL     1      -6.357  -0.119   6.873  0.00  0.00    +0.103 C 
ATOM      6  C   UNL     1      -5.958   1.247   7.441  0.00  0.00    +0.125 C 
ENDROOT
BRANCH   1   7
ATOM      7  S   UNL     1      -5.136   3.390   5.979  0.00  0.00    +0.061 S 
ATOM      8  O   UNL     1      -4.201   3.482   7.045  0.00  0.00    -0.153 OA
ATOM      9  O   UNL     1      -5.846   4.519   5.489  0.00  0.00    -0.153 OA
BRANCH   7  13
ATOM     10  C   UNL     1      -2.906   1.634   2.452  0.00  0.00    -0.044 A 
ATOM     11  C   UNL     1      -2.459   1.399   3.739  0.00  0.00    +0.006 A 
ATOM     12  C   UNL     1      -3.137   1.940   4.815  0.00  0.00    +0.029 A 
ATOM     13  C   UNL     1      -4.268   2.706   4.606  0.00  0.00    +0.105 A 
ATOM     14  C   UNL     1      -4.719   2.936   3.320  0.00  0.00    +0.029 A 
ATOM     15  C   UNL     1      -4.038   2.400   2.242  0.00  0.00    +0.006 A 
BRANCH  10  16
ATOM     16  C   UNL     1      -2.164   1.050   1.278  0.00  0.00    +0.016 C 
ATOM     17  C   UNL     1      -2.144  -0.476   1.395  0.00  0.00    +0.012 C 
BRANCH  16  19
ATOM     18  C   UNL     1      -0.013   1.086   0.008  0.00  0.00    +0.004 C 
ATOM     19  C   UNL     1      -0.729   1.579   1.267  0.00  0.00    +0.004 C 
ENDBRANCH  16  19
ENDBRANCH  10  16
ENDBRANCH   7  13
ENDBRANCH   1   7
BRANCH   4  20
ATOM     20  C   UNL     1      -8.233  -1.412   6.055  0.00  0.00    +0.205 C 
BRANCH  20  21
ATOM     21  N   UNL     1      -9.688  -1.482   6.212  0.00  0.00    -0.210 N 
ATOM     22  C   UNL     1     -10.312  -1.877   7.343  0.00  0.00    +0.252 C 
ATOM     23  O   UNL     1      -9.797  -2.228   8.383  0.00  0.00    -0.272 OA
ATOM     24  C   UNL     1     -11.784  -1.785   7.036  0.00  0.00    +0.138 C 
ATOM     25  C   UNL     1     -12.494  -0.812   7.987  0.00  0.00    +0.045 C 
ATOM     26  C   UNL     1     -13.051  -1.764   9.070  0.00  0.00    +0.038 C 
ATOM     27  C   UNL     1     -13.203  -3.104   8.381  0.00  0.00    -0.042 A 
ATOM     28  C   UNL     1     -12.467  -3.115   7.208  0.00  0.00    -0.012 A 
ATOM     29  C   UNL     1     -12.456  -4.250   6.415  0.00  0.00    +0.006 A 
ATOM     30  C   UNL     1     -13.177  -5.367   6.787  0.00  0.00    +0.000 A 
ATOM     31  C   UNL     1     -13.913  -5.355   7.957  0.00  0.00    +0.000 A 
ATOM     32  C   UNL     1     -13.925  -4.225   8.752  0.00  0.00    +0.004 A 
ATOM     33  N   UNL     1     -11.844  -1.317   5.651  0.00  0.00    -0.281 N 
ATOM     34  C   UNL     1     -10.565  -1.167   5.250  0.00  0.00    +0.311 C 
ATOM     35  O   UNL     1     -10.245  -0.788   4.140  0.00  0.00    -0.252 OA
ATOM     36  H   UNL     1     -12.818  -1.164   5.164  0.00  0.00    +0.152 HD
ENDBRANCH  20  21
ENDBRANCH   4  20
TORSDOF 6
