REMARK  Name = ZINC12231244
REMARK  10 active torsions:
REMARK  status: ('A' for Active; 'I' for Inactive)
REMARK    1  A    between atoms: C_1  and  C_2
REMARK    2  A    between atoms: C_3  and  C_31
REMARK    3  A    between atoms: N_4  and  C_26
REMARK    4  A    between atoms: C_5  and  N_9
REMARK    5  A    between atoms: C_6  and  C_7
REMARK    6  A    between atoms: C_10  and  C_12
REMARK    7  A    between atoms: C_12  and  S_13
REMARK    8  A    between atoms: S_13  and  C_14
REMARK    9  A    between atoms: C_17  and  C_20
REMARK   10  A    between atoms: N_18  and  N_19
REMARK                            x       y       z     vdW  Elec       q    Type
REMARK                         _______ _______ _______ _____ _____    ______ ____
ROOT
ATOM      1  N   UNL     1      -7.089   2.512   0.144  0.00  0.00    -0.270 N 
ATOM      2  C   UNL     1      -5.870   2.046   0.479  0.00  0.00    +0.229 C 
ATOM      3  O   UNL     1      -5.691   1.542   1.567  0.00  0.00    -0.275 OA
ATOM      4  H   UNL     1      -7.254   2.837  -0.755  0.00  0.00    +0.156 HD
ENDROOT
BRANCH   1   9
ATOM      5  C   UNL     1      -9.671   2.739   4.482  0.00  0.00    +0.047 C 
ATOM      6  C   UNL     1      -9.303   2.626   3.025  0.00  0.00    -0.011 A 
ATOM      7  C   UNL     1     -10.149   2.464   1.995  0.00  0.00    +0.022 A 
ATOM      8  N   UNL     1      -9.435   2.405   0.828  0.00  0.00    -0.329 N 
ATOM      9  C   UNL     1      -8.108   2.528   1.085  0.00  0.00    +0.124 A 
ATOM     10  C   UNL     1      -7.950   2.666   2.457  0.00  0.00    +0.095 A 
ATOM     11  C   UNL     1     -11.649   2.364   2.106  0.00  0.00    +0.064 C 
BRANCH   8  12
ATOM     12  C   UNL     1     -10.020   2.234  -0.504  0.00  0.00    +0.089 C 
ATOM     13  C   UNL     1      -9.335   1.061  -1.235  0.00  0.00    +0.025 C 
ATOM     14  C   UNL     1      -9.254   1.528  -2.710  0.00  0.00    +0.002 C 
ATOM     15  C   UNL     1      -8.937   3.038  -2.575  0.00  0.00    +0.002 C 
ATOM     16  C   UNL     1      -9.767   3.491  -1.356  0.00  0.00    +0.025 C 
ENDBRANCH   8  12
BRANCH  10  17
ATOM     17  C   UNL     1      -6.719   2.819   3.172  0.00  0.00    +0.103 C 
ATOM     18  N   UNL     1      -5.742   2.940   3.740  0.00  0.00    -0.191 NA
ENDBRANCH  10  17
ENDBRANCH   1   9
BRANCH   2  19
ATOM     19  C   UNL     1      -4.728   2.152  -0.500  0.00  0.00    +0.173 C 
BRANCH  19  20
ATOM     20  S   UNL     1      -3.203   1.580   0.289  0.00  0.00    -0.075 S 
BRANCH  20  21
ATOM     21  C   UNL     1      -2.068   1.806  -1.040  0.00  0.00    +0.209 A 
ATOM     22  N   UNL     1      -2.349   2.268  -2.236  0.00  0.00    -0.121 NA
ATOM     23  N   UNL     1      -1.282   2.299  -2.953  0.00  0.00    -0.132 NA
ATOM     24  C   UNL     1      -0.266   1.868  -2.262  0.00  0.00    +0.154 A 
ATOM     25  N   UNL     1      -0.730   1.533  -1.020  0.00  0.00    -0.228 N 
BRANCH  24  26
ATOM     26  C   UNL     1       1.158   1.756  -2.743  0.00  0.00    +0.059 C 
ATOM     27  C   UNL     1       1.668   3.139  -3.152  0.00  0.00    +0.011 C 
ATOM     28  C   UNL     1       3.114   3.025  -3.641  0.00  0.00    +0.001 C 
ATOM     29  C   UNL     1       3.173   2.083  -4.845  0.00  0.00    +0.000 C 
ATOM     30  C   UNL     1       2.663   0.700  -4.436  0.00  0.00    +0.001 C 
ATOM     31  C   UNL     1       1.217   0.814  -3.947  0.00  0.00    +0.011 C 
ENDBRANCH  24  26
BRANCH  25  32
ATOM     32  N   UNL     1      -0.005   1.035   0.025  0.00  0.00    -0.295 N 
ATOM     33  H   UNL     1       0.013   0.026   0.004  0.00  0.00    +0.163 HD
ATOM     34  H   UNL     1       0.930   1.413   0.029  0.00  0.00    +0.163 HD
ENDBRANCH  25  32
ENDBRANCH  20  21
ENDBRANCH  19  20
ENDBRANCH   2  19
TORSDOF 8
