REMARK  Name = ZINC67515952
REMARK  4 active torsions:
REMARK  status: ('A' for Active; 'I' for Inactive)
REMARK    1  A    between atoms: C_1  and  N_2
REMARK    2  A    between atoms: C_9  and  C_13
REMARK    3  A    between atoms: N_15  and  C_16
REMARK    4  A    between atoms: C_19  and  C_21
REMARK                            x       y       z     vdW  Elec       q    Type
REMARK                         _______ _______ _______ _____ _____    ______ ____
ROOT
ATOM      1  C   UNL     1       0.115  -4.311  -0.021  0.00  0.00    +0.245 C 
ATOM      2  O   UNL     1       1.175  -4.897  -0.122  0.00  0.00    -0.270 OA
ATOM      3  N   UNL     1      -1.033  -5.008   0.083  0.00  0.00    -0.308 N 
ATOM      4  H   UNL     1      -1.885  -4.543   0.089  0.00  0.00    +0.149 HD
ENDROOT
BRANCH   1  13
ATOM      5  C   UNL     1       0.018   1.462   0.015  0.00  0.00    +0.152 C 
ATOM      6  N   UNL     1       0.056  -0.003   0.006  0.00  0.00    -0.311 N 
ATOM      7  C   UNL     1       1.275  -0.646   0.020  0.00  0.00    +0.052 A 
ATOM      8  C   UNL     1       2.459   0.086   0.043  0.00  0.00    +0.026 A 
ATOM      9  C   UNL     1       3.671  -0.570   0.057  0.00  0.00    +0.002 A 
ATOM     10  C   UNL     1       3.724  -1.957   0.048  0.00  0.00    +0.001 A 
ATOM     11  C   UNL     1       2.575  -2.696   0.025  0.00  0.00    +0.011 A 
ATOM     12  C   UNL     1       1.335  -2.051   0.012  0.00  0.00    +0.011 A 
ATOM     13  C   UNL     1       0.086  -2.828  -0.011  0.00  0.00    +0.051 A 
ATOM     14  C   UNL     1      -1.101  -2.153  -0.025  0.00  0.00    +0.084 A 
ATOM     15  C   UNL     1      -1.098  -0.692  -0.009  0.00  0.00    +0.252 A 
ATOM     16  O   UNL     1      -2.157  -0.090  -0.015  0.00  0.00    -0.268 OA
ENDBRANCH   1  13
BRANCH   3  17
ATOM     17  C   UNL     1      -0.996  -6.469   0.185  0.00  0.00    +0.081 C 
ATOM     18  C   UNL     1      -1.914  -7.128   1.217  0.00  0.00    +0.033 C 
ATOM     19  C   UNL     1      -2.234  -7.241  -0.275  0.00  0.00    +0.041 C 
BRANCH  19  20
ATOM     20  C   UNL     1      -2.015  -8.579  -0.935  0.00  0.00    -0.042 A 
ATOM     21  C   UNL     1      -1.382  -9.595  -0.243  0.00  0.00    +0.004 A 
ATOM     22  C   UNL     1      -1.181 -10.821  -0.848  0.00  0.00    +0.000 A 
ATOM     23  C   UNL     1      -1.613 -11.032  -2.144  0.00  0.00    +0.000 A 
ATOM     24  C   UNL     1      -2.246 -10.016  -2.835  0.00  0.00    +0.000 A 
ATOM     25  C   UNL     1      -2.451  -8.791  -2.229  0.00  0.00    +0.004 A 
ENDBRANCH  19  20
ENDBRANCH   3  17
TORSDOF 3
