REMARK  Name = ZINC50523829
REMARK  1 active torsions:
REMARK  status: ('A' for Active; 'I' for Inactive)
REMARK    1  A    between atoms: C_15  and  N_20
REMARK                            x       y       z     vdW  Elec       q    Type
REMARK                         _______ _______ _______ _____ _____    ______ ____
ROOT
ATOM      1  C   UNL     1      -0.016   1.361   0.009  0.00  0.00    +0.001 A 
ATOM      2  C   UNL     1       1.169   2.085   0.002  0.00  0.00    +0.002 A 
ATOM      3  C   UNL     1       2.385   1.440  -0.013  0.00  0.00    +0.028 A 
ATOM      4  C   UNL     1       2.429   0.048  -0.021  0.00  0.00    +0.076 A 
ATOM      5  C   UNL     1       1.226  -0.682  -0.013  0.00  0.00    +0.020 A 
ATOM      6  C   UNL     1       0.002  -0.004   0.002  0.00  0.00    +0.011 A 
ATOM      7  C   UNL     1       1.602  -2.093  -0.025  0.00  0.00    +0.143 A 
ATOM      8  N   UNL     1       2.903  -2.159  -0.037  0.00  0.00    -0.172 NA
ATOM      9  N   UNL     1       3.450  -0.871  -0.036  0.00  0.00    -0.214 N 
ATOM     10  C   UNL     1       4.811  -0.570  -0.048  0.00  0.00    +0.155 A 
ATOM     11  C   UNL     1       5.723  -1.509   0.450  0.00  0.00    +0.049 A 
ATOM     12  C   UNL     1       7.057  -1.229   0.444  0.00  0.00    +0.014 A 
ATOM     13  C   UNL     1       7.476   0.015  -0.070  0.00  0.00    +0.002 A 
ATOM     14  C   UNL     1       8.833   0.367  -0.106  0.00  0.00    +0.032 A 
ATOM     15  C   UNL     1       9.204   1.592  -0.617  0.00  0.00    +0.025 A 
ATOM     16  C   UNL     1       8.238   2.483  -1.098  0.00  0.00    +0.025 A 
ATOM     17  C   UNL     1       6.916   2.164  -1.073  0.00  0.00    +0.030 A 
ATOM     18  C   UNL     1       6.503   0.922  -0.559  0.00  0.00    +0.073 A 
ATOM     19  N   UNL     1       5.208   0.588  -0.531  0.00  0.00    -0.228 NA
ENDROOT
BRANCH  15  20
ATOM     20  N   UNL     1      10.554   1.947  -0.655  0.00  0.00    -0.358 N 
ATOM     21  H   UNL     1      11.227   1.333  -0.322  0.00  0.00    +0.142 HD
ATOM     22  H   UNL     1      10.819   2.809  -1.014  0.00  0.00    +0.142 HD
ENDBRANCH  15  20
TORSDOF 1
