REMARK  Name = ZINC22079669
REMARK  5 active torsions:
REMARK  status: ('A' for Active; 'I' for Inactive)
REMARK    1  A    between atoms: C_1  and  C_2
REMARK    2  A    between atoms: C_6  and  N_8
REMARK    3  A    between atoms: C_12  and  C_13
REMARK    4  A    between atoms: C_20  and  N_26
REMARK    5  A    between atoms: C_21  and  C_24
REMARK                            x       y       z     vdW  Elec       q    Type
REMARK                         _______ _______ _______ _____ _____    ______ ____
ROOT
ATOM      1  N   UNL     1      -0.270  -2.656   2.810  0.00  0.00    -0.220 N 
ATOM      2  C   UNL     1       0.031  -3.972   2.486  0.00  0.00    +0.134 C 
ATOM      3  N   UNL     1       0.018  -4.390   1.249  0.00  0.00    -0.284 NA
ATOM      4  C   UNL     1       0.367  -4.884   3.611  0.00  0.00    +0.038 C 
ATOM      5  C   UNL     1       1.321  -5.873   3.494  0.00  0.00    +0.021 C 
ATOM      6  C   UNL     1      -0.385  -4.662   4.864  0.00  0.00    +0.058 C 
ATOM      7  C   UNL     1      -0.932  -3.383   5.054  0.00  0.00    +0.135 C 
ATOM      8  C   UNL     1      -0.729  -2.353   4.039  0.00  0.00    +0.268 C 
ATOM      9  O   UNL     1      -0.987  -1.194   4.308  0.00  0.00    -0.268 OA
ATOM     10  H   UNL     1       0.232  -5.315   1.048  0.00  0.00    +0.188 HD
ENDROOT
BRANCH   1  16
ATOM     11  C   UNL     1      -2.196   0.782  -0.132  0.00  0.00    +0.044 C 
ATOM     12  C   UNL     1      -1.005   0.040   0.418  0.00  0.00    -0.049 A 
ATOM     13  C   UNL     1       0.269   0.361  -0.014  0.00  0.00    +0.003 A 
ATOM     14  C   UNL     1       1.364  -0.317   0.488  0.00  0.00    +0.002 A 
ATOM     15  C   UNL     1       1.189  -1.317   1.424  0.00  0.00    +0.024 A 
ATOM     16  C   UNL     1      -0.088  -1.642   1.861  0.00  0.00    +0.043 A 
ATOM     17  C   UNL     1      -1.186  -0.955   1.359  0.00  0.00    +0.027 A 
ENDBRANCH   1  16
BRANCH   5  18
ATOM     18  C   UNL     1       1.756  -6.617   4.680  0.00  0.00    -0.024 A 
ATOM     19  C   UNL     1       2.042  -7.986   4.588  0.00  0.00    +0.009 A 
ATOM     20  C   UNL     1       2.450  -8.677   5.707  0.00  0.00    +0.020 A 
ATOM     21  C   UNL     1       2.578  -8.022   6.922  0.00  0.00    +0.041 A 
ATOM     22  C   UNL     1       2.297  -6.668   7.022  0.00  0.00    +0.020 A 
ATOM     23  C   UNL     1       1.893  -5.961   5.911  0.00  0.00    +0.009 A 
ATOM     24 CL   UNL     1       3.093  -8.903   8.327  0.00  0.00    -0.084 Cl
ENDBRANCH   5  18
BRANCH   6  25
ATOM     25  N   UNL     1      -0.541  -5.657   5.795  0.00  0.00    -0.356 N 
ATOM     26  H   UNL     1      -0.283  -6.567   5.580  0.00  0.00    +0.142 HD
ATOM     27  H   UNL     1      -0.909  -5.451   6.668  0.00  0.00    +0.142 HD
ENDBRANCH   6  25
BRANCH   7  28
ATOM     28  C   UNL     1      -1.679  -3.089   6.239  0.00  0.00    +0.106 C 
ATOM     29  N   UNL     1      -2.272  -2.856   7.180  0.00  0.00    -0.191 NA
ENDBRANCH   7  28
TORSDOF 4
