REMARK  Name = ZINC14550981
REMARK  5 active torsions:
REMARK  status: ('A' for Active; 'I' for Inactive)
REMARK    1  A    between atoms: C_2  and  C_3
REMARK    2  A    between atoms: C_3  and  O_4
REMARK    3  A    between atoms: O_4  and  C_5
REMARK    4  A    between atoms: C_12  and  C_21
REMARK    5  A    between atoms: C_24  and  N_27
REMARK                            x       y       z     vdW  Elec       q    Type
REMARK                         _______ _______ _______ _____ _____    ______ ____
ROOT
ATOM      1  C   UNL     1       0.002  -0.004   0.002  0.00  0.00    +0.142 A 
ATOM      2  C   UNL     1       1.199  -0.693  -0.027  0.00  0.00    +0.047 A 
ATOM      3  C   UNL     1       2.398  -0.003  -0.049  0.00  0.00    +0.004 A 
ATOM      4  C   UNL     1       2.393   1.378  -0.034  0.00  0.00    +0.006 A 
ATOM      5  C   UNL     1       1.202   2.075   0.002  0.00  0.00    -0.016 A 
ATOM      6  C   UNL     1      -0.017   1.396   0.010  0.00  0.00    +0.074 A 
ATOM      7  N   UNL     1      -1.263   2.025   0.004  0.00  0.00    -0.334 N 
ATOM      8  C   UNL     1      -1.264   3.493   0.112  0.00  0.00    +0.105 C 
ATOM      9  C   UNL     1      -0.108   4.001  -0.724  0.00  0.00    +0.029 C 
ATOM     10  C   UNL     1       1.169   3.554   0.054  0.00  0.00    +0.049 C 
ATOM     11  C   UNL     1       2.235   4.398  -0.538  0.00  0.00    -0.023 C 
ATOM     12  C   UNL     1       1.688   5.531  -0.966  0.00  0.00    -0.030 C 
ATOM     13  C   UNL     1       0.178   5.507  -0.718  0.00  0.00    +0.033 C 
ATOM     14  H   UNL     1      -1.818   1.720  -0.782  0.00  0.00    +0.147 HD
ENDROOT
BRANCH   8  15
ATOM     15  C   UNL     1      -2.562   4.047  -0.416  0.00  0.00    -0.027 A 
ATOM     16  C   UNL     1      -3.158   3.474  -1.524  0.00  0.00    +0.008 A 
ATOM     17  C   UNL     1      -4.351   3.979  -2.005  0.00  0.00    +0.033 A 
ATOM     18  C   UNL     1      -4.944   5.063  -1.385  0.00  0.00    +0.126 A 
ATOM     19  C   UNL     1      -4.345   5.639  -0.279  0.00  0.00    +0.033 A 
ATOM     20  C   UNL     1      -3.154   5.130   0.205  0.00  0.00    +0.008 A 
BRANCH  18  21
ATOM     21  N   UNL     1      -6.219   5.607  -1.903  0.00  0.00    +0.056 N 
ATOM     22  O   UNL     1      -6.740   6.562  -1.357  0.00  0.00    -0.126 OA
ATOM     23  O   UNL     1      -6.746   5.100  -2.877  0.00  0.00    -0.126 OA
ENDBRANCH  18  21
ENDBRANCH   8  15
BRANCH   1  24
ATOM     24  O   UNL     1      -1.170  -0.693   0.024  0.00  0.00    -0.486 OA
BRANCH  24  25
ATOM     25  C   UNL     1      -1.085  -2.119   0.014  0.00  0.00    +0.256 C 
BRANCH  25  27
ATOM     26  C   UNL     1      -2.781  -3.696  -0.760  0.00  0.00    +0.007 C 
ATOM     27  C   UNL     1      -2.473  -2.706   0.041  0.00  0.00    +0.006 C 
ENDBRANCH  25  27
ENDBRANCH  24  25
ENDBRANCH   1  24
TORSDOF 5
