REMARK  Name = ZINC41907749
REMARK  7 active torsions:
REMARK  status: ('A' for Active; 'I' for Inactive)
REMARK    1  A    between atoms: C_1  and  C_2
REMARK    2  A    between atoms: C_3  and  C_15
REMARK    3  A    between atoms: C_4  and  C_14
REMARK    4  A    between atoms: C_8  and  C_11
REMARK    5  A    between atoms: C_15  and  C_16
REMARK    6  A    between atoms: C_16  and  C_17
REMARK    7  A    between atoms: C_22  and  C_32
REMARK                            x       y       z     vdW  Elec       q    Type
REMARK                         _______ _______ _______ _____ _____    ______ ____
ROOT
ATOM      1  C   UNL     1       0.073   0.954   0.244  0.00  0.00    +0.066 C 
ATOM      2  C   UNL     1      -0.130  -0.534   0.128  0.00  0.00    +0.045 A 
ATOM      3  C   UNL     1      -1.427  -1.056   0.021  0.00  0.00    -0.006 A 
ATOM      4  C   UNL     1      -1.599  -2.397  -0.084  0.00  0.00    +0.028 A 
ATOM      5  N   UNL     1      -0.501  -3.210  -0.083  0.00  0.00    -0.287 N 
ATOM      6  C   UNL     1      -0.347  -4.561  -0.170  0.00  0.00    +0.206 A 
ATOM      7  N   UNL     1       0.919  -4.861  -0.123  0.00  0.00    -0.229 NA
ATOM      8  C   UNL     1       1.651  -3.734  -0.003  0.00  0.00    +0.169 A 
ATOM      9  C   UNL     1       0.752  -2.659   0.024  0.00  0.00    +0.170 A 
ATOM     10  N   UNL     1       0.910  -1.338   0.121  0.00  0.00    -0.232 NA
ATOM     11  C   UNL     1      -2.983  -2.983  -0.200  0.00  0.00    +0.064 C 
ENDROOT
BRANCH   8  12
ATOM     12  C   UNL     1       3.109  -3.649   0.082  0.00  0.00    +0.264 C 
ATOM     13  O   UNL     1       3.650  -2.564   0.188  0.00  0.00    -0.269 OA
ATOM     14  N   UNL     1       3.852  -4.773   0.042  0.00  0.00    -0.324 N 
ATOM     15  H   UNL     1       3.421  -5.637  -0.043  0.00  0.00    +0.145 HD
ATOM     16  H   UNL     1       4.819  -4.717   0.098  0.00  0.00    +0.145 HD
ENDBRANCH   8  12
BRANCH   3  17
ATOM     17  C   UNL     1      -2.619  -0.135   0.022  0.00  0.00    +0.048 C 
BRANCH  17  18
ATOM     18  C   UNL     1      -3.023   0.174   1.466  0.00  0.00    +0.101 C 
BRANCH  18  19
ATOM     19  C   UNL     1      -4.215   1.095   1.467  0.00  0.00    +0.216 C 
ATOM     20  O   UNL     1      -4.694   1.469   0.418  0.00  0.00    -0.276 OA
ATOM     21  N   UNL     1      -4.748   1.505   2.635  0.00  0.00    -0.298 N 
ATOM     22  C   UNL     1      -4.114   1.157   3.915  0.00  0.00    +0.108 C 
ATOM     23  C   UNL     1      -5.157   0.499   4.823  0.00  0.00    +0.022 C 
ATOM     24  C   UNL     1      -6.376   1.417   4.950  0.00  0.00    -0.008 C 
ATOM     25  C   UNL     1      -7.001   1.621   3.564  0.00  0.00    +0.012 C 
ATOM     26  C   UNL     1      -5.973   2.313   2.659  0.00  0.00    +0.079 C 
ATOM     27  C   UNL     1      -6.527   2.469   1.246  0.00  0.00    +0.023 C 
ATOM     28  C   UNL     1      -6.891   1.097   0.675  0.00  0.00    +0.002 C 
ATOM     29  C   UNL     1      -7.945   0.442   1.570  0.00  0.00    +0.000 C 
ATOM     30  C   UNL     1      -7.384   0.255   2.990  0.00  0.00    +0.005 C 
ATOM     31  C   UNL     1      -5.940   2.768   5.519  0.00  0.00    +0.008 C 
ENDBRANCH  18  19
ENDBRANCH  17  18
ENDBRANCH   3  17
TORSDOF 4
