REMARK  Name = ZINC04832010
REMARK  5 active torsions:
REMARK  status: ('A' for Active; 'I' for Inactive)
REMARK    1  A    between atoms: C_4  and  C_7
REMARK    2  A    between atoms: C_7  and  O_27
REMARK    3  A    between atoms: C_8  and  C_25
REMARK    4  A    between atoms: C_10  and  C_20
REMARK    5  A    between atoms: C_12  and  C_17
REMARK                            x       y       z     vdW  Elec       q    Type
REMARK                         _______ _______ _______ _____ _____    ______ ____
ROOT
ATOM      1  C   UNL     1      -0.113   1.217   0.534  0.00  0.00    +0.175 C 
ATOM      2  C   UNL     1       1.110   1.036  -0.365  0.00  0.00    +0.155 C 
ATOM      3  C   UNL     1       1.970   2.304  -0.285  0.00  0.00    +0.062 C 
ATOM      4  C   UNL     1       2.557   2.402   1.125  0.00  0.00    +0.169 C 
ATOM      5  C   UNL     1       1.473   2.202   2.145  0.00  0.00    +0.228 C 
ATOM      6  O   UNL     1       1.683   2.562   3.284  0.00  0.00    -0.275 OA
ATOM      7  N   UNL     1       0.292   1.651   1.865  0.00  0.00    -0.282 N 
ATOM      8  H   UNL     1      -0.338   1.531   2.594  0.00  0.00    +0.152 HD
ENDROOT
BRANCH   1  12
ATOM      9  C   UNL     1      -2.206  -2.495   0.835  0.00  0.00    +0.000 A 
ATOM     10  C   UNL     1      -1.281  -2.143   1.800  0.00  0.00    +0.000 A 
ATOM     11  C   UNL     1      -0.604  -0.941   1.703  0.00  0.00    +0.008 A 
ATOM     12  C   UNL     1      -0.851  -0.093   0.640  0.00  0.00    +0.003 A 
ATOM     13  C   UNL     1      -1.780  -0.443  -0.322  0.00  0.00    +0.008 A 
ATOM     14  C   UNL     1      -2.454  -1.646  -0.227  0.00  0.00    +0.000 A 
ENDBRANCH   1  12
BRANCH   4  15
ATOM     15  C   UNL     1       3.611   1.339   1.303  0.00  0.00    +0.223 C 
ATOM     16  O   UNL     1       3.427   0.426   2.079  0.00  0.00    -0.275 OA
ATOM     17  N   UNL     1       4.759   1.405   0.599  0.00  0.00    -0.329 N 
ATOM     18  H   UNL     1       4.906   2.135  -0.022  0.00  0.00    +0.145 HD
ATOM     19  H   UNL     1       5.437   0.721   0.714  0.00  0.00    +0.145 HD
ENDBRANCH   4  15
BRANCH   3  20
ATOM     20  C   UNL     1       3.085   2.224  -1.295  0.00  0.00    -0.035 A 
ATOM     21  C   UNL     1       3.746   3.369  -1.702  0.00  0.00    +0.011 A 
ATOM     22  C   UNL     1       4.748   3.262  -2.608  0.00  0.00    +0.045 A 
ATOM     23  S   UNL     1       4.774   1.505  -2.925  0.00  0.00    -0.105 S 
ATOM     24  C   UNL     1       3.452   1.031  -1.823  0.00  0.00    +0.049 A 
ENDBRANCH   3  20
BRANCH   2  25
ATOM     25  C   UNL     1       1.894  -0.122   0.094  0.00  0.00    +0.071 C 
ATOM     26  N   UNL     1       2.499  -1.016   0.449  0.00  0.00    -0.196 NA
ENDBRANCH   2  25
BRANCH   1  27
ATOM     27  O   UNL     1      -0.980   2.198  -0.039  0.00  0.00    -0.366 OA
ATOM     28  H   UNL     1      -1.780   2.366   0.478  0.00  0.00    +0.212 HD
ENDBRANCH   1  27
TORSDOF 5
