REMARK  Name = ZINC36483616
REMARK  16 active torsions:
REMARK  status: ('A' for Active; 'I' for Inactive)
REMARK    1  A    between atoms: C_1  and  C_2
REMARK    2  A    between atoms: C_2  and  C_3
REMARK    3  A    between atoms: C_2  and  C_4
REMARK    4  A    between atoms: C_2  and  C_5
REMARK    5  A    between atoms: C_5  and  C_6
REMARK    6  A    between atoms: C_6  and  C_7
REMARK    7  A    between atoms: C_6  and  C_8
REMARK    8  A    between atoms: C_6  and  N_9
REMARK    9  A    between atoms: C_10  and  C_12
REMARK   10  A    between atoms: C_12  and  C_14
REMARK   11  A    between atoms: C_12  and  N_23
REMARK   12  A    between atoms: C_15  and  O_22
REMARK   13  A    between atoms: C_17  and  O_21
REMARK   14  A    between atoms: C_19  and  O_20
REMARK   15  A    between atoms: N_23  and  C_24
REMARK   16  A    between atoms: C_31  and  C_33
REMARK                            x       y       z     vdW  Elec       q    Type
REMARK                         _______ _______ _______ _____ _____    ______ ____
ROOT
ATOM      1  C   UNL     1       5.566  -0.148  -4.635  0.00  0.00    +0.205 C 
ENDROOT
BRANCH   1   2
ATOM      2  C   UNL     1       5.406   0.331  -6.055  0.00  0.00    +0.065 A 
ATOM      3  C   UNL     1       6.301   1.252  -6.580  0.00  0.00    +0.129 A 
ATOM      4  C   UNL     1       6.154   1.693  -7.886  0.00  0.00    +0.091 A 
ATOM      5  C   UNL     1       5.113   1.213  -8.668  0.00  0.00    +0.124 A 
ATOM      6  C   UNL     1       4.220   0.292  -8.143  0.00  0.00    +0.091 A 
ATOM      7  C   UNL     1       4.369  -0.153  -6.838  0.00  0.00    +0.129 A 
BRANCH   7   8
ATOM      8  O   UNL     1       3.496  -1.059  -6.324  0.00  0.00    -0.506 OA
ATOM      9  H   UNL     1       2.725  -0.663  -5.896  0.00  0.00    +0.292 HD
ENDBRANCH   7   8
BRANCH   5  10
ATOM     10  O   UNL     1       4.969   1.646  -9.948  0.00  0.00    -0.507 OA
ATOM     11  H   UNL     1       5.443   1.112 -10.600  0.00  0.00    +0.292 HD
ENDBRANCH   5  10
BRANCH   3  12
ATOM     12  O   UNL     1       7.320   1.722  -5.814  0.00  0.00    -0.506 OA
ATOM     13  H   UNL     1       8.154   1.248  -5.936  0.00  0.00    +0.292 HD
ENDBRANCH   3  12
ENDBRANCH   1   2
BRANCH   1  15
ATOM     14  N   UNL     1       3.881   1.266  -3.504  0.00  0.00    -0.308 N 
ATOM     15  C   UNL     1       5.180   0.956  -3.685  0.00  0.00    +0.239 C 
ATOM     16  O   UNL     1       6.038   1.567  -3.084  0.00  0.00    -0.273 OA
ATOM     17  H   UNL     1       3.194   0.778  -3.984  0.00  0.00    +0.149 HD
BRANCH  14  18
ATOM     18  C   UNL     1       3.506   2.340  -2.580  0.00  0.00    +0.030 C 
ATOM     19  C   UNL     1       4.362   3.576  -2.862  0.00  0.00    +0.031 C 
ATOM     20  C   UNL     1       3.735   1.877  -1.140  0.00  0.00    +0.031 C 
BRANCH  18  21
ATOM     21  C   UNL     1       2.029   2.687  -2.775  0.00  0.00    +0.031 C 
BRANCH  21  23
ATOM     22  C   UNL     1       1.518   1.340  -4.817  0.00  0.00    +0.010 C 
ATOM     23  C   UNL     1       1.714   2.756  -4.271  0.00  0.00    -0.036 C 
ATOM     24  C   UNL     1       2.875   3.430  -5.006  0.00  0.00    +0.010 C 
ATOM     25  C   UNL     1       0.435   3.567  -4.486  0.00  0.00    +0.010 C 
ENDBRANCH  21  23
ENDBRANCH  18  21
ENDBRANCH  14  18
ENDBRANCH   1  15
BRANCH   1  26
ATOM     26  N   UNL     1       6.961  -0.528  -4.401  0.00  0.00    -0.249 N 
ATOM     27  C   UNL     1       7.623  -1.260  -5.320  0.00  0.00    +0.287 C 
ATOM     28  O   UNL     1       7.064  -1.597  -6.347  0.00  0.00    -0.266 OA
BRANCH  26  29
ATOM     29  C   UNL     1       7.606  -0.132  -3.226  0.00  0.00    +0.039 A 
ATOM     30  C   UNL     1       7.264  -0.716  -2.013  0.00  0.00    +0.023 A 
ATOM     31  C   UNL     1       7.903  -0.323  -0.854  0.00  0.00    +0.003 A 
ATOM     32  C   UNL     1       8.883   0.652  -0.898  0.00  0.00    +0.020 A 
ATOM     33  C   UNL     1       9.227   1.236  -2.105  0.00  0.00    +0.043 A 
ATOM     34  C   UNL     1       8.595   0.843  -3.269  0.00  0.00    +0.043 A 
ATOM     35 CL   UNL     1      10.457   2.460  -2.156  0.00  0.00    -0.083 Cl
ENDBRANCH  26  29
BRANCH  27  36
ATOM     36  C   UNL     1       9.017  -1.649  -5.081  0.00  0.00    +0.190 A 
ATOM     37  C   UNL     1       9.778  -2.441  -5.891  0.00  0.00    +0.054 A 
ATOM     38  C   UNL     1      11.038  -2.549  -5.281  0.00  0.00    +0.042 A 
ATOM     39  C   UNL     1      10.990  -1.828  -4.140  0.00  0.00    +0.196 A 
ATOM     40  O   UNL     1       9.773  -1.282  -4.026  0.00  0.00    -0.458 OA
ENDBRANCH  27  36
ENDBRANCH   1  26
TORSDOF 11
