REMARK  Name = ZINC66998481
REMARK  5 active torsions:
REMARK  status: ('A' for Active; 'I' for Inactive)
REMARK    1  A    between atoms: C_3  and  N_16
REMARK    2  A    between atoms: C_6  and  C_7
REMARK    3  A    between atoms: C_17  and  C_19
REMARK    4  A    between atoms: N_21  and  C_22
REMARK    5  A    between atoms: C_22  and  C_23
REMARK                            x       y       z     vdW  Elec       q    Type
REMARK                         _______ _______ _______ _____ _____    ______ ____
ROOT
ATOM      1  C   UNL     1       0.064   1.135  -0.380  0.00  0.00    +0.013 A 
ATOM      2  C   UNL     1       1.197   1.917  -0.330  0.00  0.00    +0.024 A 
ATOM      3  C   UNL     1       2.434   1.337  -0.072  0.00  0.00    +0.034 A 
ATOM      4  C   UNL     1       2.531  -0.035   0.137  0.00  0.00    +0.024 A 
ATOM      5  C   UNL     1       1.402  -0.823   0.087  0.00  0.00    +0.013 A 
ATOM      6  C   UNL     1       0.159  -0.242  -0.171  0.00  0.00    +0.019 A 
ENDROOT
BRANCH   6   7
ATOM      7  C   UNL     1      -1.055  -1.085  -0.224  0.00  0.00    +0.164 A 
ATOM      8  N   UNL     1      -1.185  -2.308   0.251  0.00  0.00    -0.129 NA
ATOM      9  N   UNL     1      -2.380  -2.737   0.030  0.00  0.00    -0.134 NA
ATOM     10  C   UNL     1      -3.069  -1.826  -0.589  0.00  0.00    +0.134 A 
ATOM     11  N   UNL     1      -2.255  -0.747  -0.767  0.00  0.00    -0.311 N 
ATOM     12  C   UNL     1      -2.650   0.498  -1.424  0.00  0.00    +0.125 C 
ATOM     13  C   UNL     1      -3.931   0.245  -2.228  0.00  0.00    +0.022 C 
ATOM     14  C   UNL     1      -4.968  -0.446  -1.338  0.00  0.00    +0.009 C 
ATOM     15  C   UNL     1      -4.505  -1.882  -1.046  0.00  0.00    +0.076 C 
ENDBRANCH   6   7
BRANCH   3  16
ATOM     16  N   UNL     1       3.579   2.132  -0.022  0.00  0.00    -0.278 N 
ATOM     17  C   UNL     1       3.505   3.393   0.449  0.00  0.00    +0.303 C 
ATOM     18  O   UNL     1       2.463   3.806   0.915  0.00  0.00    -0.265 OA
ATOM     19  H   UNL     1       4.430   1.778  -0.325  0.00  0.00    +0.155 HD
BRANCH  17  20
ATOM     20  C   UNL     1       4.703   4.282   0.396  0.00  0.00    +0.299 C 
ATOM     21  O   UNL     1       5.745   3.869  -0.071  0.00  0.00    -0.265 OA
ATOM     22  N   UNL     1       4.628   5.543   0.866  0.00  0.00    -0.307 N 
ATOM     23  H   UNL     1       3.796   5.873   1.239  0.00  0.00    +0.149 HD
BRANCH  22  24
ATOM     24  C   UNL     1       5.804   6.415   0.814  0.00  0.00    +0.108 C 
BRANCH  24  25
ATOM     25  C   UNL     1       5.452   7.781   1.406  0.00  0.00    +0.010 C 
ATOM     26  C   UNL     1       6.709   8.659   1.459  0.00  0.00    +0.009 C 
ATOM     27  C   UNL     1       6.369   9.946   2.215  0.00  0.00    +0.027 C 
ATOM     28  C   UNL     1       5.109  10.549   1.668  0.00  0.00    -0.031 C 
ATOM     29  C   UNL     1       4.256   9.908   0.935  0.00  0.00    -0.031 C 
ATOM     30  C   UNL     1       4.410   8.472   0.524  0.00  0.00    +0.032 C 
ENDBRANCH  24  25
ENDBRANCH  22  24
ENDBRANCH  17  20
ENDBRANCH   3  16
TORSDOF 5
