REMARK  Name = ZINC12208604
REMARK  11 active torsions:
REMARK  status: ('A' for Active; 'I' for Inactive)
REMARK    1  A    between atoms: C_1  and  C_2
REMARK    2  A    between atoms: C_2  and  O_3
REMARK    3  A    between atoms: O_3  and  C_4
REMARK    4  A    between atoms: C_8  and  C_11
REMARK    5  A    between atoms: C_9  and  O_10
REMARK    6  A    between atoms: C_11  and  N_60
REMARK    7  A    between atoms: C_12  and  N_60
REMARK    8  A    between atoms: C_15  and  C_29
REMARK    9  A    between atoms: C_15  and  C_30
REMARK   10  A    between atoms: N_21  and  C_22
REMARK   11  A    between atoms: C_25  and  C_28
REMARK                            x       y       z     vdW  Elec       q    Type
REMARK                         _______ _______ _______ _____ _____    ______ ____
ROOT
ATOM      1  C   UNL     1       2.430  -0.177   0.700  0.00  0.00    -0.037 C 
ATOM      2  C   UNL     1       2.229   1.292   1.092  0.00  0.00    -0.005 C 
ATOM      3  C   UNL     1       1.430   2.007  -0.001  0.00  0.00    -0.031 C 
ATOM      4  C   UNL     1      -0.018   1.504   0.010  0.00  0.00    +0.062 C 
ATOM      5  C   UNL     1       0.002  -0.004   0.002  0.00  0.00    +0.047 A 
ATOM      6  C   UNL     1       1.093  -0.753   0.307  0.00  0.00    -0.020 A 
ATOM      7  C   UNL     1       0.739  -2.096   0.191  0.00  0.00    +0.137 A 
ATOM      8  N   UNL     1      -0.520  -2.156  -0.170  0.00  0.00    -0.174 NA
ATOM      9  N   UNL     1      -1.005  -0.846  -0.295  0.00  0.00    -0.237 N 
ATOM     10  C   UNL     1       2.060   1.718  -1.365  0.00  0.00    +0.011 C 
ATOM     11  C   UNL     1       1.448   3.515   0.259  0.00  0.00    +0.011 C 
ENDROOT
BRANCH   9  12
ATOM     12  C   UNL     1      -2.308  -0.479  -0.662  0.00  0.00    +0.066 A 
ATOM     13  C   UNL     1      -2.900   0.643  -0.097  0.00  0.00    +0.028 A 
ATOM     14  C   UNL     1      -4.181   1.005  -0.465  0.00  0.00    +0.005 A 
ATOM     15  C   UNL     1      -4.878   0.246  -1.387  0.00  0.00    -0.050 A 
ATOM     16  C   UNL     1      -4.292  -0.875  -1.947  0.00  0.00    +0.005 A 
ATOM     17  C   UNL     1      -3.010  -1.239  -1.587  0.00  0.00    +0.028 A 
ATOM     18  C   UNL     1      -6.277   0.640  -1.782  0.00  0.00    +0.044 C 
ENDBRANCH   9  12
BRANCH   1  19
ATOM     19  N   UNL     1       2.973  -0.921   1.853  0.00  0.00    +0.386 N 
ATOM     20  H   UNL     1       3.619  -0.316   2.372  0.00  0.00    -0.085 HD
ATOM     21  H   UNL     1       2.200  -1.204   2.467  0.00  0.00    -0.085 HD
BRANCH  19  22
ATOM     22  C   UNL     1       3.694  -2.123   1.393  0.00  0.00    -0.042 C 
BRANCH  22  27
ATOM     23  C   UNL     1       3.907  -4.363   4.437  0.00  0.00    +0.162 A 
ATOM     24  C   UNL     1       5.239  -4.216   4.789  0.00  0.00    +0.049 A 
ATOM     25  C   UNL     1       6.065  -3.395   4.044  0.00  0.00    +0.004 A 
ATOM     26  C   UNL     1       5.566  -2.724   2.943  0.00  0.00    +0.005 A 
ATOM     27  C   UNL     1       4.236  -2.861   2.590  0.00  0.00    -0.019 A 
ATOM     28  C   UNL     1       3.404  -3.682   3.333  0.00  0.00    +0.160 A 
BRANCH  28  29
ATOM     29  O   UNL     1       2.097  -3.824   2.983  0.00  0.00    -0.503 OA
ATOM     30  H   UNL     1       1.931  -4.548   2.364  0.00  0.00    +0.292 HD
ENDBRANCH  28  29
BRANCH  23  31
ATOM     31  O   UNL     1       3.094  -5.170   5.170  0.00  0.00    -0.489 OA
BRANCH  31  33
ATOM     32  C   UNL     1       2.618  -6.692   6.986  0.00  0.00    +0.048 C 
ATOM     33  C   UNL     1       3.679  -5.836   6.290  0.00  0.00    +0.226 C 
ENDBRANCH  31  33
ENDBRANCH  23  31
ENDBRANCH  22  27
ENDBRANCH  19  22
ENDBRANCH   1  19
TORSDOF 7
