REMARK  Name = ZINC01705243
REMARK  5 active torsions:
REMARK  status: ('A' for Active; 'I' for Inactive)
REMARK    1  A    between atoms: C_1  and  C_2
REMARK    2  A    between atoms: C_2  and  O_3
REMARK    3  A    between atoms: O_3  and  P_4
REMARK    4  A    between atoms: C_6  and  C_12
REMARK    5  A    between atoms: C_8  and  C_11
REMARK                            x       y       z     vdW  Elec       q    Type
REMARK                         _______ _______ _______ _____ _____    ______ ____
ROOT
ATOM      1  P   UNL     1      -0.020   1.606   0.011  0.00  0.00    +0.335 P 
ATOM      2  O   UNL     1      -0.575   2.082  -1.444  0.00  0.00    -0.306 OA
ATOM      3  C   UNL     1       0.335   3.155  -1.794  0.00  0.00    +0.153 C 
ATOM      4  C   UNL     1       1.720   2.687  -1.305  0.00  0.00    +0.153 C 
ATOM      5  O   UNL     1       1.528   2.102  -0.001  0.00  0.00    -0.306 OA
ATOM      6  C   UNL     1       2.671   3.882  -1.207  0.00  0.00    +0.041 C 
ATOM      7  C   UNL     1       0.350   3.364  -3.309  0.00  0.00    +0.041 C 
ENDROOT
BRANCH   1   8
ATOM      8  O   UNL     1       0.002  -0.004   0.002  0.00  0.00    -0.312 OA
BRANCH   8  10
ATOM      9  C   UNL     1      -0.777  -2.282   0.215  0.00  0.00    +0.034 C 
ATOM     10  C   UNL     1      -1.142  -0.800   0.319  0.00  0.00    +0.166 C 
ENDBRANCH   8  10
ENDBRANCH   1   8
TORSDOF 2
