REMARK  Name = ZINC19659867
REMARK  6 active torsions:
REMARK  status: ('A' for Active; 'I' for Inactive)
REMARK    1  A    between atoms: C_1  and  C_2
REMARK    2  A    between atoms: C_6  and  N_12
REMARK    3  A    between atoms: C_13  and  C_15
REMARK    4  A    between atoms: C_15  and  C_16
REMARK    5  A    between atoms: C_16  and  C_17
REMARK    6  A    between atoms: C_17  and  C_24
REMARK                            x       y       z     vdW  Elec       q    Type
REMARK                         _______ _______ _______ _____ _____    ______ ____
ROOT
ATOM      1  C   UNL     1       6.052   2.267   0.173  0.00  0.00    +0.099 C 
ENDROOT
BRANCH   1   3
ATOM      2  N   UNL     1       3.588   2.153  -0.020  0.00  0.00    -0.285 N 
ATOM      3  C   UNL     1       4.761   1.495   0.067  0.00  0.00    +0.217 C 
ATOM      4  O   UNL     1       4.779   0.282   0.060  0.00  0.00    -0.275 OA
ATOM      5  H   UNL     1       3.577   3.251  -0.090  0.00  0.00    +0.155 HD
BRANCH   2  11
ATOM      6  C   UNL     1      -1.474  -3.116  -1.192  0.00  0.00    +0.086 C 
ATOM      7  C   UNL     1      -0.612  -1.930  -0.845  0.00  0.00    +0.103 A 
ATOM      8  C   UNL     1       0.680  -1.798  -1.175  0.00  0.00    +0.053 A 
ATOM      9  C   UNL     1       1.111  -0.503  -0.633  0.00  0.00    +0.024 A 
ATOM     10  C   UNL     1       2.314   0.201  -0.636  0.00  0.00    +0.035 A 
ATOM     11  C   UNL     1       2.383   1.438  -0.021  0.00  0.00    +0.036 A 
ATOM     12  C   UNL     1       1.256   1.975   0.598  0.00  0.00    +0.047 A 
ATOM     13  C   UNL     1       0.063   1.284   0.604  0.00  0.00    +0.085 A 
ATOM     14  C   UNL     1      -0.024   0.040  -0.009  0.00  0.00    +0.153 A 
ATOM     15  O   UNL     1      -1.028  -0.849  -0.162  0.00  0.00    -0.458 OA
ATOM     16 CL   UNL     1      -1.331   1.969   1.379  0.00  0.00    -0.080 Cl
ENDBRANCH   2  11
ENDBRANCH   1   3
BRANCH   1  17
ATOM     17  C   UNL     1       7.225   1.289   0.258  0.00  0.00    +0.049 C 
BRANCH  17  18
ATOM     18  C   UNL     1       8.535   2.072   0.365  0.00  0.00    +0.138 C 
ATOM     19  C   UNL     1       8.532   2.949   1.602  0.00  0.00    +0.248 C 
ATOM     20  O   UNL     1       8.450   2.586   2.756  0.00  0.00    -0.273 OA
ATOM     21  N   UNL     1       8.640   4.214   1.152  0.00  0.00    -0.238 N 
ATOM     22  C   UNL     1       8.709   4.259  -0.184  0.00  0.00    +0.307 C 
ATOM     23  O   UNL     1       8.810   5.289  -0.821  0.00  0.00    -0.252 OA
ATOM     24  N   UNL     1       8.655   3.036  -0.742  0.00  0.00    -0.281 N 
ATOM     25  H   UNL     1       8.660   5.052   1.865  0.00  0.00    +0.159 HD
ATOM     26  H   UNL     1       8.682   2.679  -1.782  0.00  0.00    +0.152 HD
BRANCH  18  27
ATOM     27  C   UNL     1       9.713   1.133   0.380  0.00  0.00    -0.015 A 
ATOM     28  C   UNL     1       9.580  -0.135   0.914  0.00  0.00    +0.006 A 
ATOM     29  C   UNL     1      10.659  -0.998   0.924  0.00  0.00    +0.000 A 
ATOM     30  C   UNL     1      11.875  -0.591   0.407  0.00  0.00    +0.000 A 
ATOM     31  C   UNL     1      12.010   0.679  -0.123  0.00  0.00    +0.000 A 
ATOM     32  C   UNL     1      10.929   1.540  -0.137  0.00  0.00    +0.006 A 
ENDBRANCH  18  27
ENDBRANCH  17  18
ENDBRANCH   1  17
TORSDOF 5
