REMARK  Name = ZINC39685798
REMARK  12 active torsions:
REMARK  status: ('A' for Active; 'I' for Inactive)
REMARK    1  A    between atoms: C_1  and  C_2
REMARK    2  A    between atoms: C_4  and  C_9
REMARK    3  A    between atoms: C_13  and  C_22
REMARK    4  A    between atoms: N_24  and  C_25
REMARK    5  A    between atoms: C_25  and  C_27
REMARK    6  A    between atoms: C_25  and  C_30
REMARK    7  A    between atoms: C_27  and  C_28
REMARK    8  A    between atoms: C_27  and  C_29
REMARK    9  A    between atoms: N_32  and  C_33
REMARK   10  A    between atoms: C_33  and  C_34
REMARK   11  A    between atoms: C_33  and  C_35
REMARK   12  A    between atoms: C_33  and  C_36
REMARK                            x       y       z     vdW  Elec       q    Type
REMARK                         _______ _______ _______ _____ _____    ______ ____
ROOT
ATOM      1  C   UNL     1       1.958  -3.581  -3.566  0.00  0.00    +0.247 C 
ATOM      2  O   UNL     1       2.325  -3.237  -4.673  0.00  0.00    -0.270 OA
ATOM      3  N   UNL     1       1.837  -4.892  -3.274  0.00  0.00    -0.296 N 
ATOM      4  C   UNL     1       1.290  -5.500  -2.038  0.00  0.00    +0.121 C 
ATOM      5  C   UNL     1       0.481  -6.721  -2.530  0.00  0.00    +0.100 C 
ATOM      6  C   UNL     1       1.097  -7.078  -3.893  0.00  0.00    -0.004 C 
ATOM      7  C   UNL     1       2.215  -6.050  -4.119  0.00  0.00    +0.115 C 
ATOM      8  C   UNL     1       0.048  -6.960  -4.994  0.00  0.00    -0.010 C 
ATOM      9  C   UNL     1       0.670  -7.375  -6.331  0.00  0.00    -0.082 C 
ATOM     10  N   UNL     1       1.158  -8.756  -6.238  0.00  0.00    +0.379 N 
ATOM     11  C   UNL     1       2.231  -8.842  -5.241  0.00  0.00    -0.082 C 
ATOM     12  C   UNL     1       1.676  -8.489  -3.858  0.00  0.00    -0.010 C 
ATOM     13  H   UNL     1       0.398  -9.362  -5.966  0.00  0.00    -0.086 HD
ATOM     14  H   UNL     1       1.511  -9.047  -7.137  0.00  0.00    -0.086 HD
ENDROOT
BRANCH   1  18
ATOM     15  C   UNL     1       0.668   1.089  -2.374  0.00  0.00    +0.045 C 
ATOM     16  C   UNL     1       1.022  -0.317  -1.963  0.00  0.00    -0.036 A 
ATOM     17  C   UNL     1       1.315  -1.262  -2.924  0.00  0.00    +0.017 A 
ATOM     18  C   UNL     1       1.644  -2.564  -2.541  0.00  0.00    +0.037 A 
ATOM     19  C   UNL     1       1.674  -2.901  -1.187  0.00  0.00    +0.014 A 
ATOM     20  C   UNL     1       1.379  -1.947  -0.235  0.00  0.00    +0.016 A 
ATOM     21  C   UNL     1       1.060  -0.656  -0.621  0.00  0.00    +0.021 A 
ATOM     22 BR   UNL     1       0.665   0.648   0.690  0.00  0.00    -0.050 Br
ENDBRANCH   1  18
BRANCH   5  23
ATOM     23  C   UNL     1       0.629  -7.871  -1.567  0.00  0.00    +0.219 C 
ATOM     24  O   UNL     1       1.635  -7.975  -0.897  0.00  0.00    -0.275 OA
ATOM     25  N   UNL     1      -0.356  -8.784  -1.450  0.00  0.00    -0.303 N 
ATOM     26  H   UNL     1      -1.160  -8.700  -1.986  0.00  0.00    +0.149 HD
BRANCH  25  27
ATOM     27  C   UNL     1      -0.211  -9.901  -0.514  0.00  0.00    +0.161 C 
BRANCH  27  28
ATOM     28  C   UNL     1      -1.067 -11.054  -0.972  0.00  0.00    +0.234 C 
ATOM     29  O   UNL     1      -1.989 -10.859  -1.736  0.00  0.00    -0.274 OA
ATOM     30  N   UNL     1      -0.809 -12.302  -0.532  0.00  0.00    -0.309 N 
ATOM     31  H   UNL     1      -0.119 -12.448   0.134  0.00  0.00    +0.149 HD
BRANCH  30  32
ATOM     32  C   UNL     1      -1.569 -13.437  -1.061  0.00  0.00    +0.026 C 
ATOM     33  C   UNL     1      -1.363 -13.527  -2.575  0.00  0.00    +0.031 C 
ATOM     34  C   UNL     1      -1.082 -14.728  -0.402  0.00  0.00    +0.031 C 
ATOM     35  C   UNL     1      -3.056 -13.239  -0.760  0.00  0.00    +0.031 C 
ENDBRANCH  30  32
ENDBRANCH  27  28
BRANCH  27  36
ATOM     36  C   UNL     1      -0.656  -9.459   0.882  0.00  0.00    +0.012 C 
ATOM     37  C   UNL     1       0.275  -8.355   1.388  0.00  0.00    +0.009 C 
ATOM     38  C   UNL     1      -2.089  -8.926   0.815  0.00  0.00    +0.009 C 
ENDBRANCH  27  36
ENDBRANCH  25  27
ENDBRANCH   5  23
TORSDOF 6
