REMARK  Name = ZINC36635751
REMARK  6 active torsions:
REMARK  status: ('A' for Active; 'I' for Inactive)
REMARK    1  A    between atoms: C_1  and  C_2
REMARK    2  A    between atoms: C_4  and  C_25
REMARK    3  A    between atoms: C_5  and  N_9
REMARK    4  A    between atoms: C_6  and  C_8
REMARK    5  A    between atoms: N_9  and  C_10
REMARK    6  A    between atoms: N_15  and  C_18
REMARK                            x       y       z     vdW  Elec       q    Type
REMARK                         _______ _______ _______ _____ _____    ______ ____
ROOT
ATOM      1  C   UNL     1      -0.271  -4.227   1.334  0.00  0.00    +0.166 C 
ATOM      2  C   UNL     1      -0.946  -5.268   2.251  0.00  0.00    +0.128 C 
ATOM      3  C   UNL     1      -0.302  -6.574   1.840  0.00  0.00    +0.228 C 
ATOM      4  O   UNL     1      -0.549  -7.660   2.317  0.00  0.00    -0.275 OA
ATOM      5  N   UNL     1       0.585  -6.339   0.864  0.00  0.00    -0.209 N 
ATOM      6  C   UNL     1       0.686  -5.051   0.501  0.00  0.00    +0.247 C 
ATOM      7  O   UNL     1       1.424  -4.616  -0.357  0.00  0.00    -0.273 OA
ENDROOT
BRANCH   5   8
ATOM      8  C   UNL     1       1.347  -7.356   0.271  0.00  0.00    +0.044 A 
ATOM      9  C   UNL     1       2.308  -8.028   1.014  0.00  0.00    +0.027 A 
ATOM     10  C   UNL     1       3.058  -9.029   0.428  0.00  0.00    +0.040 A 
ATOM     11  C   UNL     1       2.851  -9.363  -0.900  0.00  0.00    +0.124 A 
ATOM     12  C   UNL     1       1.893  -8.694  -1.643  0.00  0.00    +0.040 A 
ATOM     13  C   UNL     1       1.137  -7.696  -1.058  0.00  0.00    +0.027 A 
ATOM     14  F   UNL     1       3.586 -10.342  -1.471  0.00  0.00    -0.205 F 
ENDBRANCH   5   8
BRANCH   1  15
ATOM     15  N   UNL     1      -1.265  -3.571   0.481  0.00  0.00    -0.332 N 
ATOM     16  H   UNL     1      -1.473  -3.938  -0.392  0.00  0.00    +0.147 HD
BRANCH  15  21
ATOM     17  C   UNL     1      -3.893   1.120   2.282  0.00  0.00    +0.044 C 
ATOM     18  C   UNL     1      -3.195  -0.126   1.803  0.00  0.00    -0.050 A 
ATOM     19  C   UNL     1      -3.879  -1.327   1.760  0.00  0.00    +0.008 A 
ATOM     20  C   UNL     1      -3.242  -2.471   1.322  0.00  0.00    -0.029 A 
ATOM     21  C   UNL     1      -1.912  -2.415   0.924  0.00  0.00    +0.034 A 
ATOM     22  C   UNL     1      -1.228  -1.207   0.968  0.00  0.00    -0.029 A 
ATOM     23  C   UNL     1      -1.872  -0.066   1.402  0.00  0.00    +0.008 A 
ATOM     24  C   UNL     1       0.215  -1.141   0.538  0.00  0.00    +0.045 C 
ATOM     25  C   UNL     1      -3.988  -3.780   1.276  0.00  0.00    +0.045 C 
ENDBRANCH  15  21
ENDBRANCH   1  15
TORSDOF 3
