REMARK  Name = ZINC41218028
REMARK  10 active torsions:
REMARK  status: ('A' for Active; 'I' for Inactive)
REMARK    1  A    between atoms: C_1  and  C_2
REMARK    2  A    between atoms: C_2  and  O_3
REMARK    3  A    between atoms: O_3  and  C_4
REMARK    4  A    between atoms: C_7  and  C_10
REMARK    5  A    between atoms: C_10  and  C_11
REMARK    6  A    between atoms: C_10  and  N_12
REMARK    7  A    between atoms: C_13  and  C_15
REMARK    8  A    between atoms: N_17  and  C_18
REMARK    9  A    between atoms: C_25  and  C_27
REMARK   10  A    between atoms: C_25  and  C_28
REMARK                            x       y       z     vdW  Elec       q    Type
REMARK                         _______ _______ _______ _____ _____    ______ ____
ROOT
ATOM      1  N   UNL     1       0.939  -6.415   3.170  0.00  0.00    -0.301 N 
ATOM      2  C   UNL     1       0.502  -7.647   3.498  0.00  0.00    +0.300 C 
ATOM      3  O   UNL     1       0.268  -8.459   2.627  0.00  0.00    -0.265 OA
ATOM      4  H   UNL     1       1.127  -5.766   3.867  0.00  0.00    +0.150 HD
ENDROOT
BRANCH   2   5
ATOM      5  C   UNL     1       0.305  -8.013   4.932  0.00  0.00    +0.303 C 
ATOM      6  O   UNL     1       0.540  -7.201   5.803  0.00  0.00    -0.265 OA
ATOM      7  N   UNL     1      -0.132  -9.245   5.259  0.00  0.00    -0.278 N 
ATOM      8  H   UNL     1      -0.383  -9.871   4.562  0.00  0.00    +0.155 HD
BRANCH   7   9
ATOM      9  C   UNL     1      -0.224  -9.620   6.603  0.00  0.00    +0.038 A 
ATOM     10  C   UNL     1       0.054 -10.928   6.980  0.00  0.00    +0.027 A 
ATOM     11  C   UNL     1      -0.037 -11.300   8.307  0.00  0.00    +0.051 A 
ATOM     12  C   UNL     1      -0.406 -10.370   9.267  0.00  0.00    +0.167 A 
ATOM     13  C   UNL     1      -0.685  -9.058   8.892  0.00  0.00    +0.169 A 
ATOM     14  C   UNL     1      -0.588  -8.684   7.562  0.00  0.00    +0.073 A 
ATOM     15  O   UNL     1      -1.020  -8.348  10.009  0.00  0.00    -0.448 OA
ATOM     16  C   UNL     1      -1.341  -9.332  11.009  0.00  0.00    +0.248 C 
ATOM     17  O   UNL     1      -0.566 -10.481  10.618  0.00  0.00    -0.448 OA
ATOM     18  C   UNL     1      -0.918  -8.846  12.397  0.00  0.00    +0.104 C 
ATOM     19  C   UNL     1      -2.835  -9.657  10.984  0.00  0.00    +0.104 C 
ENDBRANCH   7   9
ENDBRANCH   2   5
BRANCH   1  20
ATOM     20  C   UNL     1       1.132  -6.055   1.763  0.00  0.00    +0.101 C 
ATOM     21  C   UNL     1       2.520  -6.510   1.306  0.00  0.00    +0.033 C 
BRANCH  20  25
ATOM     22  C   UNL     1       0.801  -1.818   1.317  0.00  0.00    +0.121 A 
ATOM     23  C   UNL     1       0.249  -2.663   0.364  0.00  0.00    +0.046 A 
ATOM     24  C   UNL     1       0.358  -4.032   0.510  0.00  0.00    +0.009 A 
ATOM     25  C   UNL     1       1.015  -4.561   1.606  0.00  0.00    -0.027 A 
ATOM     26  C   UNL     1       1.565  -3.722   2.557  0.00  0.00    +0.009 A 
ATOM     27  C   UNL     1       1.465  -2.352   2.412  0.00  0.00    +0.046 A 
BRANCH  22  28
ATOM     28  O   UNL     1       0.696  -0.471   1.174  0.00  0.00    -0.492 OA
BRANCH  28  30
ATOM     29  C   UNL     1      -0.017   1.538   0.035  0.00  0.00    +0.048 C 
ATOM     30  C   UNL     1      -0.001   0.008   0.022  0.00  0.00    +0.225 C 
ENDBRANCH  28  30
ENDBRANCH  22  28
ENDBRANCH  20  25
ENDBRANCH   1  20
TORSDOF 6
