REMARK  Name = ZINC00876536
REMARK  9 active torsions:
REMARK  status: ('A' for Active; 'I' for Inactive)
REMARK    1  A    between atoms: C_1  and  C_2
REMARK    2  A    between atoms: C_6  and  C_15
REMARK    3  A    between atoms: C_13  and  C_14
REMARK    4  A    between atoms: C_17  and  C_28
REMARK    5  A    between atoms: C_18  and  N_27
REMARK    6  A    between atoms: C_20  and  C_26
REMARK    7  A    between atoms: C_21  and  C_22
REMARK    8  A    between atoms: C_22  and  O_24
REMARK    9  A    between atoms: O_24  and  C_25
REMARK                            x       y       z     vdW  Elec       q    Type
REMARK                         _______ _______ _______ _____ _____    ______ ____
ROOT
ATOM      1  C   UNL     1       2.435   1.108   0.067  0.00  0.00    +0.110 C 
ATOM      2  C   UNL     1       3.386   1.360   1.206  0.00  0.00    +0.098 C 
ATOM      3  C   UNL     1       4.443   2.195   1.053  0.00  0.00    +0.198 C 
ATOM      4  O   UNL     1       4.683   2.828  -0.109  0.00  0.00    -0.445 OA
ATOM      5  C   UNL     1       4.122   2.369  -1.237  0.00  0.00    +0.115 C 
ATOM      6  C   UNL     1       3.059   1.555  -1.226  0.00  0.00    +0.087 C 
ATOM      7  C   UNL     1       4.707   2.784  -2.562  0.00  0.00    +0.087 C 
ENDROOT
BRANCH   1  13
ATOM      8  C   UNL     1      -4.944   1.439   1.096  0.00  0.00    +0.044 C 
ATOM      9  C   UNL     1      -3.604   2.116   0.967  0.00  0.00    -0.047 A 
ATOM     10  C   UNL     1      -2.483   1.363   0.755  0.00  0.00    +0.013 A 
ATOM     11  C   UNL     1      -1.240   1.990   0.630  0.00  0.00    -0.001 A 
ATOM     12  C   UNL     1      -0.018   1.214   0.409  0.00  0.00    +0.020 A 
ATOM     13  C   UNL     1       1.160   1.876   0.300  0.00  0.00    +0.030 A 
ATOM     14  C   UNL     1       1.196   3.283   0.405  0.00  0.00    +0.253 A 
ATOM     15  O   UNL     1       2.266   3.859   0.305  0.00  0.00    -0.268 OA
ATOM     16  N   UNL     1       0.081   4.005   0.613  0.00  0.00    -0.322 N 
ATOM     17  H   UNL     1       0.143   5.000   0.682  0.00  0.00    +0.169 HD
ATOM     18  C   UNL     1      -1.148   3.391   0.732  0.00  0.00    +0.049 A 
ATOM     19  C   UNL     1      -2.303   4.137   0.948  0.00  0.00    +0.030 A 
ATOM     20  C   UNL     1      -3.518   3.498   1.063  0.00  0.00    -0.046 A 
ATOM     21  C   UNL     1      -4.767   4.307   1.297  0.00  0.00    +0.044 C 
ENDBRANCH   1  13
BRANCH   3  22
ATOM     22  N   UNL     1       5.291   2.400   2.112  0.00  0.00    -0.328 N 
ATOM     23  H   UNL     1       6.051   2.995   2.018  0.00  0.00    +0.145 HD
ATOM     24  H   UNL     1       5.130   1.950   2.957  0.00  0.00    +0.145 HD
ENDBRANCH   3  22
BRANCH   6  25
ATOM     25  C   UNL     1       2.513   1.107  -2.454  0.00  0.00    +0.339 C 
ATOM     26  O   UNL     1       2.692  -0.040  -2.818  0.00  0.00    -0.245 OA
BRANCH  25  27
ATOM     27  O   UNL     1       1.794   1.952  -3.221  0.00  0.00    -0.465 OA
ATOM     28  C   UNL     1       1.273   1.434  -4.447  0.00  0.00    +0.280 C 
ENDBRANCH  25  27
ENDBRANCH   6  25
BRANCH   2  29
ATOM     29  C   UNL     1       3.173   0.711   2.464  0.00  0.00    +0.101 C 
ATOM     30  N   UNL     1       3.003   0.197   3.463  0.00  0.00    -0.191 NA
ENDBRANCH   2  29
TORSDOF 5
