REMARK  Name = ZINC50659074
REMARK  5 active torsions:
REMARK  status: ('A' for Active; 'I' for Inactive)
REMARK    1  A    between atoms: C_2  and  N_19
REMARK    2  A    between atoms: C_5  and  S_8
REMARK    3  A    between atoms: C_6  and  N_7
REMARK    4  A    between atoms: S_8  and  N_11
REMARK    5  A    between atoms: N_11  and  C_12
REMARK                            x       y       z     vdW  Elec       q    Type
REMARK                         _______ _______ _______ _____ _____    ______ ____
ROOT
ATOM      1  C   UNL     1       2.314   1.402   0.421  0.00  0.00    +0.057 A 
ATOM      2  C   UNL     1       1.094   2.044   0.341  0.00  0.00    +0.131 A 
ATOM      3  C   UNL     1      -0.026   1.354  -0.083  0.00  0.00    +0.073 A 
ATOM      4  C   UNL     1       0.071   0.016  -0.428  0.00  0.00    +0.154 A 
ATOM      5  C   UNL     1       1.291  -0.632  -0.350  0.00  0.00    +0.161 A 
ATOM      6  C   UNL     1       2.417   0.061   0.075  0.00  0.00    +0.056 A 
ATOM      7  F   UNL     1      -1.025  -0.657  -0.842  0.00  0.00    -0.203 F 
ENDROOT
BRANCH   6   8
ATOM      8  N   UNL     1       3.650  -0.590   0.154  0.00  0.00    -0.356 N 
ATOM      9  H   UNL     1       4.463  -0.076   0.284  0.00  0.00    +0.142 HD
ATOM     10  H   UNL     1       3.695  -1.556   0.080  0.00  0.00    +0.142 HD
ENDBRANCH   6   8
BRANCH   5  11
ATOM     11  S   UNL     1       1.415  -2.334  -0.788  0.00  0.00    +0.063 S 
ATOM     12  O   UNL     1       0.223  -2.662  -1.487  0.00  0.00    -0.153 OA
ATOM     13  O   UNL     1       2.705  -2.514  -1.357  0.00  0.00    -0.153 OA
BRANCH  11  14
ATOM     14  N   UNL     1       1.394  -3.205   0.620  0.00  0.00    -0.187 NA
ATOM     15  H   UNL     1       2.174  -3.716   0.886  0.00  0.00    +0.148 HD
BRANCH  14  16
ATOM     16  C   UNL     1       0.196  -3.204   1.463  0.00  0.00    +0.081 C 
ATOM     17  C   UNL     1       0.343  -2.146   2.561  0.00  0.00    +0.048 C 
ATOM     18  C   UNL     1      -0.877  -2.206   3.484  0.00  0.00    +0.161 C 
ATOM     19  O   UNL     1      -0.994  -3.521   4.032  0.00  0.00    -0.380 OA
ATOM     20  C   UNL     1      -1.181  -4.546   3.055  0.00  0.00    +0.161 C 
ATOM     21  C   UNL     1       0.027  -4.580   2.115  0.00  0.00    +0.048 C 
ENDBRANCH  14  16
ENDBRANCH  11  14
ENDBRANCH   5  11
BRANCH   2  22
ATOM     22  N   UNL     1       0.985   3.473   0.711  0.00  0.00    +0.057 N 
ATOM     23  O   UNL     1       1.964   4.078   1.082  0.00  0.00    -0.126 OA
ATOM     24  O   UNL     1      -0.083   4.036   0.641  0.00  0.00    -0.126 OA
ENDBRANCH   2  22
TORSDOF 5
