REMARK  Name = ZINC35459091
REMARK  9 active torsions:
REMARK  status: ('A' for Active; 'I' for Inactive)
REMARK    1  A    between atoms: C_1  and  C_2
REMARK    2  A    between atoms: C_9  and  O_45
REMARK    3  A    between atoms: C_11  and  C_44
REMARK    4  A    between atoms: C_12  and  C_43
REMARK    5  A    between atoms: C_19  and  O_25
REMARK    6  A    between atoms: C_21  and  O_24
REMARK    7  A    between atoms: O_25  and  C_26
REMARK    8  A    between atoms: C_30  and  C_32
REMARK    9  A    between atoms: C_32  and  C_33
REMARK                            x       y       z     vdW  Elec       q    Type
REMARK                         _______ _______ _______ _____ _____    ______ ____
ROOT
ATOM      1  C   UNL     1       0.512   1.541   1.076  0.00  0.00    +0.008 C 
ATOM      2  C   UNL     1       0.436   0.027   0.863  0.00  0.00    -0.008 C 
ATOM      3  C   UNL     1      -1.022  -0.392   0.692  0.00  0.00    +0.030 C 
ATOM      4  C   UNL     1      -1.207  -1.829   1.116  0.00  0.00    -0.030 C 
ATOM      5  C   UNL     1      -1.349  -2.762   0.216  0.00  0.00    -0.023 C 
ATOM      6  C   UNL     1      -1.560  -4.212   0.549  0.00  0.00    +0.067 C 
ATOM      7  C   UNL     1      -2.686  -4.404   1.544  0.00  0.00    +0.148 C 
ATOM      8  C   UNL     1      -2.814  -5.851   1.930  0.00  0.00    -0.045 C 
ATOM      9  C   UNL     1      -1.814  -6.695   1.930  0.00  0.00    -0.065 C 
ATOM     10  C   UNL     1      -0.444  -6.328   1.454  0.00  0.00    +0.058 C 
ATOM     11  C   UNL     1      -0.268  -4.893   0.940  0.00  0.00    +0.122 C 
ATOM     12  C   UNL     1       0.488  -4.120   1.991  0.00  0.00    +0.152 C 
ATOM     13  O   UNL     1      -0.096  -3.623   2.920  0.00  0.00    -0.296 OA
ATOM     14  C   UNL     1       1.989  -4.009   1.902  0.00  0.00    +0.109 C 
ATOM     15  C   UNL     1       2.492  -2.708   2.521  0.00  0.00    +0.153 C 
ATOM     16  C   UNL     1       2.231  -1.544   1.568  0.00  0.00    +0.144 C 
ATOM     17  C   UNL     1       1.067  -0.685   2.062  0.00  0.00    +0.037 C 
ATOM     18  C   UNL     1       0.629  -5.020  -0.269  0.00  0.00    +0.228 C 
ATOM     19  O   UNL     1       1.076  -4.083  -0.896  0.00  0.00    -0.275 OA
ATOM     20  N   UNL     1       0.845  -6.307  -0.563  0.00  0.00    -0.311 N 
ATOM     21  C   UNL     1      -0.015  -7.167   0.252  0.00  0.00    +0.086 C 
ATOM     22  C   UNL     1      -2.061  -8.080   2.501  0.00  0.00    +0.039 C 
ATOM     23  C   UNL     1      -4.180  -6.370   2.342  0.00  0.00    +0.041 C 
ATOM     24  H   UNL     1       1.480  -6.630  -1.217  0.00  0.00    +0.149 HD
ENDROOT
BRANCH  16  25
ATOM     25  O   UNL     1       3.408  -0.733   1.476  0.00  0.00    -0.389 OA
ATOM     26  H   UNL     1       3.316   0.028   0.886  0.00  0.00    +0.210 HD
ENDBRANCH  16  25
BRANCH  15  27
ATOM     27  O   UNL     1       1.886  -2.474   3.788  0.00  0.00    -0.377 OA
ATOM     28  C   UNL     1       2.608  -3.029   4.888  0.00  0.00    +0.194 C 
ENDBRANCH  15  27
BRANCH   7  29
ATOM     29  O   UNL     1      -2.531  -3.611   2.721  0.00  0.00    -0.387 OA
ATOM     30  H   UNL     1      -3.243  -3.723   3.366  0.00  0.00    +0.210 HD
ENDBRANCH   7  29
BRANCH  21  31
ATOM     31  C   UNL     1      -1.217  -7.590  -0.591  0.00  0.00    +0.060 C 
BRANCH  31  32
ATOM     32  C   UNL     1      -0.760  -8.513  -1.691  0.00  0.00    -0.021 A 
ATOM     33  C   UNL     1      -0.446  -8.163  -2.948  0.00  0.00    +0.087 A 
ATOM     34  N   UNL     1      -0.074  -9.270  -3.661  0.00  0.00    -0.360 N 
ATOM     35  H   UNL     1       0.197  -9.268  -4.593  0.00  0.00    +0.165 HD
ATOM     36  C   UNL     1      -0.141 -10.388  -2.860  0.00  0.00    +0.047 A 
ATOM     37  C   UNL     1      -0.568  -9.962  -1.589  0.00  0.00    +0.003 A 
ATOM     38  C   UNL     1      -0.722 -10.891  -0.558  0.00  0.00    +0.010 A 
ATOM     39  C   UNL     1      -0.454 -12.211  -0.789  0.00  0.00    +0.001 A 
ATOM     40  C   UNL     1      -0.029 -12.636  -2.040  0.00  0.00    +0.002 A 
ATOM     41  C   UNL     1       0.121 -11.737  -3.074  0.00  0.00    +0.026 A 
ENDBRANCH  31  32
ENDBRANCH  21  31
TORSDOF 5
