REMARK  Name = ZINC50039539
REMARK  6 active torsions:
REMARK  status: ('A' for Active; 'I' for Inactive)
REMARK    1  A    between atoms: C_1  and  C_2
REMARK    2  A    between atoms: C_2  and  C_3
REMARK    3  A    between atoms: C_3  and  C_5
REMARK    4  A    between atoms: C_3  and  C_6
REMARK    5  A    between atoms: C_7  and  C_12
REMARK    6  A    between atoms: C_8  and  N_11
REMARK                            x       y       z     vdW  Elec       q    Type
REMARK                         _______ _______ _______ _____ _____    ______ ____
ROOT
ATOM      1  C   UNL     1      -1.414  -2.036   0.129  0.00  0.00    +0.096 A 
ATOM      2  C   UNL     1      -2.000  -2.794   1.165  0.00  0.00    +0.066 A 
ATOM      3  C   UNL     1      -1.754  -4.127   0.894  0.00  0.00    +0.223 A 
ATOM      4  O   UNL     1      -1.054  -4.182  -0.251  0.00  0.00    -0.339 OA
ATOM      5  N   UNL     1      -0.858  -2.860  -0.714  0.00  0.00    -0.080 NA
ENDROOT
BRANCH   2   6
ATOM      6  C   UNL     1      -2.742  -2.259   2.331  0.00  0.00    -0.010 A 
ATOM      7  C   UNL     1      -2.086  -1.471   3.276  0.00  0.00    +0.010 A 
ATOM      8  C   UNL     1      -2.782  -0.975   4.360  0.00  0.00    +0.022 A 
ATOM      9  C   UNL     1      -4.128  -1.258   4.511  0.00  0.00    +0.059 A 
ATOM     10  C   UNL     1      -4.785  -2.040   3.575  0.00  0.00    +0.060 A 
ATOM     11  C   UNL     1      -4.099  -2.537   2.483  0.00  0.00    +0.030 A 
ATOM     12 CL   UNL     1      -6.474  -2.392   3.771  0.00  0.00    -0.082 Cl
ATOM     13 CL   UNL     1      -4.997  -0.630   5.876  0.00  0.00    -0.082 Cl
ENDBRANCH   2   6
BRANCH   3  14
ATOM     14  N   UNL     1      -2.155  -5.202   1.658  0.00  0.00    -0.327 N 
ATOM     15  H   UNL     1      -2.660  -5.056   2.474  0.00  0.00    +0.145 HD
ATOM     16  H   UNL     1      -1.932  -6.104   1.381  0.00  0.00    +0.145 HD
ENDBRANCH   3  14
BRANCH   1  17
ATOM     17  C   UNL     1      -1.433  -0.534   0.013  0.00  0.00    +0.038 C 
ATOM     18  C   UNL     1      -2.135  -0.131  -1.286  0.00  0.00    +0.014 C 
BRANCH  17  20
ATOM     19  C   UNL     1      -0.019   1.526   0.010  0.00  0.00    +0.004 C 
ATOM     20  C   UNL     1       0.002  -0.004   0.002  0.00  0.00    +0.006 C 
ENDBRANCH  17  20
ENDBRANCH   1  17
TORSDOF 4
