REMARK  Name = ZINC67104511
REMARK  10 active torsions:
REMARK  status: ('A' for Active; 'I' for Inactive)
REMARK    1  A    between atoms: C_1  and  C_2
REMARK    2  A    between atoms: C_2  and  C_3
REMARK    3  A    between atoms: C_2  and  C_4
REMARK    4  A    between atoms: C_4  and  C_5
REMARK    5  A    between atoms: C_5  and  C_6
REMARK    6  A    between atoms: N_8  and  N_9
REMARK    7  A    between atoms: N_12  and  C_13
REMARK    8  A    between atoms: C_13  and  C_14
REMARK    9  A    between atoms: C_17  and  C_20
REMARK   10  A    between atoms: C_20  and  N_21
REMARK                            x       y       z     vdW  Elec       q    Type
REMARK                         _______ _______ _______ _____ _____    ______ ____
ROOT
ATOM      1  N   UNL     1      -5.676  -0.903  -2.314  0.00  0.00    -0.218 N 
ATOM      2  C   UNL     1      -6.489  -0.667  -3.363  0.00  0.00    +0.316 C 
ATOM      3  O   UNL     1      -7.630  -1.088  -3.354  0.00  0.00    -0.251 OA
ATOM      4  N   UNL     1      -6.038   0.034  -4.421  0.00  0.00    -0.294 N 
ATOM      5  H   UNL     1      -6.001  -1.408  -1.552  0.00  0.00    +0.174 HD
ATOM      6  H   UNL     1      -5.128   0.370  -4.428  0.00  0.00    +0.151 HD
ENDROOT
BRANCH   1   9
ATOM      7  C   UNL     1      -3.549  -0.653  -1.275  0.00  0.00    +0.229 C 
ATOM      8  O   UNL     1      -3.955  -1.284  -0.323  0.00  0.00    -0.274 OA
ATOM      9  N   UNL     1      -4.362  -0.418  -2.324  0.00  0.00    -0.233 N 
ATOM     10  H   UNL     1      -4.037   0.087  -3.086  0.00  0.00    +0.173 HD
BRANCH   7  11
ATOM     11  C   UNL     1      -2.135  -0.131  -1.286  0.00  0.00    +0.097 C 
BRANCH  11  12
ATOM     12  C   UNL     1      -1.433  -0.534   0.013  0.00  0.00    +0.012 C 
BRANCH  12  14
ATOM     13  C   UNL     1      -0.019   1.526   0.010  0.00  0.00    +0.007 C 
ATOM     14  C   UNL     1       0.002  -0.004   0.002  0.00  0.00    -0.017 C 
ATOM     15  C   UNL     1       0.742  -0.511   1.242  0.00  0.00    +0.007 C 
ENDBRANCH  12  14
ENDBRANCH  11  12
ENDBRANCH   7  11
ENDBRANCH   1   9
BRANCH   4  16
ATOM     16  C   UNL     1      -6.922   0.290  -5.561  0.00  0.00    +0.141 C 
BRANCH  16  17
ATOM     17  C   UNL     1      -6.181   1.089  -6.602  0.00  0.00    -0.030 A 
ATOM     18  C   UNL     1      -6.207   2.470  -6.561  0.00  0.00    +0.005 A 
ATOM     19  C   UNL     1      -5.527   3.203  -7.516  0.00  0.00    +0.002 A 
ATOM     20  C   UNL     1      -4.820   2.554  -8.512  0.00  0.00    -0.064 A 
ATOM     21  C   UNL     1      -4.793   1.173  -8.552  0.00  0.00    +0.002 A 
ATOM     22  C   UNL     1      -5.470   0.440  -7.595  0.00  0.00    +0.005 A 
BRANCH  20  23
ATOM     23  C   UNL     1      -4.080   3.353  -9.553  0.00  0.00    -0.043 C 
BRANCH  23  24
ATOM     24  N   UNL     1      -2.710   3.611  -9.090  0.00  0.00    +0.382 N 
ATOM     25  C   UNL     1      -2.752   4.461  -7.894  0.00  0.00    -0.078 C 
ATOM     26  C   UNL     1      -1.333   4.667  -7.360  0.00  0.00    -0.019 C 
ATOM     27  C   UNL     1      -0.480   5.342  -8.438  0.00  0.00    -0.004 C 
ATOM     28  C   UNL     1      -0.504   4.483  -9.706  0.00  0.00    -0.019 C 
ATOM     29  C   UNL     1      -1.954   4.284 -10.153  0.00  0.00    -0.078 C 
ATOM     30  H   UNL     1      -2.262   2.736  -8.862  0.00  0.00    -0.081 HD
ENDBRANCH  23  24
ENDBRANCH  20  23
ENDBRANCH  16  17
ENDBRANCH   4  16
TORSDOF 8
