REMARK  Name = ZINC13690528
REMARK  14 active torsions:
REMARK  status: ('A' for Active; 'I' for Inactive)
REMARK    1  A    between atoms: C_1  and  C_2
REMARK    2  A    between atoms: C_3  and  C_9
REMARK    3  A    between atoms: C_4  and  C_8
REMARK    4  A    between atoms: C_9  and  C_11
REMARK    5  A    between atoms: N_15  and  C_28
REMARK    6  A    between atoms: C_16  and  C_18
REMARK    7  A    between atoms: C_21  and  C_24
REMARK    8  A    between atoms: C_24  and  O_26
REMARK    9  A    between atoms: O_26  and  C_27
REMARK   10  A    between atoms: C_28  and  C_29
REMARK   11  A    between atoms: C_29  and  C_30
REMARK   12  A    between atoms: C_30  and  N_31
REMARK   13  A    between atoms: N_31  and  C_32
REMARK   14  A    between atoms: N_31  and  C_33
REMARK                            x       y       z     vdW  Elec       q    Type
REMARK                         _______ _______ _______ _____ _____    ______ ____
ROOT
ATOM      1  C   UNL     1       1.683  -3.329   4.754  0.00  0.00    +0.076 C 
ATOM      2  C   UNL     1       2.860  -2.916   4.231  0.00  0.00    +0.249 C 
ATOM      3  C   UNL     1       2.637  -2.431   2.853  0.00  0.00    +0.288 C 
ATOM      4  O   UNL     1       3.501  -1.998   2.117  0.00  0.00    -0.266 OA
ATOM      5  N   UNL     1       1.334  -2.538   2.535  0.00  0.00    -0.284 N 
ATOM      6  C   UNL     1       0.633  -3.109   3.691  0.00  0.00    +0.145 C 
ATOM      7  O   UNL     1       4.054  -2.945   4.868  0.00  0.00    -0.282 OA
ENDROOT
BRANCH   6   8
ATOM      8  C   UNL     1      -0.415  -2.147   4.188  0.00  0.00    -0.022 A 
ATOM      9  C   UNL     1      -0.083  -0.822   4.412  0.00  0.00    +0.006 A 
ATOM     10  C   UNL     1      -1.039   0.065   4.862  0.00  0.00    +0.015 A 
ATOM     11  C   UNL     1      -2.341  -0.379   5.104  0.00  0.00    +0.059 A 
ATOM     12  C   UNL     1      -2.667  -1.719   4.882  0.00  0.00    +0.015 A 
ATOM     13  C   UNL     1      -1.703  -2.594   4.426  0.00  0.00    +0.006 A 
BRANCH  11  14
ATOM     14  C   UNL     1      -3.367   0.564   5.593  0.00  0.00    +0.339 C 
ATOM     15  O   UNL     1      -4.499   0.174   5.803  0.00  0.00    -0.245 OA
BRANCH  14  16
ATOM     16  O   UNL     1      -3.049   1.855   5.806  0.00  0.00    -0.464 OA
ATOM     17  C   UNL     1      -4.108   2.724   6.286  0.00  0.00    +0.280 C 
ENDBRANCH  14  16
ENDBRANCH  11  14
ENDBRANCH   6   8
BRANCH   1  18
ATOM     18  C   UNL     1       1.468  -3.884   6.095  0.00  0.00    +0.199 C 
ATOM     19  O   UNL     1       0.999  -3.186   6.974  0.00  0.00    -0.287 OA
BRANCH  18  22
ATOM     20  C   UNL     1       1.254  -5.317   8.892  0.00  0.00    +0.066 C 
ATOM     21  C   UNL     1       1.731  -5.927   7.599  0.00  0.00    +0.044 A 
ATOM     22  C   UNL     1       1.820  -5.288   6.377  0.00  0.00    +0.065 A 
ATOM     23  C   UNL     1       2.318  -6.231   5.450  0.00  0.00    +0.071 A 
ATOM     24  N   UNL     1       2.507  -7.357   6.080  0.00  0.00    -0.178 NA
ATOM     25  N   UNL     1       2.144  -7.192   7.422  0.00  0.00    -0.281 N 
ATOM     26  H   UNL     1       2.152  -7.892   8.270  0.00  0.00    +0.189 HD
ATOM     27  C   UNL     1       2.584  -5.980   3.988  0.00  0.00    +0.068 C 
ENDBRANCH  18  22
ENDBRANCH   1  18
BRANCH   5  28
ATOM     28  C   UNL     1       0.724  -2.156   1.258  0.00  0.00    +0.107 C 
BRANCH  28  29
ATOM     29  C   UNL     1       0.272  -0.696   1.325  0.00  0.00    +0.000 C 
BRANCH  29  30
ATOM     30  C   UNL     1      -0.364  -0.298  -0.008  0.00  0.00    -0.078 C 
BRANCH  30  31
ATOM     31  N   UNL     1      -0.798   1.104   0.055  0.00  0.00    +0.376 N 
ATOM     32  C   UNL     1       0.354   2.006   0.176  0.00  0.00    -0.097 C 
ATOM     33  C   UNL     1      -1.622   1.453  -1.110  0.00  0.00    -0.097 C 
ATOM     34  H   UNL     1      -1.418   1.225   0.956  0.00  0.00    -0.083 HD
ENDBRANCH  30  31
ENDBRANCH  29  30
ENDBRANCH  28  29
ENDBRANCH   5  28
TORSDOF 9
