REMARK  Name = ZINC36258501
REMARK  9 active torsions:
REMARK  status: ('A' for Active; 'I' for Inactive)
REMARK    1  A    between atoms: C_1  and  C_2
REMARK    2  A    between atoms: C_2  and  O_3
REMARK    3  A    between atoms: O_3  and  C_4
REMARK    4  A    between atoms: C_4  and  C_6
REMARK    5  A    between atoms: C_7  and  N_21
REMARK    6  A    between atoms: C_10  and  C_11
REMARK    7  A    between atoms: C_14  and  O_18
REMARK    8  A    between atoms: C_15  and  O_17
REMARK    9  A    between atoms: N_21  and  C_22
REMARK                            x       y       z     vdW  Elec       q    Type
REMARK                         _______ _______ _______ _____ _____    ______ ____
ROOT
ATOM      1  C   UNL     1      -2.768  -2.162   0.145  0.00  0.00    +0.134 C 
ATOM      2  C   UNL     1      -2.704  -3.559   0.185  0.00  0.00    +0.088 C 
ATOM      3  S   UNL     1      -4.364  -4.064   0.585  0.00  0.00    -0.069 S 
ATOM      4  C   UNL     1      -5.147  -2.467   0.700  0.00  0.00    +0.062 C 
ATOM      5  C   UNL     1      -6.443  -2.177   0.984  0.00  0.00    +0.027 C 
ATOM      6  C   UNL     1      -4.038  -1.540   0.416  0.00  0.00    +0.209 C 
ATOM      7  O   UNL     1      -4.187  -0.329   0.407  0.00  0.00    -0.286 OA
ENDROOT
BRANCH   5   8
ATOM      8  C   UNL     1      -6.932  -0.799   0.853  0.00  0.00    -0.020 A 
ATOM      9  C   UNL     1      -6.498   0.002  -0.211  0.00  0.00    +0.012 A 
ATOM     10  C   UNL     1      -6.960   1.294  -0.333  0.00  0.00    +0.050 A 
ATOM     11  C   UNL     1      -7.855   1.806   0.598  0.00  0.00    +0.158 A 
ATOM     12  C   UNL     1      -8.292   1.015   1.660  0.00  0.00    +0.159 A 
ATOM     13  C   UNL     1      -7.839  -0.283   1.787  0.00  0.00    +0.057 A 
BRANCH  12  14
ATOM     14  O   UNL     1      -9.168   1.521   2.568  0.00  0.00    -0.503 OA
ATOM     15  H   UNL     1     -10.097   1.380   2.340  0.00  0.00    +0.292 HD
ENDBRANCH  12  14
BRANCH  11  16
ATOM     16  O   UNL     1      -8.306   3.081   0.473  0.00  0.00    -0.503 OA
ATOM     17  H   UNL     1      -9.112   3.163  -0.055  0.00  0.00    +0.292 HD
ENDBRANCH  11  16
ENDBRANCH   5   8
BRANCH   1  18
ATOM     18  C   UNL     1      -1.584  -1.361  -0.157  0.00  0.00    +0.345 C 
ATOM     19  O   UNL     1      -0.520  -1.908  -0.382  0.00  0.00    -0.245 OA
BRANCH  18  20
ATOM     20  O   UNL     1      -1.669  -0.015  -0.185  0.00  0.00    -0.461 OA
BRANCH  20  22
ATOM     21  C   UNL     1      -0.764   2.207  -0.473  0.00  0.00    +0.048 C 
ATOM     22  C   UNL     1      -0.472   0.705  -0.487  0.00  0.00    +0.229 C 
ENDBRANCH  20  22
ENDBRANCH  18  20
ENDBRANCH   1  18
BRANCH   2  23
ATOM     23  N   UNL     1      -1.614  -4.356  -0.032  0.00  0.00    -0.308 N 
ATOM     24  H   UNL     1      -0.739  -3.957  -0.160  0.00  0.00    +0.153 HD
BRANCH  23  25
ATOM     25  C   UNL     1      -1.760  -5.746  -0.071  0.00  0.00    +0.032 A 
ATOM     26  C   UNL     1      -0.763  -6.566   0.441  0.00  0.00    +0.024 A 
ATOM     27  C   UNL     1      -0.910  -7.938   0.402  0.00  0.00    +0.022 A 
ATOM     28  C   UNL     1      -2.051  -8.497  -0.147  0.00  0.00    +0.041 A 
ATOM     29  C   UNL     1      -3.047  -7.683  -0.658  0.00  0.00    +0.022 A 
ATOM     30  C   UNL     1      -2.907  -6.310  -0.616  0.00  0.00    +0.024 A 
ATOM     31 CL   UNL     1      -2.233 -10.223  -0.197  0.00  0.00    -0.084 Cl
ENDBRANCH  23  25
ENDBRANCH   2  23
TORSDOF 8
