REMARK  Name = ZINC16901634
REMARK  6 active torsions:
REMARK  status: ('A' for Active; 'I' for Inactive)
REMARK    1  A    between atoms: C_1  and  C_2
REMARK    2  A    between atoms: C_5  and  N_9
REMARK    3  A    between atoms: C_6  and  C_8
REMARK    4  A    between atoms: N_9  and  C_10
REMARK    5  A    between atoms: N_15  and  C_18
REMARK    6  A    between atoms: C_21  and  O_24
REMARK                            x       y       z     vdW  Elec       q    Type
REMARK                         _______ _______ _______ _____ _____    ______ ____
ROOT
ATOM      1  C   UNL     1       0.002  -4.910  -1.446  0.00  0.00    +0.166 C 
ATOM      2  C   UNL     1      -0.420  -6.308  -0.951  0.00  0.00    +0.128 C 
ATOM      3  C   UNL     1       0.775  -7.176  -1.279  0.00  0.00    +0.228 C 
ATOM      4  O   UNL     1       0.863  -8.364  -1.053  0.00  0.00    -0.275 OA
ATOM      5  N   UNL     1       1.720  -6.425  -1.858  0.00  0.00    -0.209 N 
ATOM      6  C   UNL     1       1.391  -5.132  -2.004  0.00  0.00    +0.247 C 
ATOM      7  O   UNL     1       2.092  -4.277  -2.503  0.00  0.00    -0.273 OA
ENDROOT
BRANCH   5   8
ATOM      8  C   UNL     1       2.953  -6.946  -2.279  0.00  0.00    +0.044 A 
ATOM      9  C   UNL     1       3.002  -7.843  -3.338  0.00  0.00    +0.027 A 
ATOM     10  C   UNL     1       4.215  -8.355  -3.752  0.00  0.00    +0.047 A 
ATOM     11  C   UNL     1       5.385  -7.974  -3.111  0.00  0.00    +0.117 A 
ATOM     12  C   UNL     1       5.336  -7.079  -2.053  0.00  0.00    +0.047 A 
ATOM     13  C   UNL     1       4.124  -6.561  -1.641  0.00  0.00    +0.027 A 
BRANCH  11  14
ATOM     14  O   UNL     1       6.579  -8.479  -3.519  0.00  0.00    -0.507 OA
ATOM     15  H   UNL     1       7.016  -7.953  -4.203  0.00  0.00    +0.292 HD
ENDBRANCH  11  14
ENDBRANCH   5   8
BRANCH   1  16
ATOM     16  N   UNL     1       0.040  -3.958  -0.333  0.00  0.00    -0.332 N 
ATOM     17  H   UNL     1       0.146  -4.279   0.576  0.00  0.00    +0.147 HD
BRANCH  16  22
ATOM     18  C   UNL     1      -0.437   1.602  -1.339  0.00  0.00    +0.044 C 
ATOM     19  C   UNL     1      -0.310   0.125  -1.071  0.00  0.00    -0.050 A 
ATOM     20  C   UNL     1      -0.346  -0.772  -2.123  0.00  0.00    +0.005 A 
ATOM     21  C   UNL     1      -0.230  -2.127  -1.882  0.00  0.00    +0.023 A 
ATOM     22  C   UNL     1      -0.077  -2.588  -0.581  0.00  0.00    +0.031 A 
ATOM     23  C   UNL     1      -0.042  -1.685   0.474  0.00  0.00    -0.029 A 
ATOM     24  C   UNL     1      -0.153  -0.331   0.225  0.00  0.00    +0.008 A 
ATOM     25  C   UNL     1       0.122  -2.181   1.887  0.00  0.00    +0.045 C 
ENDBRANCH  16  22
ENDBRANCH   1  16
TORSDOF 4
