REMARK  Name = ZINC36007680
REMARK  10 active torsions:
REMARK  status: ('A' for Active; 'I' for Inactive)
REMARK    1  A    between atoms: C_1  and  C_2
REMARK    2  A    between atoms: C_7  and  C_8
REMARK    3  A    between atoms: C_7  and  C_9
REMARK    4  A    between atoms: C_11  and  N_13
REMARK    5  A    between atoms: C_14  and  C_16
REMARK    6  A    between atoms: C_16  and  O_17
REMARK    7  A    between atoms: O_17  and  C_18
REMARK    8  A    between atoms: C_18  and  C_20
REMARK    9  A    between atoms: C_23  and  N_27
REMARK   10  A    between atoms: C_25  and  N_26
REMARK                            x       y       z     vdW  Elec       q    Type
REMARK                         _______ _______ _______ _____ _____    ______ ____
ROOT
ATOM      1  C   UNL     1      -0.145  -0.002  -5.450  0.00  0.00    +0.328 C 
ENDROOT
BRANCH   1   3
ATOM      2  N   UNL     1       1.412  -1.256  -3.993  0.00  0.00    -0.309 N 
ATOM      3  C   UNL     1       0.999  -0.065  -4.471  0.00  0.00    +0.251 C 
ATOM      4  O   UNL     1       1.547   0.956  -4.112  0.00  0.00    -0.272 OA
ATOM      5  H   UNL     1       0.974  -2.072  -4.280  0.00  0.00    +0.149 HD
BRANCH   2  15
ATOM      6  C   UNL     1       1.711   0.243  -1.101  0.00  0.00    +0.013 C 
ATOM      7  C   UNL     1       1.996  -1.182  -1.580  0.00  0.00    -0.008 C 
ATOM      8  C   UNL     1       0.807  -2.186  -1.480  0.00  0.00    +0.009 C 
ATOM      9  C   UNL     1       1.470  -3.582  -1.517  0.00  0.00    +0.005 C 
ATOM     10  C   UNL     1       2.997  -3.290  -1.636  0.00  0.00    -0.003 C 
ATOM     11  C   UNL     1       3.106  -1.968  -0.797  0.00  0.00    -0.025 C 
ATOM     12  C   UNL     1       4.481  -1.311  -0.937  0.00  0.00    +0.012 C 
ATOM     13  C   UNL     1       2.729  -2.186   0.670  0.00  0.00    +0.012 C 
ATOM     14  C   UNL     1       3.179  -2.750  -3.087  0.00  0.00    +0.027 C 
ATOM     15  C   UNL     1       2.524  -1.317  -3.041  0.00  0.00    +0.080 C 
ENDBRANCH   2  15
ENDBRANCH   1   3
BRANCH   1  16
ATOM     16  O   UNL     1      -0.394   1.360  -5.805  0.00  0.00    -0.452 OA
BRANCH  16  17
ATOM     17  C   UNL     1      -1.393   1.592  -6.679  0.00  0.00    +0.341 C 
ATOM     18  O   UNL     1      -2.035   0.663  -7.128  0.00  0.00    -0.245 OA
BRANCH  17  19
ATOM     19  C   UNL     1      -1.706   2.971  -7.091  0.00  0.00    +0.080 A 
ATOM     20  C   UNL     1      -0.892   4.030  -6.678  0.00  0.00    +0.019 A 
ATOM     21  C   UNL     1      -1.191   5.317  -7.067  0.00  0.00    +0.033 A 
ATOM     22  C   UNL     1      -2.295   5.570  -7.866  0.00  0.00    +0.128 A 
ATOM     23  C   UNL     1      -3.107   4.536  -8.282  0.00  0.00    +0.056 A 
ATOM     24  C   UNL     1      -2.820   3.229  -7.905  0.00  0.00    +0.041 A 
BRANCH  24  25
ATOM     25  N   UNL     1      -3.633   2.186  -8.328  0.00  0.00    -0.357 N 
ATOM     26  H   UNL     1      -3.662   1.359  -7.822  0.00  0.00    +0.142 HD
ATOM     27  H   UNL     1      -4.171   2.284  -9.129  0.00  0.00    +0.142 HD
ENDBRANCH  24  25
BRANCH  22  28
ATOM     28  N   UNL     1      -2.604   6.958  -8.276  0.00  0.00    +0.056 N 
ATOM     29  O   UNL     1      -1.894   7.867  -7.913  0.00  0.00    -0.126 OA
ATOM     30  O   UNL     1      -3.566   7.183  -8.973  0.00  0.00    -0.126 OA
ENDBRANCH  22  28
ENDBRANCH  17  19
ENDBRANCH  16  17
ENDBRANCH   1  16
TORSDOF 7
