REMARK  Name = ZINC04366785
REMARK  10 active torsions:
REMARK  status: ('A' for Active; 'I' for Inactive)
REMARK    1  A    between atoms: C_4  and  C_7
REMARK    2  A    between atoms: C_7  and  C_8
REMARK    3  A    between atoms: C_7  and  C_14
REMARK    4  A    between atoms: C_7  and  O_20
REMARK    5  A    between atoms: O_20  and  C_21
REMARK    6  A    between atoms: C_21  and  C_22
REMARK    7  A    between atoms: C_24  and  O_42
REMARK    8  A    between atoms: C_26  and  O_41
REMARK    9  A    between atoms: C_28  and  N_31
REMARK   10  A    between atoms: C_39  and  N_40
REMARK                            x       y       z     vdW  Elec       q    Type
REMARK                         _______ _______ _______ _____ _____    ______ ____
ROOT
ATOM      1  C   UNL     1       1.946   3.550  -3.311  0.00  0.00    +0.196 C 
ENDROOT
BRANCH   1   2
ATOM      2  C   UNL     1       0.670   4.027  -2.613  0.00  0.00    +0.178 C 
ATOM      3  C   UNL     1       0.210   2.999  -1.548  0.00  0.00    +0.178 C 
ATOM      4  C   UNL     1      -0.615   3.882  -0.580  0.00  0.00    +0.195 C 
ATOM      5  C   UNL     1      -0.113   5.313  -0.854  0.00  0.00    +0.253 C 
ATOM      6  O   UNL     1       0.928   5.220  -1.841  0.00  0.00    -0.346 OA
BRANCH   5   7
ATOM      7  N   UNL     1      -1.211   6.138  -1.364  0.00  0.00    -0.286 N 
ATOM      8  C   UNL     1      -1.492   6.385  -2.675  0.00  0.00    +0.203 A 
ATOM      9  N   UNL     1      -2.538   7.154  -2.767  0.00  0.00    -0.231 NA
ATOM     10  C   UNL     1      -2.987   7.457  -1.526  0.00  0.00    +0.147 A 
ATOM     11  C   UNL     1      -2.141   6.808  -0.610  0.00  0.00    +0.167 A 
ATOM     12  N   UNL     1      -2.370   6.946   0.692  0.00  0.00    -0.216 NA
ATOM     13  C   UNL     1      -3.375   7.680   1.121  0.00  0.00    +0.225 A 
ATOM     14  N   UNL     1      -4.197   8.308   0.300  0.00  0.00    -0.219 NA
ATOM     15  C   UNL     1      -4.046   8.228  -1.018  0.00  0.00    +0.147 A 
BRANCH  15  16
ATOM     16  N   UNL     1      -4.912   8.890  -1.871  0.00  0.00    -0.341 N 
ATOM     17  H   UNL     1      -4.397   9.538  -2.432  0.00  0.00    +0.144 HD
ATOM     18  H   UNL     1      -5.639   9.419  -1.509  0.00  0.00    +0.144 HD
ENDBRANCH  15  16
ENDBRANCH   5   7
BRANCH   4  19
ATOM     19  O   UNL     1      -2.010   3.777  -0.873  0.00  0.00    -0.385 OA
ATOM     20  H   UNL     1      -2.379   2.897  -0.719  0.00  0.00    +0.210 HD
ENDBRANCH   4  19
BRANCH   3  21
ATOM     21  O   UNL     1       1.333   2.421  -0.879  0.00  0.00    -0.386 OA
ATOM     22  H   UNL     1       1.095   1.839  -0.144  0.00  0.00    +0.210 HD
ENDBRANCH   3  21
ENDBRANCH   1   2
BRANCH   1  23
ATOM     23  O   UNL     1       2.337   4.510  -4.295  0.00  0.00    -0.357 OA
BRANCH  23  24
ATOM     24  C   UNL     1       3.524   4.159  -5.008  0.00  0.00    +0.144 C 
BRANCH  24  28
ATOM     25  C   UNL     1       6.774   3.772  -2.263  0.00  0.00    +0.000 A 
ATOM     26  C   UNL     1       6.356   5.026  -2.666  0.00  0.00    +0.000 A 
ATOM     27  C   UNL     1       5.304   5.151  -3.555  0.00  0.00    +0.007 A 
ATOM     28  C   UNL     1       4.671   4.022  -4.040  0.00  0.00    -0.007 A 
ATOM     29  C   UNL     1       5.086   2.768  -3.632  0.00  0.00    +0.007 A 
ATOM     30  C   UNL     1       6.140   2.643  -2.747  0.00  0.00    +0.000 A 
ENDBRANCH  24  28
BRANCH  24  31
ATOM     31  C   UNL     1       3.312   2.849  -5.723  0.00  0.00    -0.007 A 
ATOM     32  C   UNL     1       4.397   2.146  -6.214  0.00  0.00    +0.007 A 
ATOM     33  C   UNL     1       4.202   0.942  -6.866  0.00  0.00    +0.000 A 
ATOM     34  C   UNL     1       2.923   0.447  -7.036  0.00  0.00    +0.000 A 
ATOM     35  C   UNL     1       1.838   1.153  -6.550  0.00  0.00    +0.000 A 
ATOM     36  C   UNL     1       2.033   2.354  -5.894  0.00  0.00    +0.007 A 
ENDBRANCH  24  31
BRANCH  24  37
ATOM     37  C   UNL     1       3.842   5.235  -6.015  0.00  0.00    -0.007 A 
ATOM     38  C   UNL     1       5.155   5.486  -6.367  0.00  0.00    +0.007 A 
ATOM     39  C   UNL     1       5.446   6.470  -7.293  0.00  0.00    +0.000 A 
ATOM     40  C   UNL     1       4.425   7.209  -7.860  0.00  0.00    +0.000 A 
ATOM     41  C   UNL     1       3.113   6.961  -7.504  0.00  0.00    +0.000 A 
ATOM     42  C   UNL     1       2.821   5.974  -6.581  0.00  0.00    +0.007 A 
ENDBRANCH  24  37
ENDBRANCH  23  24
ENDBRANCH   1  23
TORSDOF 10
