REMARK  Name = ZINC61594920
REMARK  9 active torsions:
REMARK  status: ('A' for Active; 'I' for Inactive)
REMARK    1  A    between atoms: C_1  and  C_2
REMARK    2  A    between atoms: C_2  and  C_3
REMARK    3  A    between atoms: C_3  and  N_4
REMARK    4  A    between atoms: C_10  and  S_11
REMARK    5  A    between atoms: S_11  and  C_12
REMARK    6  A    between atoms: C_12  and  C_14
REMARK    7  A    between atoms: C_12  and  C_21
REMARK    8  A    between atoms: C_21  and  C_23
REMARK    9  A    between atoms: C_21  and  N_24
REMARK                            x       y       z     vdW  Elec       q    Type
REMARK                         _______ _______ _______ _____ _____    ______ ____
ROOT
ATOM      1  C   UNL     1      -1.306  -3.727   3.876  0.00  0.00    +0.071 C 
ENDROOT
BRANCH   1   2
ATOM      2  C   UNL     1      -1.542  -3.383   5.324  0.00  0.00    -0.022 A 
ATOM      3  C   UNL     1      -1.257  -2.113   5.788  0.00  0.00    +0.006 A 
ATOM      4  C   UNL     1      -1.474  -1.797   7.116  0.00  0.00    +0.000 A 
ATOM      5  C   UNL     1      -1.975  -2.752   7.981  0.00  0.00    +0.001 A 
ATOM      6  C   UNL     1      -2.260  -4.023   7.518  0.00  0.00    +0.015 A 
ATOM      7  C   UNL     1      -2.049  -4.337   6.188  0.00  0.00    +0.022 A 
ATOM      8 BR   UNL     1      -2.445  -6.074   5.552  0.00  0.00    -0.050 Br
ENDBRANCH   1   2
BRANCH   1   9
ATOM      9  C   UNL     1       0.069  -4.382   3.724  0.00  0.00    -0.060 C 
ATOM     10  C   UNL     1       0.320  -4.706   2.250  0.00  0.00    -0.013 C 
BRANCH   9  11
ATOM     11  N   UNL     1       0.109  -5.622   4.511  0.00  0.00    +0.381 N 
ATOM     12  H   UNL     1      -0.603  -6.255   4.180  0.00  0.00    -0.090 HD
ATOM     13  H   UNL     1       1.016  -6.054   4.412  0.00  0.00    -0.090 HD
ATOM     14  H   UNL     1      -0.057  -5.409   5.484  0.00  0.00    -0.090 HD
ENDBRANCH   9  11
ENDBRANCH   1   9
BRANCH   1  15
ATOM     15  S   UNL     1      -1.367  -2.214   2.877  0.00  0.00    -0.080 S 
BRANCH  15  22
ATOM     16  N   UNL     1      -3.571  -0.540   2.460  0.00  0.00    -0.271 N 
ATOM     17  C   UNL     1      -4.891  -0.509   2.728  0.00  0.00    +0.345 A 
ATOM     18  O   UNL     1      -5.668   0.376   2.414  0.00  0.00    -0.245 OA
ATOM     19  N   UNL     1      -5.196  -1.634   3.407  0.00  0.00    -0.226 N 
ATOM     20  H   UNL     1      -6.074  -1.887   3.735  0.00  0.00    +0.194 HD
ATOM     21  N   UNL     1      -4.012  -2.370   3.553  0.00  0.00    -0.145 NA
ATOM     22  C   UNL     1      -3.052  -1.706   2.976  0.00  0.00    +0.193 A 
BRANCH  16  23
ATOM     23  C   UNL     1      -2.817   0.487   1.737  0.00  0.00    +0.129 C 
BRANCH  23  25
ATOM     24  C   UNL     1      -2.044   1.244  -0.515  0.00  0.00    +0.005 C 
ATOM     25  C   UNL     1      -2.831   0.171   0.240  0.00  0.00    +0.018 C 
ENDBRANCH  23  25
ENDBRANCH  16  23
ENDBRANCH  15  22
ENDBRANCH   1  15
TORSDOF 7
