REMARK  Name = ZINC66214442
REMARK  8 active torsions:
REMARK  status: ('A' for Active; 'I' for Inactive)
REMARK    1  A    between atoms: C_1  and  C_2
REMARK    2  A    between atoms: N_4  and  C_5
REMARK    3  A    between atoms: C_9  and  N_11
REMARK    4  A    between atoms: C_12  and  C_14
REMARK    5  A    between atoms: C_14  and  N_15
REMARK    6  A    between atoms: N_15  and  C_16
REMARK    7  A    between atoms: C_16  and  C_17
REMARK    8  A    between atoms: C_17  and  C_18
REMARK                            x       y       z     vdW  Elec       q    Type
REMARK                         _______ _______ _______ _____ _____    ______ ____
ROOT
ATOM      1  N   UNL     1      -0.016  -4.989  -3.397  0.00  0.00    -0.287 N 
ATOM      2  C   UNL     1      -0.173  -6.327  -3.366  0.00  0.00    +0.200 C 
ATOM      3  O   UNL     1      -0.256  -6.903  -2.302  0.00  0.00    -0.278 OA
ATOM      4  H   UNL     1       0.118  -4.536  -4.245  0.00  0.00    +0.155 HD
ENDROOT
BRANCH   1   9
ATOM      5  C   UNL     1      -0.628  -2.254  -1.011  0.00  0.00    +0.035 A 
ATOM      6  C   UNL     1      -0.102  -2.801   0.153  0.00  0.00    +0.023 A 
ATOM      7  C   UNL     1       0.449  -4.068   0.134  0.00  0.00    +0.004 A 
ATOM      8  C   UNL     1       0.478  -4.795  -1.042  0.00  0.00    +0.023 A 
ATOM      9  C   UNL     1      -0.046  -4.253  -2.208  0.00  0.00    +0.035 A 
ATOM     10  C   UNL     1      -0.605  -2.982  -2.191  0.00  0.00    +0.046 A 
BRANCH   5  14
ATOM     11  C   UNL     1      -2.920   0.661  -1.663  0.00  0.00    +0.109 C 
ATOM     12  C   UNL     1      -2.255  -0.688  -1.761  0.00  0.00    +0.214 C 
ATOM     13  O   UNL     1      -2.682  -1.520  -2.533  0.00  0.00    -0.276 OA
ATOM     14  N   UNL     1      -1.185  -0.971  -0.991  0.00  0.00    -0.286 N 
ATOM     15  H   UNL     1      -0.802  -0.284  -0.422  0.00  0.00    +0.155 HD
ENDBRANCH   5  14
ENDBRANCH   1   9
BRANCH   2  16
ATOM     16  C   UNL     1      -0.244  -7.108  -4.653  0.00  0.00    +0.015 C 
BRANCH  16  17
ATOM     17  N   UNL     1      -0.416  -8.535  -4.351  0.00  0.00    +0.385 N 
ATOM     18  H   UNL     1       0.368  -8.859  -3.804  0.00  0.00    -0.085 HD
ATOM     19  H   UNL     1      -1.269  -8.668  -3.829  0.00  0.00    -0.085 HD
BRANCH  17  20
ATOM     20  C   UNL     1      -0.486  -9.296  -5.606  0.00  0.00    -0.078 C 
BRANCH  20  21
ATOM     21  C   UNL     1      -0.664 -10.783  -5.291  0.00  0.00    +0.011 C 
BRANCH  21  22
ATOM     22  C   UNL     1      -0.736 -11.563  -6.578  0.00  0.00    -0.075 C 
ATOM     23  C   UNL     1       0.355 -12.099  -7.025  0.00  0.00    -0.028 C 
ATOM     24  C   UNL     1       0.442 -12.894  -8.295  0.00  0.00    +0.027 C 
ATOM     25  C   UNL     1      -0.954 -13.334  -8.738  0.00  0.00    +0.004 C 
ATOM     26  C   UNL     1      -1.879 -12.110  -8.716  0.00  0.00    +0.005 C 
ATOM     27  C   UNL     1      -2.068 -11.677  -7.259  0.00  0.00    +0.030 C 
ENDBRANCH  21  22
ENDBRANCH  20  21
ENDBRANCH  17  20
ENDBRANCH  16  17
ENDBRANCH   2  16
TORSDOF 7
