REMARK  Name = ZINC01154259
REMARK  5 active torsions:
REMARK  status: ('A' for Active; 'I' for Inactive)
REMARK    1  A    between atoms: C_3  and  C_6
REMARK    2  A    between atoms: C_6  and  C_8
REMARK    3  A    between atoms: C_10  and  C_22
REMARK    4  A    between atoms: C_16  and  C_17
REMARK    5  A    between atoms: C_16  and  O_21
REMARK                            x       y       z     vdW  Elec       q    Type
REMARK                         _______ _______ _______ _____ _____    ______ ____
ROOT
ATOM      1  C   UNL     1       4.752   1.186  -0.262  0.00  0.00    +0.145 C 
ATOM      2  C   UNL     1       6.050   1.209   0.552  0.00  0.00    +0.120 C 
ATOM      3  N   UNL     1       7.022   2.075  -0.116  0.00  0.00    -0.292 N 
ATOM      4  C   UNL     1       7.008   2.243  -1.447  0.00  0.00    +0.302 C 
ATOM      5  O   UNL     1       7.844   2.966  -1.953  0.00  0.00    -0.253 OA
ATOM      6  N   UNL     1       6.107   1.645  -2.241  0.00  0.00    -0.264 N 
ATOM      7  C   UNL     1       5.079   0.751  -1.695  0.00  0.00    +0.243 C 
ATOM      8  H   UNL     1       7.689   2.538   0.414  0.00  0.00    +0.151 HD
ATOM      9  H   UNL     1       6.136   1.806  -3.197  0.00  0.00    +0.153 HD
ENDROOT
BRANCH   2  10
ATOM     10  C   UNL     1       5.768   1.739   1.935  0.00  0.00    -0.023 A 
ATOM     11  C   UNL     1       5.414   0.868   2.948  0.00  0.00    +0.009 A 
ATOM     12  C   UNL     1       5.154   1.349   4.218  0.00  0.00    +0.050 A 
ATOM     13  C   UNL     1       5.248   2.707   4.477  0.00  0.00    +0.166 A 
ATOM     14  C   UNL     1       5.604   3.584   3.456  0.00  0.00    +0.167 A 
ATOM     15  C   UNL     1       5.868   3.094   2.188  0.00  0.00    +0.055 A 
ATOM     16  O   UNL     1       5.627   4.853   3.959  0.00  0.00    -0.453 OA
ATOM     17  C   UNL     1       4.885   4.791   5.192  0.00  0.00    +0.466 C 
ATOM     18  O   UNL     1       5.047   3.426   5.620  0.00  0.00    -0.453 OA
ENDBRANCH   2  10
BRANCH   7  19
ATOM     19  C   UNL     1       5.604  -0.686  -1.687  0.00  0.00    +0.436 C 
ATOM     20  F   UNL     1       4.628  -1.535  -1.153  0.00  0.00    -0.166 F 
ATOM     21  F   UNL     1       5.901  -1.082  -2.995  0.00  0.00    -0.166 F 
ATOM     22  F   UNL     1       6.761  -0.755  -0.904  0.00  0.00    -0.166 F 
ENDBRANCH   7  19
BRANCH   1  23
ATOM     23  C   UNL     1       4.141   2.563  -0.278  0.00  0.00    +0.179 C 
ATOM     24  O   UNL     1       4.855   3.545  -0.298  0.00  0.00    -0.291 OA
BRANCH  23  27
ATOM     25  C   UNL     1       0.617   3.703  -0.270  0.00  0.00    +0.008 A 
ATOM     26  C   UNL     1       1.977   3.879  -0.282  0.00  0.00    +0.019 A 
ATOM     27  C   UNL     1       2.736   2.712  -0.271  0.00  0.00    +0.055 A 
ATOM     28  S   UNL     1       1.473   1.455  -0.243  0.00  0.00    -0.094 S 
ATOM     29  C   UNL     1       0.114   2.442  -0.248  0.00  0.00    +0.046 A 
ENDBRANCH  23  27
ENDBRANCH   1  23
BRANCH   7  30
ATOM     30  O   UNL     1       3.899   0.825  -2.497  0.00  0.00    -0.364 OA
ATOM     31  H   UNL     1       4.032   0.564  -3.419  0.00  0.00    +0.212 HD
ENDBRANCH   7  30
TORSDOF 5
