REMARK  Name = ZINC24022549
REMARK  14 active torsions:
REMARK  status: ('A' for Active; 'I' for Inactive)
REMARK    1  A    between atoms: C_1  and  C_2
REMARK    2  A    between atoms: C_2  and  C_3
REMARK    3  A    between atoms: C_3  and  C_4
REMARK    4  A    between atoms: C_4  and  N_5
REMARK    5  A    between atoms: C_6  and  N_37
REMARK    6  A    between atoms: C_7  and  N_14
REMARK    7  A    between atoms: N_14  and  C_15
REMARK    8  A    between atoms: C_15  and  C_16
REMARK    9  A    between atoms: C_22  and  C_24
REMARK   10  A    between atoms: C_26  and  O_35
REMARK   11  A    between atoms: C_27  and  O_33
REMARK   12  A    between atoms: C_29  and  N_30
REMARK   13  A    between atoms: O_33  and  C_34
REMARK   14  A    between atoms: O_35  and  C_36
REMARK                            x       y       z     vdW  Elec       q    Type
REMARK                         _______ _______ _______ _____ _____    ______ ____
ROOT
ATOM      1  N   UNL     1       1.170  -0.971  -0.618  0.00  0.00    -0.256 N 
ATOM      2  C   UNL     1       0.022  -0.308  -0.864  0.00  0.00    +0.254 C 
ATOM      3  O   UNL     1       0.052   0.876  -1.141  0.00  0.00    -0.270 OA
ENDROOT
BRANCH   1   6
ATOM      4  N   UNL     1       1.696  -4.586  -1.011  0.00  0.00    -0.280 N 
ATOM      5  C   UNL     1       1.733  -3.236  -1.272  0.00  0.00    +0.127 A 
ATOM      6  C   UNL     1       1.144  -2.361  -0.381  0.00  0.00    +0.140 A 
ATOM      7  C   UNL     1       0.511  -2.881   0.764  0.00  0.00    +0.277 A 
ATOM      8  O   UNL     1      -0.021  -2.132   1.565  0.00  0.00    -0.266 OA
ATOM      9  N   UNL     1       0.499  -4.213   0.969  0.00  0.00    -0.273 N 
ATOM     10  H   UNL     1       0.006  -4.627   1.861  0.00  0.00    +0.173 HD
ATOM     11  C   UNL     1       1.083  -5.050   0.093  0.00  0.00    +0.331 A 
ATOM     12  O   UNL     1       1.056  -6.247   0.303  0.00  0.00    -0.246 OA
BRANCH   5  13
ATOM     13  N   UNL     1       2.354  -2.763  -2.403  0.00  0.00    -0.343 N 
ATOM     14  H   UNL     1       2.380  -1.682  -2.605  0.00  0.00    +0.144 HD
ATOM     15  H   UNL     1       2.825  -3.465  -3.106  0.00  0.00    +0.144 HD
ENDBRANCH   5  13
BRANCH   4  16
ATOM     16  C   UNL     1       2.323  -5.525  -1.945  0.00  0.00    +0.128 C 
BRANCH  16  17
ATOM     17  C   UNL     1       1.301  -5.953  -3.000  0.00  0.00    +0.021 C 
BRANCH  17  19
ATOM     18  C   UNL     1       0.934  -7.361  -5.031  0.00  0.00    +0.004 C 
ATOM     19  C   UNL     1       1.956  -6.934  -3.975  0.00  0.00    -0.002 C 
ENDBRANCH  17  19
ENDBRANCH  16  17
ENDBRANCH   4  16
ENDBRANCH   1   6
BRANCH   2  20
ATOM     20  C   UNL     1      -1.269  -1.019  -0.799  0.00  0.00    +0.071 A 
ATOM     21  C   UNL     1      -1.500  -2.128  -1.617  0.00  0.00    +0.064 A 
ATOM     22  C   UNL     1      -2.711  -2.790  -1.553  0.00  0.00    +0.162 A 
ATOM     23  C   UNL     1      -3.699  -2.351  -0.672  0.00  0.00    +0.164 A 
ATOM     24  C   UNL     1      -3.470  -1.249   0.140  0.00  0.00    +0.082 A 
ATOM     25  C   UNL     1      -2.261  -0.588   0.084  0.00  0.00    +0.142 A 
BRANCH  25  26
ATOM     26  N   UNL     1      -2.018   0.583   0.957  0.00  0.00    +0.057 N 
ATOM     27  O   UNL     1      -2.868   0.934   1.755  0.00  0.00    -0.126 OA
ATOM     28  O   UNL     1      -0.967   1.194   0.877  0.00  0.00    -0.126 OA
ENDBRANCH  25  26
BRANCH  23  29
ATOM     29  O   UNL     1      -4.889  -3.002  -0.610  0.00  0.00    -0.491 OA
ATOM     30  C   UNL     1      -5.857  -2.499   0.313  0.00  0.00    +0.277 C 
ENDBRANCH  23  29
BRANCH  22  31
ATOM     31  O   UNL     1      -2.939  -3.870  -2.348  0.00  0.00    -0.491 OA
ATOM     32  C   UNL     1      -1.883  -4.264  -3.226  0.00  0.00    +0.277 C 
ENDBRANCH  22  31
ENDBRANCH   2  20
BRANCH   1  33
ATOM     33  C   UNL     1       2.443  -0.248  -0.595  0.00  0.00    +0.149 C 
BRANCH  33  34
ATOM     34  C   UNL     1       2.698   0.277   0.795  0.00  0.00    -0.030 A 
ATOM     35  C   UNL     1       2.208   1.515   1.166  0.00  0.00    +0.005 A 
ATOM     36  C   UNL     1       2.437   1.995   2.442  0.00  0.00    +0.000 A 
ATOM     37  C   UNL     1       3.165   1.241   3.344  0.00  0.00    +0.000 A 
ATOM     38  C   UNL     1       3.660   0.005   2.970  0.00  0.00    +0.000 A 
ATOM     39  C   UNL     1       3.426  -0.476   1.696  0.00  0.00    +0.005 A 
ENDBRANCH  33  34
ENDBRANCH   1  33
TORSDOF 11
