REMARK  Name = ZINC35991680
REMARK  10 active torsions:
REMARK  status: ('A' for Active; 'I' for Inactive)
REMARK    1  A    between atoms: C_1  and  C_2
REMARK    2  A    between atoms: C_2  and  O_3
REMARK    3  A    between atoms: O_3  and  C_4
REMARK    4  A    between atoms: C_4  and  C_6
REMARK    5  A    between atoms: C_7  and  C_22
REMARK    6  A    between atoms: N_8  and  C_21
REMARK    7  A    between atoms: C_12  and  C_14
REMARK    8  A    between atoms: C_18  and  C_20
REMARK    9  A    between atoms: C_22  and  N_23
REMARK   10  A    between atoms: C_28  and  C_30
REMARK                            x       y       z     vdW  Elec       q    Type
REMARK                         _______ _______ _______ _____ _____    ______ ____
ROOT
ATOM      1  C   UNL     1      -2.741  -2.410   0.179  0.00  0.00    +0.076 C 
ATOM      2  C   UNL     1      -3.029  -3.710  -0.048  0.00  0.00    +0.010 C 
ATOM      3  N   UNL     1      -4.302  -4.109  -0.339  0.00  0.00    -0.264 N 
ATOM      4  C   UNL     1      -5.342  -3.270  -0.423  0.00  0.00    +0.307 C 
ATOM      5  O   UNL     1      -6.440  -3.720  -0.689  0.00  0.00    -0.252 OA
ATOM      6  N   UNL     1      -5.212  -1.944  -0.222  0.00  0.00    -0.288 N 
ATOM      7  C   UNL     1      -3.879  -1.412   0.105  0.00  0.00    +0.143 C 
ATOM      8  C   UNL     1      -4.542  -5.535  -0.574  0.00  0.00    +0.139 C 
ATOM      9  H   UNL     1      -5.980  -1.354  -0.288  0.00  0.00    +0.151 HD
ENDROOT
BRANCH   7  10
ATOM     10  C   UNL     1      -3.526  -0.382  -0.937  0.00  0.00    -0.022 A 
ATOM     11  C   UNL     1      -3.712  -0.664  -2.278  0.00  0.00    +0.006 A 
ATOM     12  C   UNL     1      -3.389   0.281  -3.234  0.00  0.00    +0.001 A 
ATOM     13  C   UNL     1      -2.879   1.507  -2.849  0.00  0.00    +0.003 A 
ATOM     14  C   UNL     1      -2.694   1.789  -1.509  0.00  0.00    -0.050 A 
ATOM     15  C   UNL     1      -3.021   0.846  -0.552  0.00  0.00    +0.009 A 
ATOM     16  C   UNL     1      -2.138   3.125  -1.089  0.00  0.00    +0.044 C 
ENDBRANCH   7  10
BRANCH   1  17
ATOM     17  C   UNL     1      -1.423  -1.995   0.482  0.00  0.00    +0.339 C 
ATOM     18  O   UNL     1      -0.549  -2.824   0.656  0.00  0.00    -0.245 OA
BRANCH  17  19
ATOM     19  O   UNL     1      -1.135  -0.680   0.579  0.00  0.00    -0.462 OA
BRANCH  19  21
ATOM     20  C   UNL     1       0.349   1.190   0.954  0.00  0.00    +0.048 C 
ATOM     21  C   UNL     1       0.217  -0.333   0.887  0.00  0.00    +0.229 C 
ENDBRANCH  19  21
ENDBRANCH  17  19
ENDBRANCH   1  17
BRANCH   2  22
ATOM     22  C   UNL     1      -1.928  -4.736   0.022  0.00  0.00    -0.026 C 
BRANCH  22  23
ATOM     23  N   UNL     1      -1.711  -5.128   1.421  0.00  0.00    +0.385 N 
ATOM     24  C   UNL     1      -2.933  -5.746   1.949  0.00  0.00    -0.078 C 
ATOM     25  C   UNL     1      -2.740  -6.082   3.429  0.00  0.00    -0.019 C 
ATOM     26  C   UNL     1      -1.569  -7.058   3.577  0.00  0.00    -0.003 C 
ATOM     27  C   UNL     1      -0.316  -6.433   2.956  0.00  0.00    -0.016 C 
ATOM     28  C   UNL     1      -0.599  -6.083   1.493  0.00  0.00    -0.071 C 
ATOM     29  C   UNL     1       0.650  -5.459   0.868  0.00  0.00    -0.013 C 
ATOM     30  H   UNL     1      -1.486  -4.310   1.967  0.00  0.00    -0.081 HD
ENDBRANCH  22  23
ENDBRANCH   2  22
TORSDOF 6
