REMARK  Name = ZINC42761332
REMARK  7 active torsions:
REMARK  status: ('A' for Active; 'I' for Inactive)
REMARK    1  A    between atoms: C_1  and  C_2
REMARK    2  A    between atoms: C_6  and  C_25
REMARK    3  A    between atoms: C_10  and  C_12
REMARK    4  A    between atoms: C_12  and  C_14
REMARK    5  A    between atoms: C_12  and  S_15
REMARK    6  A    between atoms: S_15  and  C_16
REMARK    7  A    between atoms: C_19  and  N_22
REMARK                            x       y       z     vdW  Elec       q    Type
REMARK                         _______ _______ _______ _____ _____    ______ ____
ROOT
ATOM      1  C   UNL     1       0.570  -0.881   1.723  0.00  0.00    +0.028 C 
ATOM      2  C   UNL     1       0.461  -2.223   0.996  0.00  0.00    +0.073 C 
ATOM      3  C   UNL     1       0.260  -1.981  -0.503  0.00  0.00    +0.023 C 
ATOM      4  C   UNL     1       0.291  -3.321  -1.241  0.00  0.00    +0.016 C 
ATOM      5  C   UNL     1       1.654  -3.986  -1.038  0.00  0.00    +0.092 C 
ATOM      6  C   UNL     1       1.871  -4.251   0.455  0.00  0.00    +0.120 C 
ATOM      7  N   UNL     1       1.698  -2.992   1.192  0.00  0.00    -0.297 N 
ATOM      8  C   UNL     1       2.657  -2.548   2.029  0.00  0.00    +0.229 C 
ATOM      9  O   UNL     1       2.483  -1.530   2.665  0.00  0.00    -0.274 OA
ENDROOT
BRANCH   5  10
ATOM     10  C   UNL     1       2.739  -3.075  -1.551  0.00  0.00    +0.215 C 
ATOM     11  O   UNL     1       2.997  -2.047  -0.961  0.00  0.00    -0.276 OA
ATOM     12  N   UNL     1       3.424  -3.402  -2.665  0.00  0.00    -0.329 N 
ATOM     13  H   UNL     1       3.217  -4.224  -3.136  0.00  0.00    +0.145 HD
ATOM     14  H   UNL     1       4.122  -2.816  -2.995  0.00  0.00    +0.145 HD
ENDBRANCH   5  10
BRANCH   8  15
ATOM     15  C   UNL     1       3.945  -3.316   2.174  0.00  0.00    +0.134 C 
ATOM     16  C   UNL     1       5.028  -2.664   1.313  0.00  0.00    +0.029 C 
BRANCH  15  17
ATOM     17  S   UNL     1       4.464  -3.303   3.912  0.00  0.00    -0.113 S 
BRANCH  17  18
ATOM     18  C   UNL     1       5.763  -4.491   3.978  0.00  0.00    +0.009 A 
ATOM     19  C   UNL     1       6.066  -5.256   2.857  0.00  0.00    +0.017 A 
ATOM     20  C   UNL     1       7.085  -6.186   2.913  0.00  0.00    +0.034 A 
ATOM     21  C   UNL     1       7.804  -6.358   4.082  0.00  0.00    +0.126 A 
ATOM     22  C   UNL     1       7.505  -5.599   5.199  0.00  0.00    +0.034 A 
ATOM     23  C   UNL     1       6.492  -4.662   5.149  0.00  0.00    +0.017 A 
BRANCH  21  24
ATOM     24  N   UNL     1       8.895  -7.356   4.137  0.00  0.00    +0.056 N 
ATOM     25  O   UNL     1       9.157  -8.020   3.161  0.00  0.00    -0.126 OA
ATOM     26  O   UNL     1       9.525  -7.507   5.158  0.00  0.00    -0.126 OA
ENDBRANCH  21  24
ENDBRANCH  17  18
ENDBRANCH  15  17
ENDBRANCH   8  15
TORSDOF 5
