REMARK  Name = ZINC40176942
REMARK  8 active torsions:
REMARK  status: ('A' for Active; 'I' for Inactive)
REMARK    1  A    between atoms: C_1  and  C_2
REMARK    2  A    between atoms: C_3  and  N_15
REMARK    3  A    between atoms: N_6  and  C_9
REMARK    4  A    between atoms: N_7  and  C_8
REMARK    5  A    between atoms: C_16  and  C_18
REMARK    6  A    between atoms: C_20  and  S_25
REMARK    7  A    between atoms: C_23  and  O_24
REMARK    8  A    between atoms: S_25  and  N_28
REMARK                            x       y       z     vdW  Elec       q    Type
REMARK                         _______ _______ _______ _____ _____    ______ ____
ROOT
ATOM      1  N   UNL     1       0.153  -0.230  -2.452  0.00  0.00    -0.276 N 
ATOM      2  C   UNL     1       0.688  -0.917  -3.480  0.00  0.00    +0.252 C 
ATOM      3  O   UNL     1       1.200  -2.003  -3.284  0.00  0.00    -0.270 OA
ATOM      4  H   UNL     1      -0.192   0.666  -2.594  0.00  0.00    +0.155 HD
ENDROOT
BRANCH   1   7
ATOM      5  C   UNL     1      -2.427  -0.659  -0.847  0.00  0.00    +0.067 C 
ATOM      6  C   UNL     1      -1.022  -1.018  -0.434  0.00  0.00    +0.059 A 
ATOM      7  C   UNL     1       0.093  -0.812  -1.170  0.00  0.00    +0.121 A 
ATOM      8  C   UNL     1       1.226  -1.308  -0.388  0.00  0.00    +0.293 A 
ATOM      9  O   UNL     1       2.398  -1.294  -0.720  0.00  0.00    -0.264 OA
ATOM     10  N   UNL     1       0.726  -1.781   0.772  0.00  0.00    -0.216 N 
ATOM     11  N   UNL     1      -0.662  -1.600   0.752  0.00  0.00    -0.282 N 
ATOM     12  C   UNL     1      -1.583  -1.978   1.827  0.00  0.00    +0.171 C 
BRANCH  10  13
ATOM     13  C   UNL     1       1.465  -2.350   1.814  0.00  0.00    +0.067 A 
ATOM     14  C   UNL     1       1.057  -3.550   2.383  0.00  0.00    +0.028 A 
ATOM     15  C   UNL     1       1.790  -4.108   3.412  0.00  0.00    +0.002 A 
ATOM     16  C   UNL     1       2.928  -3.474   3.876  0.00  0.00    +0.000 A 
ATOM     17  C   UNL     1       3.336  -2.280   3.312  0.00  0.00    +0.002 A 
ATOM     18  C   UNL     1       2.612  -1.719   2.278  0.00  0.00    +0.028 A 
ENDBRANCH  10  13
ENDBRANCH   1   7
BRANCH   2  19
ATOM     19  C   UNL     1       0.653  -0.353  -4.842  0.00  0.00    +0.080 A 
ATOM     20  C   UNL     1       0.070   0.896  -5.071  0.00  0.00    +0.045 A 
ATOM     21  C   UNL     1       0.041   1.418  -6.345  0.00  0.00    +0.106 A 
ATOM     22  C   UNL     1       0.586   0.709  -7.404  0.00  0.00    +0.032 A 
ATOM     23  C   UNL     1       1.164  -0.526  -7.192  0.00  0.00    +0.048 A 
ATOM     24  C   UNL     1       1.208  -1.064  -5.915  0.00  0.00    +0.129 A 
BRANCH  21  25
ATOM     25  S   UNL     1      -0.694   2.994  -6.631  0.00  0.00    +0.061 S 
ATOM     26  O   UNL     1      -1.083   3.019  -7.998  0.00  0.00    -0.153 OA
ATOM     27  O   UNL     1      -1.617   3.210  -5.573  0.00  0.00    -0.153 OA
BRANCH  25  28
ATOM     28  N   UNL     1       0.499   4.129  -6.458  0.00  0.00    -0.177 NA
ATOM     29  C   UNL     1       0.864   4.804  -5.203  0.00  0.00    +0.109 C 
ATOM     30  C   UNL     1       2.004   5.791  -5.529  0.00  0.00    +0.018 C 
ATOM     31  C   UNL     1       1.834   6.028  -7.053  0.00  0.00    +0.018 C 
ATOM     32  C   UNL     1       1.375   4.627  -7.534  0.00  0.00    +0.109 C 
ENDBRANCH  25  28
ENDBRANCH  21  25
BRANCH  24  33
ATOM     33  O   UNL     1       1.781  -2.276  -5.704  0.00  0.00    -0.506 OA
ATOM     34  H   UNL     1       1.169  -3.020  -5.786  0.00  0.00    +0.292 HD
ENDBRANCH  24  33
ENDBRANCH   2  19
TORSDOF 6
