REMARK  Name = ZINC16988756
REMARK  9 active torsions:
REMARK  status: ('A' for Active; 'I' for Inactive)
REMARK    1  A    between atoms: C_1  and  C_2
REMARK    2  A    between atoms: C_5  and  C_28
REMARK    3  A    between atoms: C_6  and  N_8
REMARK    4  A    between atoms: C_9  and  C_11
REMARK    5  A    between atoms: C_11  and  C_13
REMARK    6  A    between atoms: C_11  and  S_14
REMARK    7  A    between atoms: S_14  and  C_15
REMARK    8  A    between atoms: C_18  and  C_21
REMARK    9  A    between atoms: N_19  and  N_20
REMARK                            x       y       z     vdW  Elec       q    Type
REMARK                         _______ _______ _______ _____ _____    ______ ____
ROOT
ATOM      1  S   UNL     1      -6.180   2.420   0.955  0.00  0.00    -0.072 S 
ENDROOT
BRANCH   1   2
ATOM      2  C   UNL     1      -7.489   1.250   1.116  0.00  0.00    +0.209 A 
ATOM      3  N   UNL     1      -7.443  -0.021   0.786  0.00  0.00    -0.121 NA
ATOM      4  N   UNL     1      -8.572  -0.583   1.036  0.00  0.00    -0.127 NA
ATOM      5  C   UNL     1      -9.407   0.295   1.540  0.00  0.00    +0.183 A 
ATOM      6  N   UNL     1      -8.738   1.495   1.611  0.00  0.00    -0.224 N 
BRANCH   5   7
ATOM      7  C   UNL     1     -10.802   0.042   1.958  0.00  0.00    +0.035 A 
ATOM      8  C   UNL     1     -11.829   0.877   1.516  0.00  0.00    +0.013 A 
ATOM      9  C   UNL     1     -13.129   0.635   1.910  0.00  0.00    +0.001 A 
ATOM     10  C   UNL     1     -13.416  -0.434   2.740  0.00  0.00    +0.001 A 
ATOM     11  C   UNL     1     -12.404  -1.266   3.182  0.00  0.00    +0.016 A 
ATOM     12  C   UNL     1     -11.099  -1.039   2.791  0.00  0.00    +0.029 A 
ATOM     13 BR   UNL     1      -9.717  -2.182   3.390  0.00  0.00    -0.050 Br
ENDBRANCH   5   7
BRANCH   6  14
ATOM     14  N   UNL     1      -9.222   2.684   2.078  0.00  0.00    -0.295 N 
ATOM     15  H   UNL     1      -9.578   3.251   1.323  0.00  0.00    +0.163 HD
ATOM     16  H   UNL     1      -9.928   2.535   2.783  0.00  0.00    +0.163 HD
ENDBRANCH   6  14
ENDBRANCH   1   2
BRANCH   1  17
ATOM     17  C   UNL     1      -4.895   1.358   0.251  0.00  0.00    +0.137 C 
ATOM     18  C   UNL     1      -5.330   0.882  -1.137  0.00  0.00    +0.029 C 
BRANCH  17  20
ATOM     19  N   UNL     1      -2.434   1.482   0.028  0.00  0.00    -0.284 N 
ATOM     20  C   UNL     1      -3.609   2.135   0.135  0.00  0.00    +0.230 C 
ATOM     21  O   UNL     1      -3.631   3.347   0.139  0.00  0.00    -0.274 OA
ATOM     22  H   UNL     1      -2.422   0.516  -0.056  0.00  0.00    +0.155 HD
BRANCH  19  28
ATOM     23  C   UNL     1       0.084   5.505   1.312  0.00  0.00    +0.044 C 
ATOM     24  C   UNL     1       0.016   4.151   0.653  0.00  0.00    -0.049 A 
ATOM     25  C   UNL     1       1.142   3.619   0.052  0.00  0.00    +0.004 A 
ATOM     26  C   UNL     1       1.084   2.377  -0.554  0.00  0.00    +0.005 A 
ATOM     27  C   UNL     1      -0.099   1.665  -0.560  0.00  0.00    -0.029 A 
ATOM     28  C   UNL     1      -1.232   2.199   0.038  0.00  0.00    +0.037 A 
ATOM     29  C   UNL     1      -1.170   3.444   0.650  0.00  0.00    +0.027 A 
ATOM     30  C   UNL     1      -0.162   0.312  -1.222  0.00  0.00    +0.045 C 
ENDBRANCH  19  28
ENDBRANCH  17  20
ENDBRANCH   1  17
TORSDOF 6
