REMARK  Name = ZINC37626990
REMARK  11 active torsions:
REMARK  status: ('A' for Active; 'I' for Inactive)
REMARK    1  A    between atoms: C_1  and  C_2
REMARK    2  A    between atoms: C_2  and  C_4
REMARK    3  A    between atoms: C_2  and  N_14
REMARK    4  A    between atoms: C_7  and  O_10
REMARK    5  A    between atoms: O_10  and  C_11
REMARK    6  A    between atoms: C_11  and  C_12
REMARK    7  A    between atoms: C_11  and  C_13
REMARK    8  A    between atoms: C_15  and  C_17
REMARK    9  A    between atoms: C_17  and  C_19
REMARK   10  A    between atoms: C_17  and  N_23
REMARK   11  A    between atoms: C_19  and  C_20
REMARK                            x       y       z     vdW  Elec       q    Type
REMARK                         _______ _______ _______ _____ _____    ______ ____
ROOT
ATOM      1  N   UNL     1       0.836  -0.266   1.174  0.00  0.00    -0.310 N 
ATOM      2  C   UNL     1       0.268  -0.399   2.389  0.00  0.00    +0.199 C 
ATOM      3  O   UNL     1      -0.935  -0.298   2.510  0.00  0.00    -0.278 OA
ATOM      4  H   UNL     1       1.798  -0.346   1.077  0.00  0.00    +0.149 HD
ENDROOT
BRANCH   1   6
ATOM      5  C   UNL     1      -0.251   1.505  -0.116  0.00  0.00    +0.033 C 
ATOM      6  C   UNL     1       0.001   0.001  -0.000  0.00  0.00    +0.100 C 
BRANCH   6   7
ATOM      7  C   UNL     1       0.707  -0.486  -1.240  0.00  0.00    -0.027 A 
ATOM      8  C   UNL     1       2.071  -0.307  -1.372  0.00  0.00    +0.009 A 
ATOM      9  C   UNL     1       2.721  -0.753  -2.507  0.00  0.00    +0.046 A 
ATOM     10  C   UNL     1       2.002  -1.381  -3.515  0.00  0.00    +0.121 A 
ATOM     11  C   UNL     1       0.633  -1.560  -3.379  0.00  0.00    +0.046 A 
ATOM     12  C   UNL     1      -0.010  -1.117  -2.239  0.00  0.00    +0.009 A 
BRANCH  10  13
ATOM     13  O   UNL     1       2.638  -1.819  -4.633  0.00  0.00    -0.489 OA
BRANCH  13  14
ATOM     14  C   UNL     1       4.063  -1.710  -4.653  0.00  0.00    +0.167 C 
ATOM     15  C   UNL     1       4.641  -2.751  -5.614  0.00  0.00    +0.051 C 
ATOM     16  C   UNL     1       4.460  -0.308  -5.121  0.00  0.00    +0.051 C 
ENDBRANCH  13  14
ENDBRANCH  10  13
ENDBRANCH   6   7
ENDBRANCH   1   6
BRANCH   2  17
ATOM     17  C   UNL     1       1.127  -0.673   3.596  0.00  0.00    +0.021 C 
BRANCH  17  18
ATOM     18  N   UNL     1       0.390  -0.308   4.814  0.00  0.00    +0.386 N 
ATOM     19  H   UNL     1      -0.456  -0.855   4.872  0.00  0.00    -0.089 HD
ATOM     20  H   UNL     1       0.965  -0.492   5.622  0.00  0.00    -0.089 HD
ATOM     21  H   UNL     1       0.155   0.672   4.784  0.00  0.00    -0.089 HD
ENDBRANCH  17  18
BRANCH  17  22
ATOM     22  C   UNL     1       1.482  -2.160   3.642  0.00  0.00    +0.088 C 
BRANCH  22  23
ATOM     23  C   UNL     1       2.440  -2.413   4.778  0.00  0.00    +0.209 C 
ATOM     24  O   UNL     1       2.802  -1.494   5.481  0.00  0.00    -0.276 OA
ATOM     25  N   UNL     1       2.894  -3.660   5.011  0.00  0.00    -0.329 N 
ATOM     26  H   UNL     1       2.604  -4.396   4.449  0.00  0.00    +0.145 HD
ATOM     27  H   UNL     1       3.510  -3.823   5.743  0.00  0.00    +0.145 HD
ENDBRANCH  22  23
ENDBRANCH  17  22
ENDBRANCH   2  17
TORSDOF 8
