REMARK  Name = ZINC36869770
REMARK  8 active torsions:
REMARK  status: ('A' for Active; 'I' for Inactive)
REMARK    1  A    between atoms: C_1  and  C_2
REMARK    2  A    between atoms: C_2  and  O_3
REMARK    3  A    between atoms: O_3  and  C_4
REMARK    4  A    between atoms: C_4  and  C_6
REMARK    5  A    between atoms: C_7  and  C_19
REMARK    6  A    between atoms: C_12  and  C_14
REMARK    7  A    between atoms: C_19  and  N_20
REMARK    8  A    between atoms: C_24  and  C_26
REMARK                            x       y       z     vdW  Elec       q    Type
REMARK                         _______ _______ _______ _____ _____    ______ ____
ROOT
ATOM      1  C   UNL     1       2.140  -2.590   2.350  0.00  0.00    +0.079 C 
ATOM      2  C   UNL     1       1.486  -3.722   2.690  0.00  0.00    +0.008 C 
ATOM      3  N   UNL     1       1.420  -4.134   3.990  0.00  0.00    -0.274 N 
ATOM      4  C   UNL     1       1.980  -3.470   5.009  0.00  0.00    +0.304 C 
ATOM      5  O   UNL     1       1.866  -3.916   6.134  0.00  0.00    -0.252 OA
ATOM      6  N   UNL     1       2.665  -2.324   4.828  0.00  0.00    -0.285 N 
ATOM      7  C   UNL     1       2.801  -1.797   3.459  0.00  0.00    +0.179 C 
ATOM      8  H   UNL     1       0.939  -4.954   4.186  0.00  0.00    +0.156 HD
ATOM      9  H   UNL     1       3.062  -1.859   5.581  0.00  0.00    +0.151 HD
ENDROOT
BRANCH   7  10
ATOM     10  C   UNL     1       4.270  -1.689   3.142  0.00  0.00    +0.130 A 
ATOM     11  C   UNL     1       4.880  -0.620   2.599  0.00  0.00    +0.047 A 
ATOM     12  C   UNL     1       6.250  -0.950   2.475  0.00  0.00    +0.041 A 
ATOM     13  C   UNL     1       6.394  -2.200   2.950  0.00  0.00    +0.195 A 
ATOM     14  O   UNL     1       5.192  -2.640   3.358  0.00  0.00    -0.466 OA
ENDBRANCH   7  10
BRANCH   1  15
ATOM     15  C   UNL     1       2.211  -2.162   1.004  0.00  0.00    +0.339 C 
ATOM     16  O   UNL     1       1.783  -2.876   0.115  0.00  0.00    -0.245 OA
BRANCH  15  17
ATOM     17  O   UNL     1       2.751  -0.963   0.704  0.00  0.00    -0.462 OA
BRANCH  17  19
ATOM     18  C   UNL     1       3.433   0.786  -0.818  0.00  0.00    +0.048 C 
ATOM     19  C   UNL     1       2.790  -0.595  -0.676  0.00  0.00    +0.229 C 
ENDBRANCH  17  19
ENDBRANCH  15  17
ENDBRANCH   1  15
BRANCH   2  20
ATOM     20  C   UNL     1       0.820  -4.543   1.617  0.00  0.00    -0.026 C 
BRANCH  20  21
ATOM     21  N   UNL     1       1.802  -5.458   1.019  0.00  0.00    +0.388 N 
ATOM     22  C   UNL     1       2.222  -6.460   2.022  0.00  0.00    -0.078 C 
ATOM     23  C   UNL     1       1.321  -7.691   1.753  0.00  0.00    -0.020 C 
ATOM     24  C   UNL     1       1.217  -7.672   0.205  0.00  0.00    -0.013 C 
ATOM     25  C   UNL     1       1.192  -6.164  -0.123  0.00  0.00    -0.037 C 
ATOM     26  H   UNL     1       2.606  -4.936   0.706  0.00  0.00    -0.080 HD
BRANCH  25  27
ATOM     27  C   UNL     1       1.988  -5.898  -1.374  0.00  0.00    -0.057 A 
ATOM     28  C   UNL     1       3.369  -5.872  -1.320  0.00  0.00    +0.006 A 
ATOM     29  C   UNL     1       4.107  -5.629  -2.465  0.00  0.00    +0.049 A 
ATOM     30  C   UNL     1       3.456  -5.411  -3.667  0.00  0.00    +0.162 A 
ATOM     31  C   UNL     1       2.069  -5.437  -3.722  0.00  0.00    +0.162 A 
ATOM     32  C   UNL     1       1.334  -5.685  -2.575  0.00  0.00    +0.051 A 
ATOM     33  O   UNL     1       1.437  -5.222  -4.912  0.00  0.00    -0.488 OA
ATOM     34  C   UNL     1       1.539  -3.899  -5.443  0.00  0.00    +0.232 C 
ATOM     35  C   UNL     1       2.831  -3.730  -6.226  0.00  0.00    +0.082 C 
ATOM     36  C   UNL     1       4.063  -3.852  -5.344  0.00  0.00    +0.232 C 
ATOM     37  O   UNL     1       4.171  -5.171  -4.804  0.00  0.00    -0.488 OA
ENDBRANCH  25  27
ENDBRANCH  20  21
ENDBRANCH   2  20
TORSDOF 7
