REMARK  Name = ZINC40400395
REMARK  7 active torsions:
REMARK  status: ('A' for Active; 'I' for Inactive)
REMARK    1  A    between atoms: C_1  and  C_2
REMARK    2  A    between atoms: C_2  and  O_3
REMARK    3  A    between atoms: O_3  and  C_4
REMARK    4  A    between atoms: C_7  and  N_10
REMARK    5  A    between atoms: C_11  and  C_13
REMARK    6  A    between atoms: N_27  and  C_28
REMARK    7  A    between atoms: C_31  and  C_34
REMARK                            x       y       z     vdW  Elec       q    Type
REMARK                         _______ _______ _______ _____ _____    ______ ____
ROOT
ATOM      1  C   UNL     1       1.749  -7.261  -3.332  0.00  0.00    +0.122 C 
ATOM      2  C   UNL     1       2.576  -7.767  -2.148  0.00  0.00    +0.114 C 
ATOM      3  C   UNL     1       4.037  -7.501  -2.401  0.00  0.00    +0.219 C 
ATOM      4  O   UNL     1       4.755  -7.174  -1.480  0.00  0.00    -0.275 OA
ATOM      5  N   UNL     1       4.553  -7.622  -3.636  0.00  0.00    -0.270 N 
ATOM      6  C   UNL     1       3.739  -7.891  -4.723  0.00  0.00    +0.138 A 
ATOM      7  C   UNL     1       2.368  -7.738  -4.618  0.00  0.00    +0.069 A 
ATOM      8  C   UNL     1       1.564  -8.035  -5.724  0.00  0.00    +0.258 A 
ATOM      9  O   UNL     1       0.350  -7.923  -5.659  0.00  0.00    -0.267 OA
ATOM     10  N   UNL     1       2.158  -8.448  -6.864  0.00  0.00    -0.295 N 
ATOM     11  H   UNL     1       1.619  -8.674  -7.638  0.00  0.00    +0.172 HD
ATOM     12  C   UNL     1       3.514  -8.547  -6.928  0.00  0.00    +0.202 A 
ATOM     13  N   UNL     1       4.273  -8.273  -5.889  0.00  0.00    -0.200 NA
ATOM     14  N   UNL     1       4.103  -8.942  -8.101  0.00  0.00    -0.285 N 
ATOM     15  H   UNL     1       5.508  -7.521  -3.767  0.00  0.00    +0.156 HD
ATOM     16  H   UNL     1       3.561  -9.073  -8.895  0.00  0.00    +0.155 HD
ENDROOT
BRANCH  14  17
ATOM     17  C   UNL     1       5.484  -9.157  -8.154  0.00  0.00    +0.034 A 
ATOM     18  C   UNL     1       6.154  -9.653  -7.042  0.00  0.00    +0.023 A 
ATOM     19  C   UNL     1       7.517  -9.864  -7.097  0.00  0.00    +0.005 A 
ATOM     20  C   UNL     1       8.216  -9.583  -8.257  0.00  0.00    -0.050 A 
ATOM     21  C   UNL     1       7.552  -9.089  -9.365  0.00  0.00    +0.005 A 
ATOM     22  C   UNL     1       6.188  -8.881  -9.319  0.00  0.00    +0.023 A 
ATOM     23  C   UNL     1       9.704  -9.814  -8.313  0.00  0.00    +0.044 C 
ENDBRANCH  14  17
BRANCH   1  25
ATOM     24  N   UNL     1       1.207  -5.100  -2.257  0.00  0.00    -0.285 N 
ATOM     25  C   UNL     1       1.721  -5.754  -3.317  0.00  0.00    +0.225 C 
ATOM     26  O   UNL     1       2.161  -5.130  -4.259  0.00  0.00    -0.275 OA
ATOM     27  H   UNL     1       0.918  -5.596  -1.475  0.00  0.00    +0.155 HD
BRANCH  24  31
ATOM     28  C   UNL     1       0.857  -0.946  -2.339  0.00  0.00    +0.121 A 
ATOM     29  C   UNL     1       1.938  -1.563  -2.952  0.00  0.00    +0.047 A 
ATOM     30  C   UNL     1       2.054  -2.939  -2.925  0.00  0.00    +0.027 A 
ATOM     31  C   UNL     1       1.089  -3.704  -2.284  0.00  0.00    +0.034 A 
ATOM     32  C   UNL     1       0.008  -3.086  -1.671  0.00  0.00    +0.027 A 
ATOM     33  C   UNL     1      -0.105  -1.710  -1.694  0.00  0.00    +0.047 A 
BRANCH  28  34
ATOM     34  O   UNL     1       0.743   0.408  -2.366  0.00  0.00    -0.492 OA
BRANCH  34  36
ATOM     35  C   UNL     1       1.471   2.632  -2.973  0.00  0.00    +0.048 C 
ATOM     36  C   UNL     1       1.769   1.133  -3.048  0.00  0.00    +0.225 C 
ENDBRANCH  34  36
ENDBRANCH  28  34
ENDBRANCH  24  31
ENDBRANCH   1  25
TORSDOF 5
