REMARK  Name = ZINC34997574
REMARK  13 active torsions:
REMARK  status: ('A' for Active; 'I' for Inactive)
REMARK    1  A    between atoms: C_1  and  C_2
REMARK    2  A    between atoms: C_2  and  C_38
REMARK    3  A    between atoms: C_7  and  C_11
REMARK    4  A    between atoms: C_11  and  N_12
REMARK    5  A    between atoms: N_12  and  C_13
REMARK    6  A    between atoms: C_13  and  C_14
REMARK    7  A    between atoms: C_14  and  N_15
REMARK    8  A    between atoms: N_23  and  C_24
REMARK    9  A    between atoms: C_24  and  C_25
REMARK   10  A    between atoms: C_24  and  C_26
REMARK   11  A    between atoms: C_24  and  C_27
REMARK   12  A    between atoms: N_30  and  C_31
REMARK   13  A    between atoms: C_31  and  C_32
REMARK                            x       y       z     vdW  Elec       q    Type
REMARK                         _______ _______ _______ _____ _____    ______ ____
ROOT
ATOM      1  N   UNL     1       3.168  -2.643   0.161  0.00  0.00    -0.283 N 
ATOM      2  C   UNL     1       3.190  -3.584  -0.803  0.00  0.00    +0.303 C 
ATOM      3  O   UNL     1       3.942  -3.466  -1.752  0.00  0.00    -0.253 OA
ATOM      4  N   UNL     1       2.379  -4.657  -0.716  0.00  0.00    -0.295 N 
ATOM      5  H   UNL     1       1.780  -4.752   0.040  0.00  0.00    +0.151 HD
ENDROOT
BRANCH   1   6
ATOM      6  C   UNL     1       2.263  -2.785   1.303  0.00  0.00    +0.140 C 
BRANCH   6  12
ATOM      7  C   UNL     1      -0.019   1.527   0.011  0.00  0.00    +0.012 C 
ATOM      8  C   UNL     1       0.002  -0.003   0.003  0.00  0.00    -0.025 C 
ATOM      9  C   UNL     1      -1.271  -0.647   0.590  0.00  0.00    -0.000 C 
ATOM     10  C   UNL     1      -1.367  -2.127   0.193  0.00  0.00    +0.031 C 
ATOM     11  C   UNL     1      -0.065  -2.823   0.508  0.00  0.00    -0.025 C 
ATOM     12  C   UNL     1       0.944  -2.130   0.984  0.00  0.00    -0.053 C 
ATOM     13  C   UNL     1       0.725  -0.623   1.212  0.00  0.00    +0.022 C 
ATOM     14  C   UNL     1      -0.614  -0.418   1.962  0.00  0.00    +0.012 C 
ATOM     15  C   UNL     1       0.431  -0.589  -1.343  0.00  0.00    +0.012 C 
ENDBRANCH   6  12
ENDBRANCH   1   6
BRANCH   1  16
ATOM     16  C   UNL     1       4.050  -1.476   0.066  0.00  0.00    +0.091 C 
BRANCH  16  17
ATOM     17  C   UNL     1       5.380  -1.786   0.755  0.00  0.00    -0.059 C 
BRANCH  17  18
ATOM     18  N   UNL     1       6.264  -0.616   0.660  0.00  0.00    +0.383 N 
ATOM     19  C   UNL     1       5.677   0.501   1.410  0.00  0.00    -0.059 C 
ATOM     20  C   UNL     1       6.539   1.753   1.217  0.00  0.00    +0.091 C 
ATOM     21  N   UNL     1       7.923   1.429   1.595  0.00  0.00    -0.289 N 
ATOM     22  C   UNL     1       8.537   0.226   1.012  0.00  0.00    +0.091 C 
ATOM     23  C   UNL     1       7.581  -0.954   1.215  0.00  0.00    -0.059 C 
ATOM     24  C   UNL     1       8.610   2.212   2.451  0.00  0.00    +0.302 C 
ATOM     25  O   UNL     1       8.120   3.251   2.851  0.00  0.00    -0.253 OA
ATOM     26  N   UNL     1       9.839   1.845   2.862  0.00  0.00    -0.295 N 
ATOM     27  H   UNL     1      10.261   1.056   2.488  0.00  0.00    +0.151 HD
ATOM     28  H   UNL     1       6.367  -0.351  -0.308  0.00  0.00    -0.082 HD
BRANCH  26  29
ATOM     29  C   UNL     1      10.540   2.638   3.875  0.00  0.00    +0.028 C 
ATOM     30  C   UNL     1       9.713   2.667   5.162  0.00  0.00    +0.031 C 
ATOM     31  C   UNL     1      11.906   2.009   4.160  0.00  0.00    +0.031 C 
ATOM     32  C   UNL     1      10.734   4.066   3.361  0.00  0.00    +0.031 C 
ENDBRANCH  26  29
ENDBRANCH  17  18
ENDBRANCH  16  17
ENDBRANCH   1  16
BRANCH   4  33
ATOM     33  C   UNL     1       2.403  -5.681  -1.764  0.00  0.00    +0.141 C 
BRANCH  33  34
ATOM     34  C   UNL     1       1.411  -6.764  -1.430  0.00  0.00    -0.030 A 
ATOM     35  C   UNL     1       1.804  -7.852  -0.673  0.00  0.00    +0.005 A 
ATOM     36  C   UNL     1       0.893  -8.847  -0.367  0.00  0.00    +0.000 A 
ATOM     37  C   UNL     1      -0.410  -8.753  -0.818  0.00  0.00    +0.000 A 
ATOM     38  C   UNL     1      -0.803  -7.664  -1.574  0.00  0.00    +0.000 A 
ATOM     39  C   UNL     1       0.106  -6.668  -1.877  0.00  0.00    +0.005 A 
ENDBRANCH  33  34
ENDBRANCH   4  33
TORSDOF 8
