REMARK  Name = ZINC04043193
REMARK  9 active torsions:
REMARK  status: ('A' for Active; 'I' for Inactive)
REMARK    1  A    between atoms: C_1  and  C_2
REMARK    2  A    between atoms: N_4  and  C_5
REMARK    3  A    between atoms: C_7  and  O_28
REMARK    4  A    between atoms: C_9  and  O_27
REMARK    5  A    between atoms: C_11  and  C_25
REMARK    6  A    between atoms: C_14  and  O_16
REMARK    7  A    between atoms: O_16  and  C_17
REMARK    8  A    between atoms: C_20  and  C_23
REMARK    9  A    between atoms: C_25  and  O_26
REMARK                            x       y       z     vdW  Elec       q    Type
REMARK                         _______ _______ _______ _____ _____    ______ ____
ROOT
ATOM      1  C   UNL     1      -2.475  -2.724   0.136  0.00  0.00    +0.173 C 
ATOM      2  C   UNL     1      -2.375  -4.251   0.066  0.00  0.00    +0.172 C 
ATOM      3  C   UNL     1      -1.696  -4.647  -1.249  0.00  0.00    +0.176 C 
ATOM      4  C   UNL     1      -0.325  -3.971  -1.331  0.00  0.00    +0.179 C 
ATOM      5  O   UNL     1      -0.487  -2.555  -1.228  0.00  0.00    -0.332 OA
ATOM      6  C   UNL     1      -1.074  -2.122   0.001  0.00  0.00    +0.331 C 
ENDROOT
BRANCH   1  10
ATOM      7  C   UNL     1      -4.289  -0.744   2.864  0.00  0.00    +0.109 C 
ATOM      8  C   UNL     1      -3.692  -1.149   1.541  0.00  0.00    +0.210 C 
ATOM      9  O   UNL     1      -3.786  -0.412   0.582  0.00  0.00    -0.276 OA
ATOM     10  N   UNL     1      -3.055  -2.330   1.423  0.00  0.00    -0.304 N 
ATOM     11  H   UNL     1      -2.980  -2.920   2.189  0.00  0.00    +0.149 HD
ENDBRANCH   1  10
BRANCH   3  12
ATOM     12  O   UNL     1      -1.532  -6.066  -1.293  0.00  0.00    -0.387 OA
ATOM     13  H   UNL     1      -1.103  -6.387  -2.098  0.00  0.00    +0.210 HD
ENDBRANCH   3  12
BRANCH   2  14
ATOM     14  O   UNL     1      -3.685  -4.819   0.117  0.00  0.00    -0.387 OA
ATOM     15  H   UNL     1      -3.697  -5.785   0.070  0.00  0.00    +0.210 HD
ENDBRANCH   2  14
BRANCH   6  16
ATOM     16  O   UNL     1      -1.165  -0.696   0.010  0.00  0.00    -0.462 OA
BRANCH  16  17
ATOM     17  C   UNL     1       0.002  -0.004   0.002  0.00  0.00    +0.124 A 
ATOM     18  C   UNL     1      -0.017   1.387   0.010  0.00  0.00    +0.046 A 
ATOM     19  C   UNL     1       1.160   2.091   0.002  0.00  0.00    +0.014 A 
ATOM     20  C   UNL     1       2.382   1.407  -0.013  0.00  0.00    +0.014 A 
ATOM     21  C   UNL     1       2.395   0.007  -0.021  0.00  0.00    +0.014 A 
ATOM     22  C   UNL     1       1.213  -0.688  -0.013  0.00  0.00    +0.046 A 
BRANCH  20  23
ATOM     23  C   UNL     1       3.645   2.156  -0.022  0.00  0.00    +0.258 C 
ATOM     24  O   UNL     1       3.631   3.369  -0.016  0.00  0.00    -0.296 OA
ENDBRANCH  20  23
ENDBRANCH  16  17
ENDBRANCH   6  16
BRANCH   4  25
ATOM     25  C   UNL     1       0.334  -4.313  -2.668  0.00  0.00    +0.190 C 
BRANCH  25  26
ATOM     26  O   UNL     1       1.659  -3.778  -2.697  0.00  0.00    -0.392 OA
ATOM     27  H   UNL     1       2.138  -3.958  -3.518  0.00  0.00    +0.210 HD
ENDBRANCH  25  26
ENDBRANCH   4  25
TORSDOF 8
