REMARK  Name = ZINC66790832
REMARK  9 active torsions:
REMARK  status: ('A' for Active; 'I' for Inactive)
REMARK    1  A    between atoms: C_1  and  C_2
REMARK    2  A    between atoms: N_6  and  C_21
REMARK    3  A    between atoms: C_8  and  C_10
REMARK    4  A    between atoms: N_12  and  N_13
REMARK    5  A    between atoms: C_14  and  C_16
REMARK    6  A    between atoms: C_16  and  C_17
REMARK    7  A    between atoms: C_17  and  C_18
REMARK    8  A    between atoms: C_18  and  C_19
REMARK    9  A    between atoms: C_18  and  C_20
REMARK                            x       y       z     vdW  Elec       q    Type
REMARK                         _______ _______ _______ _____ _____    ______ ____
ROOT
ATOM      1  C   UNL     1      -0.549   0.959  -0.085  0.00  0.00    +0.038 C 
ATOM      2  C   UNL     1      -0.012  -0.451   0.166  0.00  0.00    +0.157 C 
ATOM      3  C   UNL     1       0.716  -0.945  -1.063  0.00  0.00    +0.259 C 
ATOM      4  O   UNL     1       0.109  -1.514  -1.946  0.00  0.00    -0.271 OA
ATOM      5  N   UNL     1       2.045  -0.748  -1.169  0.00  0.00    -0.157 N 
ATOM      6  N   UNL     1       2.759  -0.111  -0.149  0.00  0.00    -0.152 NA
ATOM      7  C   UNL     1       2.237   0.044   1.037  0.00  0.00    +0.202 C 
ATOM      8  N   UNL     1       0.943  -0.428   1.284  0.00  0.00    -0.313 N 
ATOM      9  H   UNL     1       0.682  -0.730   2.168  0.00  0.00    +0.148 HD
ENDROOT
BRANCH   5  10
ATOM     10  C   UNL     1       2.720  -1.187  -2.314  0.00  0.00    +0.060 A 
ATOM     11  C   UNL     1       3.887  -1.931  -2.192  0.00  0.00    +0.025 A 
ATOM     12  C   UNL     1       4.550  -2.362  -3.323  0.00  0.00    +0.002 A 
ATOM     13  C   UNL     1       4.054  -2.055  -4.577  0.00  0.00    +0.000 A 
ATOM     14  C   UNL     1       2.893  -1.314  -4.702  0.00  0.00    +0.002 A 
ATOM     15  C   UNL     1       2.221  -0.885  -3.574  0.00  0.00    +0.025 A 
ENDBRANCH   5  10
BRANCH   7  16
ATOM     16  C   UNL     1       3.003   0.708   2.106  0.00  0.00    +0.294 C 
ATOM     17  O   UNL     1       2.511   0.849   3.209  0.00  0.00    -0.265 OA
ATOM     18  N   UNL     1       4.250   1.159   1.861  0.00  0.00    -0.228 N 
ATOM     19  H   UNL     1       4.642   1.047   0.982  0.00  0.00    +0.173 HD
BRANCH  18  20
ATOM     20  N   UNL     1       4.978   1.791   2.878  0.00  0.00    -0.234 N 
ATOM     21  C   UNL     1       6.224   2.242   2.633  0.00  0.00    +0.229 C 
ATOM     22  O   UNL     1       6.715   2.102   1.533  0.00  0.00    -0.274 OA
ATOM     23  H   UNL     1       4.586   1.903   3.758  0.00  0.00    +0.173 HD
BRANCH  21  24
ATOM     24  C   UNL     1       7.008   2.921   3.727  0.00  0.00    +0.097 C 
BRANCH  24  25
ATOM     25  C   UNL     1       8.380   3.334   3.190  0.00  0.00    +0.012 C 
BRANCH  25  26
ATOM     26  C   UNL     1       9.176   4.024   4.300  0.00  0.00    -0.017 C 
ATOM     27  C   UNL     1       9.463   3.021   5.420  0.00  0.00    +0.007 C 
ATOM     28  C   UNL     1      10.496   4.546   3.732  0.00  0.00    +0.007 C 
ENDBRANCH  25  26
ENDBRANCH  24  25
ENDBRANCH  21  24
ENDBRANCH  18  20
ENDBRANCH   7  16
TORSDOF 6
