REMARK  Name = ZINC49044825
REMARK  5 active torsions:
REMARK  status: ('A' for Active; 'I' for Inactive)
REMARK    1  A    between atoms: C_1  and  C_2
REMARK    2  A    between atoms: C_5  and  C_7
REMARK    3  A    between atoms: N_9  and  N_10
REMARK    4  A    between atoms: C_11  and  C_13
REMARK    5  A    between atoms: C_15  and  N_18
REMARK                            x       y       z     vdW  Elec       q    Type
REMARK                         _______ _______ _______ _____ _____    ______ ____
ROOT
ATOM      1  N   UNL     1       2.959  -5.398  -0.040  0.00  0.00    -0.230 N 
ATOM      2  C   UNL     1       4.296  -5.564  -0.046  0.00  0.00    +0.261 C 
ATOM      3  O   UNL     1       5.030  -4.594  -0.045  0.00  0.00    -0.269 OA
ATOM      4  H   UNL     1       2.374  -6.172  -0.041  0.00  0.00    +0.173 HD
ENDROOT
BRANCH   2   5
ATOM      5  C   UNL     1       4.870  -6.920  -0.056  0.00  0.00    +0.047 A 
ATOM      6  C   UNL     1       6.296  -7.136  -0.058  0.00  0.00    +0.053 A 
ATOM      7  C   UNL     1       6.693  -8.425  -0.066  0.00  0.00    +0.164 A 
ATOM      8  S   UNL     1       5.155  -9.320  -0.072  0.00  0.00    -0.072 S 
ATOM      9  C   UNL     1       4.070  -8.040  -0.058  0.00  0.00    +0.060 A 
BRANCH   7  10
ATOM     10  N   UNL     1       8.072  -8.963  -0.071  0.00  0.00    +0.063 N 
ATOM     11  O   UNL     1       9.016  -8.208  -0.067  0.00  0.00    -0.126 OA
ATOM     12  O   UNL     1       8.254 -10.159  -0.079  0.00  0.00    -0.126 OA
ENDBRANCH   7  10
ENDBRANCH   2   5
BRANCH   1  15
ATOM     13  C   UNL     1       1.076  -3.942  -0.024  0.00  0.00    +0.267 C 
ATOM     14  O   UNL     1       0.342  -4.913  -0.025  0.00  0.00    -0.268 OA
ATOM     15  N   UNL     1       2.413  -4.108  -0.031  0.00  0.00    -0.230 N 
ATOM     16  H   UNL     1       2.998  -3.334  -0.029  0.00  0.00    +0.173 HD
BRANCH  13  21
ATOM     17  C   UNL     1      -0.018   1.503   0.010  0.00  0.00    +0.051 C 
ATOM     18  C   UNL     1       0.002  -0.004   0.002  0.00  0.00    -0.013 A 
ATOM     19  C   UNL     1      -1.056  -0.852   0.002  0.00  0.00    +0.011 A 
ATOM     20  C   UNL     1      -0.827  -2.207  -0.006  0.00  0.00    +0.021 A 
ATOM     21  C   UNL     1       0.505  -2.592  -0.014  0.00  0.00    +0.076 A 
ATOM     22  S   UNL     1       1.341  -1.018  -0.017  0.00  0.00    -0.089 S 
ENDBRANCH  13  21
ENDBRANCH   1  15
TORSDOF 4
