REMARK  Name = ZINC04375667
REMARK  17 active torsions:
REMARK  status: ('A' for Active; 'I' for Inactive)
REMARK    1  A    between atoms: C_1  and  C_2
REMARK    2  A    between atoms: C_2  and  C_3
REMARK    3  A    between atoms: C_2  and  C_4
REMARK    4  A    between atoms: C_4  and  C_5
REMARK    5  A    between atoms: C_5  and  C_7
REMARK    6  A    between atoms: C_5  and  N_18
REMARK    7  A    between atoms: C_13  and  C_15
REMARK    8  A    between atoms: C_19  and  C_21
REMARK    9  A    between atoms: C_21  and  C_23
REMARK   10  A    between atoms: C_21  and  N_26
REMARK   11  A    between atoms: C_23  and  C_24
REMARK   12  A    between atoms: C_23  and  C_25
REMARK   13  A    between atoms: C_27  and  O_29
REMARK   14  A    between atoms: O_29  and  C_30
REMARK   15  A    between atoms: C_30  and  C_31
REMARK   16  A    between atoms: C_30  and  C_32
REMARK   17  A    between atoms: C_30  and  C_33
REMARK                            x       y       z     vdW  Elec       q    Type
REMARK                         _______ _______ _______ _____ _____    ______ ____
ROOT
ATOM      1  C   UNL     1      -4.681   5.678  -1.407  0.00  0.00    +0.159 C 
ENDROOT
BRANCH   1   2
ATOM      2  C   UNL     1      -4.748   6.842  -2.361  0.00  0.00    +0.237 C 
ATOM      3  O   UNL     1      -3.728   7.398  -2.711  0.00  0.00    -0.274 OA
ATOM      4  N   UNL     1      -5.940   7.266  -2.824  0.00  0.00    -0.288 N 
ATOM      5  C   UNL     1      -7.256   6.742  -2.416  0.00  0.00    +0.109 C 
ATOM      6  C   UNL     1      -8.249   7.898  -2.707  0.00  0.00    +0.021 C 
ATOM      7  C   UNL     1      -7.666   8.482  -4.021  0.00  0.00    +0.033 C 
ATOM      8  C   UNL     1      -6.144   8.324  -3.824  0.00  0.00    +0.162 C 
BRANCH   8   9
ATOM      9  C   UNL     1      -5.497   7.929  -5.127  0.00  0.00    +0.231 C 
ATOM     10  O   UNL     1      -4.919   6.867  -5.219  0.00  0.00    -0.274 OA
ATOM     11  N   UNL     1      -5.560   8.757  -6.189  0.00  0.00    -0.328 N 
ATOM     12  H   UNL     1      -6.023   9.606  -6.115  0.00  0.00    +0.145 HD
ATOM     13  H   UNL     1      -5.144   8.502  -7.027  0.00  0.00    +0.145 HD
ENDBRANCH   8   9
ENDBRANCH   1   2
BRANCH   1  14
ATOM     14  N   UNL     1      -3.315   5.148  -1.377  0.00  0.00    -0.302 N 
ATOM     15  C   UNL     1      -3.101   3.852  -1.079  0.00  0.00    +0.234 C 
ATOM     16  O   UNL     1      -4.030   3.144  -0.750  0.00  0.00    -0.274 OA
ATOM     17  H   UNL     1      -2.565   5.731  -1.572  0.00  0.00    +0.150 HD
BRANCH  15  18
ATOM     18  C   UNL     1      -1.708   3.281  -1.154  0.00  0.00    +0.165 C 
BRANCH  18  19
ATOM     19  N   UNL     1      -1.782   1.850  -1.456  0.00  0.00    -0.270 N 
ATOM     20  C   UNL     1      -0.745   1.233  -2.056  0.00  0.00    +0.401 C 
ATOM     21  O   UNL     1       0.250   1.865  -2.351  0.00  0.00    -0.226 OA
ATOM     22  H   UNL     1      -2.578   1.345  -1.224  0.00  0.00    +0.153 HD
BRANCH  20  23
ATOM     23  O   UNL     1      -0.813  -0.083  -2.334  0.00  0.00    -0.445 OA
BRANCH  23  24
ATOM     24  C   UNL     1       0.338  -0.679  -2.987  0.00  0.00    +0.107 C 
ATOM     25  C   UNL     1       1.572  -0.510  -2.098  0.00  0.00    +0.055 C 
ATOM     26  C   UNL     1       0.078  -2.169  -3.220  0.00  0.00    +0.055 C 
ATOM     27  C   UNL     1       0.579   0.013  -4.330  0.00  0.00    +0.055 C 
ENDBRANCH  23  24
ENDBRANCH  20  23
ENDBRANCH  18  19
BRANCH  18  28
ATOM     28  C   UNL     1      -1.002   3.483   0.188  0.00  0.00    +0.012 C 
ATOM     29  C   UNL     1       0.376   2.819   0.144  0.00  0.00    +0.009 C 
ATOM     30  C   UNL     1      -0.839   4.980   0.459  0.00  0.00    +0.009 C 
ENDBRANCH  18  28
ENDBRANCH  15  18
ENDBRANCH   1  14
BRANCH   1  31
ATOM     31  C   UNL     1      -5.078   6.143  -0.005  0.00  0.00    +0.034 C 
BRANCH  31  33
ATOM     32  C   UNL     1      -4.247   8.495  -0.153  0.00  0.00    +0.007 C 
ATOM     33  C   UNL     1      -4.037   7.136   0.517  0.00  0.00    -0.015 C 
ATOM     34  C   UNL     1      -4.190   7.285   2.032  0.00  0.00    +0.007 C 
ENDBRANCH  31  33
ENDBRANCH   1  31
TORSDOF 10
