REMARK  Name = ZINC20602358
REMARK  7 active torsions:
REMARK  status: ('A' for Active; 'I' for Inactive)
REMARK    1  A    between atoms: C_1  and  C_2
REMARK    2  A    between atoms: C_14  and  C_15
REMARK    3  A    between atoms: C_18  and  O_23
REMARK    4  A    between atoms: C_19  and  O_21
REMARK    5  A    between atoms: O_21  and  C_22
REMARK    6  A    between atoms: O_23  and  C_24
REMARK    7  A    between atoms: C_24  and  C_25
REMARK                            x       y       z     vdW  Elec       q    Type
REMARK                         _______ _______ _______ _____ _____    ______ ____
ROOT
ATOM      1  C   UNL     1      -2.218   0.292   0.612  0.00  0.00    -0.019 A 
ATOM      2  C   UNL     1      -1.109  -0.492   0.270  0.00  0.00    +0.012 A 
ATOM      3  C   UNL     1      -1.151  -1.857   0.449  0.00  0.00    +0.050 A 
ATOM      4  C   UNL     1      -2.290  -2.459   0.968  0.00  0.00    +0.163 A 
ATOM      5  C   UNL     1      -3.398  -1.685   1.311  0.00  0.00    +0.162 A 
ATOM      6  C   UNL     1      -3.364  -0.315   1.140  0.00  0.00    +0.057 A 
ENDROOT
BRANCH   1  20
ATOM      7  C   UNL     1      -0.923   5.941  -0.370  0.00  0.00    +0.110 C 
ATOM      8  C   UNL     1      -1.574   4.606  -0.109  0.00  0.00    +0.221 C 
ATOM      9  O   UNL     1      -2.208   4.430   0.909  0.00  0.00    -0.275 OA
ATOM     10  N   UNL     1      -1.450   3.609  -1.007  0.00  0.00    -0.236 N 
ATOM     11  C   UNL     1      -1.026   3.773  -2.320  0.00  0.00    +0.052 A 
ATOM     12  C   UNL     1      -0.641   4.908  -3.026  0.00  0.00    +0.024 A 
ATOM     13  C   UNL     1      -0.255   4.805  -4.346  0.00  0.00    +0.002 A 
ATOM     14  C   UNL     1      -0.245   3.575  -4.985  0.00  0.00    +0.001 A 
ATOM     15  C   UNL     1      -0.624   2.438  -4.304  0.00  0.00    +0.013 A 
ATOM     16  C   UNL     1      -1.016   2.529  -2.968  0.00  0.00    +0.045 A 
ATOM     17  C   UNL     1      -1.465   1.521  -1.988  0.00  0.00    +0.209 C 
ATOM     18  O   UNL     1      -1.591   0.323  -2.168  0.00  0.00    -0.285 OA
ATOM     19  C   UNL     1      -1.735   2.268  -0.752  0.00  0.00    +0.089 C 
ATOM     20  C   UNL     1      -2.176   1.747   0.423  0.00  0.00    +0.035 C 
ENDBRANCH   1  20
BRANCH   5  21
ATOM     21  O   UNL     1      -4.511  -2.279   1.819  0.00  0.00    -0.491 OA
ATOM     22  C   UNL     1      -5.609  -1.426   2.148  0.00  0.00    +0.277 C 
ENDBRANCH   5  21
BRANCH   4  23
ATOM     23  O   UNL     1      -2.324  -3.805   1.143  0.00  0.00    -0.479 OA
BRANCH  23  24
ATOM     24  C   UNL     1      -1.155  -4.538   0.772  0.00  0.00    +0.324 C 
BRANCH  24  25
ATOM     25  C   UNL     1      -1.376  -6.005   1.035  0.00  0.00    +0.248 C 
ATOM     26  O   UNL     1      -2.432  -6.386   1.495  0.00  0.00    -0.272 OA
ATOM     27  N   UNL     1      -0.402  -6.894   0.759  0.00  0.00    -0.327 N 
ATOM     28  H   UNL     1      -0.563  -7.965   0.951  0.00  0.00    +0.145 HD
ATOM     29  H   UNL     1       0.556  -6.548   0.342  0.00  0.00    +0.145 HD
ENDBRANCH  24  25
ENDBRANCH  23  24
ENDBRANCH   4  23
TORSDOF 5
