REMARK  Name = ZINC67313022
REMARK  8 active torsions:
REMARK  status: ('A' for Active; 'I' for Inactive)
REMARK    1  A    between atoms: C_1  and  C_2
REMARK    2  A    between atoms: C_5  and  N_11
REMARK    3  A    between atoms: C_7  and  C_8
REMARK    4  A    between atoms: N_14  and  C_15
REMARK    5  A    between atoms: N_14  and  C_16
REMARK    6  A    between atoms: C_16  and  C_18
REMARK    7  A    between atoms: C_16  and  C_19
REMARK    8  A    between atoms: C_22  and  N_25
REMARK                            x       y       z     vdW  Elec       q    Type
REMARK                         _______ _______ _______ _____ _____    ______ ____
ROOT
ATOM      1  N   UNL     1      -0.055  -3.353   0.268  0.00  0.00    -0.269 N 
ATOM      2  C   UNL     1      -0.090  -4.118  -0.841  0.00  0.00    +0.307 C 
ATOM      3  O   UNL     1      -0.324  -3.612  -1.921  0.00  0.00    -0.252 OA
ATOM      4  N   UNL     1       0.133  -5.444  -0.751  0.00  0.00    -0.282 N 
ATOM      5  C   UNL     1       0.414  -6.054   0.551  0.00  0.00    +0.134 C 
ATOM      6  H   UNL     1       0.057  -3.765   1.139  0.00  0.00    +0.156 HD
ENDROOT
BRANCH   1  11
ATOM      7  C   UNL     1      -0.533   2.296  -0.137  0.00  0.00    +0.044 C 
ATOM      8  C   UNL     1      -0.408   0.798  -0.032  0.00  0.00    -0.038 A 
ATOM      9  C   UNL     1       0.417   0.239   0.923  0.00  0.00    +0.006 A 
ATOM     10  C   UNL     1       0.535  -1.135   1.023  0.00  0.00    +0.023 A 
ATOM     11  C   UNL     1      -0.178  -1.962   0.163  0.00  0.00    +0.036 A 
ATOM     12  C   UNL     1      -1.010  -1.411  -0.798  0.00  0.00    +0.036 A 
ATOM     13  C   UNL     1      -1.133  -0.025  -0.896  0.00  0.00    +0.041 A 
BRANCH  13  14
ATOM     14  C   UNL     1      -2.023   0.571  -1.915  0.00  0.00    +0.242 C 
ATOM     15  O   UNL     1      -2.082   1.778  -2.039  0.00  0.00    -0.270 OA
ATOM     16  N   UNL     1      -2.768  -0.225  -2.708  0.00  0.00    -0.325 N 
ATOM     17  H   UNL     1      -2.720  -1.189  -2.609  0.00  0.00    +0.145 HD
ATOM     18  H   UNL     1      -3.351   0.166  -3.377  0.00  0.00    +0.145 HD
ENDBRANCH  13  14
ENDBRANCH   1  11
BRANCH   4  19
ATOM     19  C   UNL     1       0.093  -6.276  -1.957  0.00  0.00    +0.104 C 
ATOM     20  C   UNL     1       1.392  -7.078  -2.065  0.00  0.00    +0.033 C 
BRANCH  19  21
ATOM     21  C   UNL     1      -1.076  -7.223  -1.876  0.00  0.00    -0.027 A 
ATOM     22  C   UNL     1      -2.007  -7.259  -2.898  0.00  0.00    +0.007 A 
ATOM     23  C   UNL     1      -3.079  -8.126  -2.827  0.00  0.00    +0.028 A 
ATOM     24  C   UNL     1      -3.223  -8.962  -1.728  0.00  0.00    +0.067 A 
ATOM     25  C   UNL     1      -2.288  -8.923  -0.703  0.00  0.00    +0.028 A 
ATOM     26  C   UNL     1      -1.214  -8.058  -0.782  0.00  0.00    +0.007 A 
BRANCH  24  27
ATOM     27  N   UNL     1      -4.312  -9.842  -1.653  0.00  0.00    -0.220 N 
ATOM     28  C   UNL     1      -4.586 -10.704  -0.654  0.00  0.00    +0.225 A 
ATOM     29  N   UNL     1      -5.686 -11.344  -0.961  0.00  0.00    -0.222 NA
ATOM     30  C   UNL     1      -6.140 -10.921  -2.141  0.00  0.00    +0.245 A 
ATOM     31  N   UNL     1      -5.336  -9.998  -2.601  0.00  0.00    -0.154 NA
ENDBRANCH  24  27
ENDBRANCH  19  21
ENDBRANCH   4  19
TORSDOF 5
