REMARK  Name = ZINC20709722
REMARK  7 active torsions:
REMARK  status: ('A' for Active; 'I' for Inactive)
REMARK    1  A    between atoms: C_1  and  C_2
REMARK    2  A    between atoms: C_2  and  C_3
REMARK    3  A    between atoms: C_2  and  N_4
REMARK    4  A    between atoms: C_5  and  C_7
REMARK    5  A    between atoms: C_14  and  C_23
REMARK    6  A    between atoms: C_25  and  N_30
REMARK    7  A    between atoms: C_28  and  O_29
REMARK                            x       y       z     vdW  Elec       q    Type
REMARK                         _______ _______ _______ _____ _____    ______ ____
ROOT
ATOM      1  C   UNL     1      -1.423   6.659   1.713  0.00  0.00    +0.058 A 
ATOM      2  C   UNL     1      -2.805   6.609   1.877  0.00  0.00    +0.015 A 
ATOM      3  C   UNL     1      -3.511   5.503   1.456  0.00  0.00    +0.001 A 
ATOM      4  C   UNL     1      -2.844   4.444   0.863  0.00  0.00    +0.006 A 
ATOM      5  C   UNL     1      -1.478   4.479   0.687  0.00  0.00    -0.019 A 
ATOM      6  C   UNL     1      -0.734   5.583   1.116  0.00  0.00    +0.044 A 
ATOM      7  N   UNL     1       0.641   5.689   0.997  0.00  0.00    -0.336 N 
ATOM      8  C   UNL     1       1.335   4.597   0.294  0.00  0.00    +0.108 C 
ATOM      9  C   UNL     1       0.659   3.305   0.704  0.00  0.00    +0.029 C 
ATOM     10  C   UNL     1      -0.749   3.369   0.034  0.00  0.00    +0.049 C 
ATOM     11  C   UNL     1      -1.214   1.962   0.089  0.00  0.00    -0.023 C 
ATOM     12  C   UNL     1      -0.150   1.165   0.077  0.00  0.00    -0.030 C 
ATOM     13  C   UNL     1       1.129   2.005   0.042  0.00  0.00    +0.033 C 
ATOM     14  H   UNL     1       1.215   6.537   1.397  0.00  0.00    +0.147 HD
ENDROOT
BRANCH   8  15
ATOM     15  C   UNL     1       1.219   4.788  -1.196  0.00  0.00    +0.017 A 
ATOM     16  C   UNL     1       0.166   5.512  -1.721  0.00  0.00    +0.041 A 
ATOM     17  C   UNL     1       0.063   5.692  -3.088  0.00  0.00    +0.127 A 
ATOM     18  C   UNL     1       1.007   5.139  -3.934  0.00  0.00    +0.036 A 
ATOM     19  C   UNL     1       2.058   4.410  -3.414  0.00  0.00    +0.048 A 
ATOM     20  C   UNL     1       2.167   4.232  -2.042  0.00  0.00    +0.122 A 
BRANCH  17  21
ATOM     21  N   UNL     1      -1.064   6.472  -3.647  0.00  0.00    +0.056 N 
ATOM     22  O   UNL     1      -1.159   6.627  -4.851  0.00  0.00    -0.126 OA
ATOM     23  O   UNL     1      -1.896   6.959  -2.903  0.00  0.00    -0.126 OA
ENDBRANCH  17  21
BRANCH  20  24
ATOM     24  O   UNL     1       3.202   3.516  -1.529  0.00  0.00    -0.506 OA
ATOM     25  H   UNL     1       3.953   3.076  -2.201  0.00  0.00    +0.292 HD
ENDBRANCH  20  24
ENDBRANCH   8  15
BRANCH   1  27
ATOM     26  N   UNL     1      -1.327   8.877   2.737  0.00  0.00    -0.309 N 
ATOM     27  C   UNL     1      -0.674   7.845   2.167  0.00  0.00    +0.246 C 
ATOM     28  O   UNL     1       0.533   7.893   2.026  0.00  0.00    -0.270 OA
ATOM     29  H   UNL     1      -2.419   8.834   2.865  0.00  0.00    +0.149 HD
BRANCH  26  31
ATOM     30  C   UNL     1      -0.392  11.018   2.014  0.00  0.00    +0.027 C 
ATOM     31  C   UNL     1      -0.583  10.056   3.189  0.00  0.00    +0.067 C 
ATOM     32  C   UNL     1      -1.365  10.757   4.301  0.00  0.00    +0.027 C 
ENDBRANCH  26  31
ENDBRANCH   1  27
TORSDOF 5
