REMARK  Name = ZINC24584701
REMARK  12 active torsions:
REMARK  status: ('A' for Active; 'I' for Inactive)
REMARK    1  A    between atoms: C_1  and  C_2
REMARK    2  A    between atoms: C_3  and  S_8
REMARK    3  A    between atoms: C_4  and  C_7
REMARK    4  A    between atoms: S_8  and  N_11
REMARK    5  A    between atoms: N_15  and  C_18
REMARK    6  A    between atoms: C_18  and  C_20
REMARK    7  A    between atoms: C_18  and  C_21
REMARK    8  A    between atoms: N_23  and  C_24
REMARK    9  A    between atoms: C_24  and  C_25
REMARK   10  A    between atoms: C_25  and  C_26
REMARK   11  A    between atoms: C_29  and  O_32
REMARK   12  A    between atoms: O_32  and  C_33
REMARK                            x       y       z     vdW  Elec       q    Type
REMARK                         _______ _______ _______ _____ _____    ______ ____
ROOT
ATOM      1  N   UNL     1      -0.646   1.531  -1.202  0.00  0.00    -0.178 NA
ATOM      2  C   UNL     1      -0.013   1.086   0.008  0.00  0.00    +0.107 C 
ATOM      3  C   UNL     1      -0.670   1.552   1.331  0.00  0.00    -0.001 C 
ATOM      4  C   UNL     1      -1.097   3.034   1.209  0.00  0.00    -0.076 C 
ATOM      5  N   UNL     1      -0.117   3.779   0.462  0.00  0.00    +0.388 N 
ATOM      6  C   UNL     1      -0.646   3.897  -0.895  0.00  0.00    -0.060 C 
ATOM      7  C   UNL     1      -0.212   2.834  -1.810  0.00  0.00    +0.091 C 
ATOM      8  H   UNL     1       0.851   3.255   0.473  0.00  0.00    -0.081 HD
ENDROOT
BRANCH   1   9
ATOM      9  S   UNL     1      -1.833   0.623  -1.914  0.00  0.00    +0.066 S 
ATOM     10  O   UNL     1      -1.853   0.987  -3.288  0.00  0.00    -0.153 OA
ATOM     11  O   UNL     1      -1.633  -0.717  -1.484  0.00  0.00    -0.153 OA
BRANCH   9  14
ATOM     12  C   UNL     1      -4.012   3.046  -2.907  0.00  0.00    +0.071 C 
ATOM     13  C   UNL     1      -4.229   2.168  -1.701  0.00  0.00    +0.107 A 
ATOM     14  C   UNL     1      -3.370   1.147  -1.232  0.00  0.00    +0.170 A 
ATOM     15  C   UNL     1      -4.006   0.661  -0.139  0.00  0.00    +0.161 A 
ATOM     16  O   UNL     1      -5.136   1.372  -0.010  0.00  0.00    -0.358 OA
ATOM     17  N   UNL     1      -5.242   2.199  -0.885  0.00  0.00    -0.081 NA
ATOM     18  C   UNL     1      -3.537  -0.456   0.756  0.00  0.00    +0.091 C 
ENDBRANCH   9  14
ENDBRANCH   1   9
BRANCH   5  19
ATOM     19  C   UNL     1       0.105   5.104   1.058  0.00  0.00    +0.016 C 
ATOM     20  C   UNL     1      -1.244   5.767   1.343  0.00  0.00    -0.004 C 
BRANCH  19  21
ATOM     21  C   UNL     1       0.873   4.953   2.346  0.00  0.00    +0.199 C 
ATOM     22  O   UNL     1       1.203   3.851   2.730  0.00  0.00    -0.278 OA
ATOM     23  N   UNL     1       1.192   6.043   3.071  0.00  0.00    -0.316 N 
ATOM     24  H   UNL     1       0.893   7.043   2.723  0.00  0.00    +0.149 HD
BRANCH  23  25
ATOM     25  C   UNL     1       1.939   5.896   4.323  0.00  0.00    +0.109 C 
BRANCH  25  26
ATOM     26  C   UNL     1       2.169   7.276   4.944  0.00  0.00    +0.054 C 
BRANCH  26  27
ATOM     27  C   UNL     1       2.937   7.125   6.232  0.00  0.00    -0.046 A 
ATOM     28  C   UNL     1       2.258   6.963   7.425  0.00  0.00    +0.007 A 
ATOM     29  C   UNL     1       2.959   6.819   8.606  0.00  0.00    +0.046 A 
ATOM     30  C   UNL     1       4.346   6.849   8.596  0.00  0.00    +0.120 A 
ATOM     31  C   UNL     1       5.025   7.017   7.398  0.00  0.00    +0.046 A 
ATOM     32  C   UNL     1       4.319   7.155   6.219  0.00  0.00    +0.007 A 
BRANCH  30  33
ATOM     33  O   UNL     1       5.039   6.713   9.758  0.00  0.00    -0.495 OA
ATOM     34  C   UNL     1       4.274   6.543  10.953  0.00  0.00    +0.277 C 
ENDBRANCH  30  33
ENDBRANCH  26  27
ENDBRANCH  25  26
ENDBRANCH  23  25
ENDBRANCH  19  21
ENDBRANCH   5  19
TORSDOF 8
