REMARK  Name = ZINC01821903
REMARK  6 active torsions:
REMARK  status: ('A' for Active; 'I' for Inactive)
REMARK    1  A    between atoms: C_1  and  C_2
REMARK    2  A    between atoms: C_5  and  C_8
REMARK    3  A    between atoms: C_9  and  C_19
REMARK    4  A    between atoms: N_21  and  N_22
REMARK    5  A    between atoms: C_23  and  C_24
REMARK    6  A    between atoms: C_29  and  O_30
REMARK                            x       y       z     vdW  Elec       q    Type
REMARK                         _______ _______ _______ _____ _____    ______ ____
ROOT
ATOM      1  C   UNL     1       0.058  -4.250  -0.021  0.00  0.00    +0.109 A 
ATOM      2  C   UNL     1      -0.717  -5.091  -0.812  0.00  0.00    +0.177 A 
ATOM      3  N   UNL     1      -0.395  -6.360  -0.513  0.00  0.00    -0.124 NA
ATOM      4  N   UNL     1       0.515  -6.382   0.396  0.00  0.00    -0.058 NA
ATOM      5  N   UNL     1       0.845  -5.065   0.743  0.00  0.00    -0.187 N 
ATOM      6  C   UNL     1       1.793  -4.663   1.688  0.00  0.00    +0.241 A 
ATOM      7  C   UNL     1       2.632  -5.554   2.494  0.00  0.00    +0.206 A 
ATOM      8  N   UNL     1       3.391  -4.821   3.261  0.00  0.00    -0.032 NA
ATOM      9  O   UNL     1       3.090  -3.462   2.998  0.00  0.00    -0.239 OA
ATOM     10  N   UNL     1       2.086  -3.432   2.000  0.00  0.00    -0.027 NA
ATOM     11  N   UNL     1       2.621  -6.944   2.450  0.00  0.00    -0.337 N 
ATOM     12  H   UNL     1       2.019  -7.405   1.845  0.00  0.00    +0.144 HD
ATOM     13  H   UNL     1       3.215  -7.452   3.023  0.00  0.00    +0.144 HD
ENDROOT
BRANCH   1  18
ATOM     14  C   UNL     1      -0.018   1.503   0.010  0.00  0.00    +0.044 C 
ATOM     15  C   UNL     1       0.002  -0.004   0.002  0.00  0.00    -0.050 A 
ATOM     16  C   UNL     1       0.006  -0.686  -1.202  0.00  0.00    +0.004 A 
ATOM     17  C   UNL     1       0.024  -2.065  -1.217  0.00  0.00    +0.010 A 
ATOM     18  C   UNL     1       0.039  -2.773  -0.013  0.00  0.00    +0.003 A 
ATOM     19  C   UNL     1       0.036  -2.079   1.198  0.00  0.00    +0.010 A 
ATOM     20  C   UNL     1       0.023  -0.699   1.198  0.00  0.00    +0.004 A 
ENDBRANCH   1  18
BRANCH   2  21
ATOM     21  C   UNL     1      -1.717  -4.664  -1.804  0.00  0.00    +0.286 C 
ATOM     22  O   UNL     1      -1.924  -3.480  -1.989  0.00  0.00    -0.267 OA
ATOM     23  N   UNL     1      -2.403  -5.586  -2.509  0.00  0.00    -0.202 N 
ATOM     24  H   UNL     1      -2.238  -6.531  -2.361  0.00  0.00    +0.178 HD
BRANCH  23  25
ATOM     25  N   UNL     1      -3.355  -5.180  -3.453  0.00  0.00    -0.187 NA
ATOM     26  C   UNL     1      -4.017  -6.068  -4.131  0.00  0.00    +0.142 C 
BRANCH  26  27
ATOM     27  C   UNL     1      -5.018  -5.641  -5.124  0.00  0.00    +0.036 A 
ATOM     28  C   UNL     1      -5.736  -6.593  -5.852  0.00  0.00    +0.013 A 
ATOM     29  C   UNL     1      -6.672  -6.187  -6.780  0.00  0.00    +0.001 A 
ATOM     30  C   UNL     1      -6.903  -4.839  -6.994  0.00  0.00    +0.004 A 
ATOM     31  C   UNL     1      -6.199  -3.887  -6.280  0.00  0.00    +0.046 A 
ATOM     32  C   UNL     1      -5.259  -4.277  -5.340  0.00  0.00    +0.125 A 
BRANCH  32  33
ATOM     33  O   UNL     1      -4.571  -3.343  -4.635  0.00  0.00    -0.506 OA
ATOM     34  H   UNL     1      -3.748  -3.061  -5.055  0.00  0.00    +0.292 HD
ENDBRANCH  32  33
ENDBRANCH  26  27
ENDBRANCH  23  25
ENDBRANCH   2  21
TORSDOF 5
