REMARK  Name = ZINC39981170
REMARK  4 active torsions:
REMARK  status: ('A' for Active; 'I' for Inactive)
REMARK    1  A    between atoms: C_14  and  S_16
REMARK    2  A    between atoms: S_16  and  C_17
REMARK    3  A    between atoms: C_17  and  C_18
REMARK    4  A    between atoms: N_20  and  C_21
REMARK                            x       y       z     vdW  Elec       q    Type
REMARK                         _______ _______ _______ _____ _____    ______ ____
ROOT
ATOM      1  C   UNL     1      -0.017   1.399   0.010  0.00  0.00    +0.017 A 
ATOM      2  C   UNL     1       1.123   2.126   0.003  0.00  0.00    +0.027 A 
ATOM      3  C   UNL     1       2.417   1.432  -0.013  0.00  0.00    +0.046 A 
ATOM      4  N   UNL     1       3.649   1.881   0.009  0.00  0.00    -0.358 N 
ATOM      5  C   UNL     1       4.559   0.760  -0.149  0.00  0.00    +0.252 C 
ATOM      6  C   UNL     1       3.707  -0.489  -0.007  0.00  0.00    +0.117 C 
ATOM      7  C   UNL     1       2.404  -0.053  -0.009  0.00  0.00    +0.026 A 
ATOM      8  C   UNL     1       1.155  -0.714  -0.007  0.00  0.00    +0.027 A 
ATOM      9  C   UNL     1       0.002  -0.004   0.002  0.00  0.00    +0.019 A 
ATOM     10 BR   UNL     1      -1.643  -0.937   0.005  0.00  0.00    -0.050 Br
ATOM     11  N   UNL     1       4.249  -1.688   0.216  0.00  0.00    -0.147 NA
ATOM     12  N   UNL     1       5.397  -1.678   0.824  0.00  0.00    -0.122 NA
ATOM     13  C   UNL     1       5.971  -0.531   1.261  0.00  0.00    +0.208 C 
ATOM     14  N   UNL     1       5.604   0.668   0.869  0.00  0.00    -0.227 NA
ATOM     15  H   UNL     1       3.909   2.809   0.114  0.00  0.00    +0.162 HD
ENDROOT
BRANCH  13  16
ATOM     16  S   UNL     1       7.292  -0.654   2.421  0.00  0.00    -0.075 S 
BRANCH  16  17
ATOM     17  C   UNL     1       7.762   1.070   2.735  0.00  0.00    +0.173 C 
BRANCH  17  18
ATOM     18  C   UNL     1       8.898   1.108   3.724  0.00  0.00    +0.224 C 
ATOM     19  O   UNL     1       9.347   0.074   4.173  0.00  0.00    -0.275 OA
ATOM     20  N   UNL     1       9.416   2.291   4.111  0.00  0.00    -0.312 N 
ATOM     21  H   UNL     1       9.057   3.117   3.752  0.00  0.00    +0.149 HD
BRANCH  20  22
ATOM     22  C   UNL     1      10.521   2.328   5.072  0.00  0.00    +0.073 C 
ATOM     23  C   UNL     1       9.960   2.275   6.495  0.00  0.00    +0.022 C 
ATOM     24  C   UNL     1      11.113   2.314   7.500  0.00  0.00    +0.002 C 
ATOM     25  C   UNL     1      11.909   3.607   7.313  0.00  0.00    +0.000 C 
ATOM     26  C   UNL     1      12.470   3.660   5.890  0.00  0.00    +0.002 C 
ATOM     27  C   UNL     1      11.316   3.621   4.886  0.00  0.00    +0.022 C 
ENDBRANCH  20  22
ENDBRANCH  17  18
ENDBRANCH  16  17
ENDBRANCH  13  16
TORSDOF 4
