REMARK  Name = ZINC66161986
REMARK  11 active torsions:
REMARK  status: ('A' for Active; 'I' for Inactive)
REMARK    1  A    between atoms: C_1  and  C_2
REMARK    2  A    between atoms: C_2  and  C_3
REMARK    3  A    between atoms: C_3  and  C_4
REMARK    4  A    between atoms: C_3  and  C_5
REMARK    5  A    between atoms: C_3  and  O_26
REMARK    6  A    between atoms: C_5  and  N_6
REMARK    7  A    between atoms: N_9  and  C_10
REMARK    8  A    between atoms: C_12  and  C_18
REMARK    9  A    between atoms: C_15  and  C_16
REMARK   10  A    between atoms: N_20  and  C_21
REMARK   11  A    between atoms: C_21  and  C_22
REMARK                            x       y       z     vdW  Elec       q    Type
REMARK                         _______ _______ _______ _____ _____    ______ ____
ROOT
ATOM      1  C   UNL     1      -4.449  -5.747  -0.349  0.00  0.00    +0.041 A 
ATOM      2  C   UNL     1      -3.357  -6.597  -0.256  0.00  0.00    +0.036 A 
ATOM      3  C   UNL     1      -3.538  -7.975  -0.371  0.00  0.00    +0.041 A 
ATOM      4  C   UNL     1      -4.818  -8.491  -0.580  0.00  0.00    +0.051 A 
ATOM      5  C   UNL     1      -5.901  -7.637  -0.672  0.00  0.00    +0.129 A 
ATOM      6  C   UNL     1      -5.720  -6.269  -0.551  0.00  0.00    +0.006 A 
ATOM      7  C   UNL     1      -6.906  -5.344  -0.645  0.00  0.00    +0.048 C 
ATOM      8  F   UNL     1      -7.139  -8.137  -0.875  0.00  0.00    -0.205 F 
ENDROOT
BRANCH   1  12
ATOM      9  N   UNL     1      -2.976  -2.548   0.456  0.00  0.00    -0.296 N 
ATOM     10  C   UNL     1      -3.211  -3.875   0.440  0.00  0.00    +0.304 C 
ATOM     11  O   UNL     1      -2.466  -4.631   1.033  0.00  0.00    -0.253 OA
ATOM     12  N   UNL     1      -4.271  -4.364  -0.233  0.00  0.00    -0.269 N 
ATOM     13  H   UNL     1      -3.571  -1.944  -0.017  0.00  0.00    +0.150 HD
ATOM     14  H   UNL     1      -4.911  -3.757  -0.637  0.00  0.00    +0.156 HD
BRANCH   9  15
ATOM     15  C   UNL     1      -1.824  -2.016   1.187  0.00  0.00    +0.140 C 
BRANCH  15  16
ATOM     16  C   UNL     1      -1.788  -0.493   1.046  0.00  0.00    +0.078 C 
ATOM     17  C   UNL     1      -1.795  -0.118  -0.438  0.00  0.00    +0.043 C 
BRANCH  16  19
ATOM     18  C   UNL     1      -0.482   1.574   1.562  0.00  0.00    +0.007 C 
ATOM     19  C   UNL     1      -0.518   0.051   1.704  0.00  0.00    +0.032 C 
ENDBRANCH  16  19
BRANCH  16  20
ATOM     20  O   UNL     1      -2.935   0.072   1.685  0.00  0.00    -0.387 OA
ATOM     21  H   UNL     1      -2.996  -0.126   2.630  0.00  0.00    +0.210 HD
ENDBRANCH  16  20
ENDBRANCH  15  16
ENDBRANCH   9  15
ENDBRANCH   1  12
BRANCH   3  22
ATOM     22  C   UNL     1      -2.378  -8.886  -0.273  0.00  0.00    +0.244 C 
ATOM     23  O   UNL     1      -1.264  -8.434  -0.092  0.00  0.00    -0.270 OA
ATOM     24  N   UNL     1      -2.555 -10.217  -0.386  0.00  0.00    -0.303 N 
ATOM     25  H   UNL     1      -3.444 -10.578  -0.530  0.00  0.00    +0.149 HD
BRANCH  24  26
ATOM     26  C   UNL     1      -1.406 -11.120  -0.288  0.00  0.00    +0.217 C 
BRANCH  26  27
ATOM     27  C   UNL     1      -1.878 -12.566  -0.448  0.00  0.00    +0.405 C 
ATOM     28  F   UNL     1      -2.489 -12.722  -1.697  0.00  0.00    -0.169 F 
ATOM     29  F   UNL     1      -0.780 -13.429  -0.356  0.00  0.00    -0.169 F 
ATOM     30  F   UNL     1      -2.797 -12.871   0.562  0.00  0.00    -0.169 F 
ENDBRANCH  26  27
ENDBRANCH  24  26
ENDBRANCH   3  22
TORSDOF 8
