REMARK  Name = ZINC14273313
REMARK  11 active torsions:
REMARK  status: ('A' for Active; 'I' for Inactive)
REMARK    1  A    between atoms: C_1  and  C_2
REMARK    2  A    between atoms: C_2  and  O_3
REMARK    3  A    between atoms: O_3  and  C_4
REMARK    4  A    between atoms: C_7  and  C_13
REMARK    5  A    between atoms: C_9  and  N_10
REMARK    6  A    between atoms: N_15  and  C_16
REMARK    7  A    between atoms: C_17  and  C_30
REMARK    8  A    between atoms: C_22  and  C_26
REMARK    9  A    between atoms: C_26  and  C_27
REMARK   10  A    between atoms: C_26  and  C_28
REMARK   11  A    between atoms: C_26  and  C_29
REMARK                            x       y       z     vdW  Elec       q    Type
REMARK                         _______ _______ _______ _____ _____    ______ ____
ROOT
ATOM      1  C   UNL     1      -3.671   2.106   0.031  0.00  0.00    +0.085 A 
ATOM      2  C   UNL     1      -4.955   1.580   0.028  0.00  0.00    +0.068 A 
ATOM      3  C   UNL     1      -6.065   2.518   0.045  0.00  0.00    -0.023 A 
ATOM      4  C   UNL     1      -5.715   3.823   0.050  0.00  0.00    -0.004 A 
ATOM      5  S   UNL     1      -3.945   3.817   0.041  0.00  0.00    -0.077 S 
ATOM      6  C   UNL     1      -6.635   5.005   0.062  0.00  0.00    +0.046 C 
ATOM      7  C   UNL     1      -8.040   4.519   0.447  0.00  0.00    -0.000 C 
ATOM      8  C   UNL     1      -8.384   3.287  -0.395  0.00  0.00    +0.009 C 
ATOM      9  C   UNL     1      -7.529   2.098   0.050  0.00  0.00    +0.037 C 
ENDROOT
BRANCH   2  10
ATOM     10  C   UNL     1      -5.184   0.132   0.014  0.00  0.00    +0.244 C 
ATOM     11  O   UNL     1      -5.277  -0.480   1.062  0.00  0.00    -0.270 OA
ATOM     12  N   UNL     1      -5.291  -0.521  -1.160  0.00  0.00    -0.325 N 
ATOM     13  H   UNL     1      -5.217  -0.034  -1.995  0.00  0.00    +0.145 HD
ATOM     14  H   UNL     1      -5.442  -1.480  -1.169  0.00  0.00    +0.145 HD
ENDBRANCH   2  10
BRANCH   1  17
ATOM     15  C   UNL     1      -1.303   2.116   0.020  0.00  0.00    +0.249 C 
ATOM     16  O   UNL     1      -1.318   3.332   0.026  0.00  0.00    -0.270 OA
ATOM     17  N   UNL     1      -2.462   1.428   0.021  0.00  0.00    -0.275 N 
ATOM     18  H   UNL     1      -2.451   0.458   0.016  0.00  0.00    +0.156 HD
BRANCH  15  22
ATOM     19  C   UNL     1       2.399   0.037  -0.021  0.00  0.00    +0.151 A 
ATOM     20  C   UNL     1       1.205  -0.674  -0.013  0.00  0.00    +0.049 A 
ATOM     21  C   UNL     1       0.002  -0.004   0.002  0.00  0.00    +0.017 A 
ATOM     22  C   UNL     1      -0.017   1.394   0.010  0.00  0.00    +0.039 A 
ATOM     23  C   UNL     1       1.186   2.105   0.002  0.00  0.00    +0.049 A 
ATOM     24  C   UNL     1       2.385   1.427  -0.013  0.00  0.00    +0.168 A 
BRANCH  24  25
ATOM     25  N   UNL     1       3.659   2.179  -0.023  0.00  0.00    +0.060 N 
ATOM     26  O   UNL     1       3.647   3.397  -0.016  0.00  0.00    -0.126 OA
ATOM     27  O   UNL     1       4.720   1.581  -0.036  0.00  0.00    -0.126 OA
ENDBRANCH  24  25
BRANCH  19  28
ATOM     28  O   UNL     1       3.582  -0.627  -0.035  0.00  0.00    -0.490 OA
BRANCH  28  30
ATOM     29  C   UNL     1       4.945  -2.623  -0.059  0.00  0.00    +0.048 C 
ATOM     30  C   UNL     1       3.525  -2.055  -0.043  0.00  0.00    +0.226 C 
ENDBRANCH  28  30
ENDBRANCH  19  28
ENDBRANCH  15  22
ENDBRANCH   1  17
BRANCH   7  31
ATOM     31  C   UNL     1      -9.059   5.628   0.172  0.00  0.00    -0.035 C 
ATOM     32  C   UNL     1     -10.460   5.135   0.539  0.00  0.00    +0.011 C 
ATOM     33  C   UNL     1      -8.713   6.857   1.014  0.00  0.00    +0.011 C 
ATOM     34  C   UNL     1      -9.021   5.998  -1.312  0.00  0.00    +0.011 C 
ENDBRANCH   7  31
TORSDOF 7
