REMARK  Name = ZINC20756881
REMARK  5 active torsions:
REMARK  status: ('A' for Active; 'I' for Inactive)
REMARK    1  A    between atoms: C_3  and  N_31
REMARK    2  A    between atoms: C_6  and  C_7
REMARK    3  A    between atoms: C_18  and  O_23
REMARK    4  A    between atoms: O_23  and  C_24
REMARK    5  A    between atoms: C_24  and  C_25
REMARK                            x       y       z     vdW  Elec       q    Type
REMARK                         _______ _______ _______ _____ _____    ______ ____
ROOT
ATOM      1  C   UNL     1       1.643  -1.784  -0.362  0.00  0.00    +0.105 C 
ATOM      2  C   UNL     1       1.825  -0.317  -0.709  0.00  0.00    +0.029 C 
ATOM      3  C   UNL     1       3.022   0.409  -0.079  0.00  0.00    +0.033 C 
ATOM      4  C   UNL     1       2.500   1.844   0.009  0.00  0.00    -0.030 C 
ATOM      5  C   UNL     1       1.174   1.843   0.071  0.00  0.00    -0.023 C 
ATOM      6  C   UNL     1       0.701   0.435   0.066  0.00  0.00    +0.049 C 
ATOM      7  C   UNL     1      -0.597   0.050  -0.531  0.00  0.00    -0.016 A 
ATOM      8  C   UNL     1      -1.655   0.927  -0.629  0.00  0.00    +0.051 A 
ATOM      9  C   UNL     1      -2.857   0.514  -1.184  0.00  0.00    +0.121 A 
ATOM     10  C   UNL     1      -2.994  -0.787  -1.645  0.00  0.00    +0.047 A 
ATOM     11  C   UNL     1      -1.936  -1.668  -1.555  0.00  0.00    +0.027 A 
ATOM     12  C   UNL     1      -0.727  -1.261  -1.004  0.00  0.00    +0.032 A 
ATOM     13  N   UNL     1       0.339  -2.171  -0.943  0.00  0.00    -0.336 N 
ATOM     14  H   UNL     1       0.193  -3.188  -1.336  0.00  0.00    +0.147 HD
ENDROOT
BRANCH   1  20
ATOM     15  C   UNL     1       2.802  -2.190   1.819  0.00  0.00    +0.008 A 
ATOM     16  C   UNL     1       2.784  -2.353   3.192  0.00  0.00    +0.033 A 
ATOM     17  C   UNL     1       1.584  -2.303   3.877  0.00  0.00    +0.126 A 
ATOM     18  C   UNL     1       0.404  -2.085   3.191  0.00  0.00    +0.033 A 
ATOM     19  C   UNL     1       0.423  -1.917   1.819  0.00  0.00    +0.008 A 
ATOM     20  C   UNL     1       1.623  -1.967   1.134  0.00  0.00    -0.027 A 
BRANCH  17  21
ATOM     21  N   UNL     1       1.564  -2.483   5.346  0.00  0.00    +0.056 N 
ATOM     22  O   UNL     1       0.507  -2.439   5.951  0.00  0.00    -0.126 OA
ATOM     23  O   UNL     1       2.604  -2.674   5.951  0.00  0.00    -0.126 OA
ENDBRANCH  17  21
ENDBRANCH   1  20
BRANCH   9  24
ATOM     24  O   UNL     1      -3.898   1.384  -1.279  0.00  0.00    -0.489 OA
BRANCH  24  25
ATOM     25  C   UNL     1      -5.105   0.889  -1.863  0.00  0.00    +0.260 C 
BRANCH  25  26
ATOM     26  C   UNL     1      -6.155   2.002  -1.883  0.00  0.00    +0.156 C 
ATOM     27  C   UNL     1      -7.496   1.467  -2.432  0.00  0.00    +0.037 C 
ATOM     28  C   UNL     1      -8.057   2.641  -3.265  0.00  0.00    +0.031 C 
ATOM     29  C   UNL     1      -6.988   3.747  -3.121  0.00  0.00    +0.160 C 
ATOM     30  O   UNL     1      -5.766   3.044  -2.805  0.00  0.00    -0.373 OA
ENDBRANCH  25  26
ENDBRANCH  24  25
ENDBRANCH   9  24
TORSDOF 5
