REMARK  Name = ZINC35564496
REMARK  5 active torsions:
REMARK  status: ('A' for Active; 'I' for Inactive)
REMARK    1  A    between atoms: C_1  and  C_2
REMARK    2  A    between atoms: C_2  and  C_4
REMARK    3  A    between atoms: C_18  and  C_20
REMARK    4  A    between atoms: C_20  and  N_21
REMARK    5  A    between atoms: N_24  and  C_27
REMARK                            x       y       z     vdW  Elec       q    Type
REMARK                         _______ _______ _______ _____ _____    ______ ____
ROOT
ATOM      1  C   UNL     1       2.450   1.115   0.857  0.00  0.00    +0.233 C 
ATOM      2  O   UNL     1       2.289   1.664   1.927  0.00  0.00    -0.274 OA
ATOM      3  N   UNL     1       3.283   0.059   0.761  0.00  0.00    -0.297 N 
ATOM      4  C   UNL     1       3.920  -0.503   1.959  0.00  0.00    +0.127 C 
ATOM      5  C   UNL     1       3.590  -1.998   2.035  0.00  0.00    +0.127 C 
ATOM      6  N   UNL     1       3.875  -2.609   0.729  0.00  0.00    -0.298 N 
ATOM      7  C   UNL     1       3.237  -2.047  -0.470  0.00  0.00    +0.127 C 
ATOM      8  C   UNL     1       3.563  -0.554  -0.545  0.00  0.00    +0.127 C 
ATOM      9  C   UNL     1       4.720  -3.681   0.630  0.00  0.00    +0.198 A 
ATOM     10  N   UNL     1       5.204  -4.257   1.764  0.00  0.00    -0.295 N 
ATOM     11  H   UNL     1       4.950  -3.909   2.633  0.00  0.00    +0.172 HD
ATOM     12  C   UNL     1       6.037  -5.316   1.675  0.00  0.00    +0.253 A 
ATOM     13  O   UNL     1       6.480  -5.845   2.682  0.00  0.00    -0.268 OA
ATOM     14  C   UNL     1       6.385  -5.797   0.401  0.00  0.00    +0.091 A 
ATOM     15  C   UNL     1       5.869  -5.179  -0.701  0.00  0.00    +0.034 A 
ATOM     16  N   UNL     1       5.047  -4.141  -0.561  0.00  0.00    -0.223 NA
ENDROOT
BRANCH   1  18
ATOM     17  C   UNL     1       1.775   3.143  -0.400  0.00  0.00    +0.034 C 
ATOM     18  C   UNL     1       1.721   1.614  -0.364  0.00  0.00    +0.163 C 
ATOM     19 CL   UNL     1       0.002   1.074  -0.299  0.00  0.00    -0.112 Cl
ENDBRANCH   1  18
BRANCH  15  20
ATOM     20  C   UNL     1       6.226  -5.675  -2.078  0.00  0.00    -0.022 C 
BRANCH  20  21
ATOM     21  N   UNL     1       5.022  -6.197  -2.738  0.00  0.00    +0.385 N 
ATOM     22  C   UNL     1       4.066  -5.102  -2.945  0.00  0.00    -0.059 C 
ATOM     23  C   UNL     1       2.765  -5.664  -3.528  0.00  0.00    +0.086 C 
ATOM     24  N   UNL     1       3.090  -6.424  -4.745  0.00  0.00    -0.331 N 
ATOM     25  C   UNL     1       4.157  -7.434  -4.668  0.00  0.00    +0.086 C 
ATOM     26  C   UNL     1       5.392  -6.788  -4.030  0.00  0.00    -0.059 C 
ATOM     27  H   UNL     1       4.600  -6.904  -2.155  0.00  0.00    -0.081 HD
BRANCH  24  28
ATOM     28  C   UNL     1       2.404  -6.193  -5.941  0.00  0.00    +0.065 A 
ATOM     29  C   UNL     1       2.877  -5.249  -6.843  0.00  0.00    +0.026 A 
ATOM     30  C   UNL     1       2.198  -5.023  -8.024  0.00  0.00    +0.002 A 
ATOM     31  C   UNL     1       1.048  -5.735  -8.310  0.00  0.00    +0.003 A 
ATOM     32  C   UNL     1       0.572  -6.676  -7.416  0.00  0.00    +0.040 A 
ATOM     33  C   UNL     1       1.250  -6.912  -6.234  0.00  0.00    +0.144 A 
ATOM     34  F   UNL     1       0.789  -7.835  -5.362  0.00  0.00    -0.204 F 
ENDBRANCH  24  28
ENDBRANCH  20  21
ENDBRANCH  15  20
TORSDOF 4
