REMARK  Name = ZINC03552523
REMARK  9 active torsions:
REMARK  status: ('A' for Active; 'I' for Inactive)
REMARK    1  A    between atoms: C_1  and  C_2
REMARK    2  A    between atoms: C_2  and  C_3
REMARK    3  A    between atoms: C_2  and  C_4
REMARK    4  A    between atoms: C_4  and  C_5
REMARK    5  A    between atoms: C_4  and  C_6
REMARK    6  A    between atoms: C_4  and  N_8
REMARK    7  A    between atoms: C_9  and  C_11
REMARK    8  A    between atoms: C_11  and  S_12
REMARK    9  A    between atoms: S_12  and  C_13
REMARK                            x       y       z     vdW  Elec       q    Type
REMARK                         _______ _______ _______ _____ _____    ______ ____
ROOT
ATOM      1  C   UNL     1       0.017  -0.004   0.178  0.00  0.00    +0.191 A 
ATOM      2  N   UNL     1      -0.002   1.323   0.180  0.00  0.00    -0.207 NA
ATOM      3  C   UNL     1       1.094   2.042   0.003  0.00  0.00    +0.129 A 
ATOM      4  C   UNL     1       2.337   1.377  -0.196  0.00  0.00    +0.051 A 
ATOM      5  C   UNL     1       3.663   1.961  -0.410  0.00  0.00    -0.025 A 
ATOM      6  C   UNL     1       4.690   1.104  -0.573  0.00  0.00    -0.004 A 
ATOM      7  S   UNL     1       3.968  -0.511  -0.456  0.00  0.00    -0.073 S 
ATOM      8  C   UNL     1       2.282  -0.031  -0.186  0.00  0.00    +0.115 A 
ATOM      9  N   UNL     1       1.146  -0.677  -0.003  0.00  0.00    -0.214 NA
ATOM     10  C   UNL     1       6.130   1.446  -0.805  0.00  0.00    +0.043 C 
ATOM     11  C   UNL     1       6.219   2.927  -1.200  0.00  0.00    +0.005 C 
ATOM     12  C   UNL     1       5.378   3.748  -0.218  0.00  0.00    +0.005 C 
ATOM     13  C   UNL     1       3.893   3.469  -0.448  0.00  0.00    +0.037 C 
ATOM     14  N   UNL     1       1.034   3.423   0.011  0.00  0.00    -0.343 N 
ATOM     15  H   UNL     1       0.256   3.873   0.376  0.00  0.00    +0.144 HD
ATOM     16  H   UNL     1       1.770   3.943  -0.348  0.00  0.00    +0.144 HD
ENDROOT
BRANCH   1  17
ATOM     17  S   UNL     1      -1.486  -0.890   0.422  0.00  0.00    -0.077 S 
BRANCH  17  18
ATOM     18  C   UNL     1      -2.640   0.493   0.606  0.00  0.00    +0.173 C 
BRANCH  18  20
ATOM     19  N   UNL     1      -5.061   0.814   0.997  0.00  0.00    -0.297 N 
ATOM     20  C   UNL     1      -4.031  -0.040   0.832  0.00  0.00    +0.224 C 
ATOM     21  O   UNL     1      -4.224  -1.237   0.864  0.00  0.00    -0.275 OA
ATOM     22  H   UNL     1      -4.907   1.771   0.971  0.00  0.00    +0.150 HD
BRANCH  19  23
ATOM     23  C   UNL     1      -6.414   0.296   1.216  0.00  0.00    +0.121 C 
ATOM     24  C   UNL     1      -6.832  -0.561   0.019  0.00  0.00    +0.048 C 
BRANCH  23  26
ATOM     25  C   UNL     1      -8.817   0.927   1.475  0.00  0.00    +0.010 C 
ATOM     26  C   UNL     1      -7.388   1.465   1.371  0.00  0.00    +0.020 C 
ATOM     27  C   UNL     1      -7.045   2.249   2.639  0.00  0.00    +0.010 C 
ENDBRANCH  23  26
BRANCH  23  28
ATOM     28  C   UNL     1      -6.433  -0.525   2.437  0.00  0.00    +0.088 C 
ATOM     29  N   UNL     1      -6.448  -1.159   3.380  0.00  0.00    -0.194 NA
ENDBRANCH  23  28
ENDBRANCH  19  23
ENDBRANCH  18  20
ENDBRANCH  17  18
ENDBRANCH   1  17
TORSDOF 6
