REMARK  Name = ZINC25856475
REMARK  9 active torsions:
REMARK  status: ('A' for Active; 'I' for Inactive)
REMARK    1  A    between atoms: C_1  and  C_2
REMARK    2  A    between atoms: C_5  and  C_24
REMARK    3  A    between atoms: C_7  and  N_8
REMARK    4  A    between atoms: C_9  and  C_11
REMARK    5  A    between atoms: C_13  and  C_23
REMARK    6  A    between atoms: C_14  and  C_22
REMARK    7  A    between atoms: C_15  and  S_17
REMARK    8  A    between atoms: S_17  and  N_20
REMARK    9  A    between atoms: N_20  and  C_21
REMARK                            x       y       z     vdW  Elec       q    Type
REMARK                         _______ _______ _______ _____ _____    ______ ____
ROOT
ATOM      1  N   UNL     1       2.158   1.993  -0.885  0.00  0.00    -0.281 N 
ATOM      2  C   UNL     1       3.163   2.459  -1.653  0.00  0.00    +0.248 C 
ATOM      3  O   UNL     1       3.058   3.538  -2.202  0.00  0.00    -0.270 OA
ATOM      4  H   UNL     1       2.285   1.056  -0.323  0.00  0.00    +0.155 HD
ENDROOT
BRANCH   2   5
ATOM      5  C   UNL     1       4.394   1.659  -1.826  0.00  0.00    +0.039 A 
ATOM      6  C   UNL     1       4.520   0.422  -1.191  0.00  0.00    +0.016 A 
ATOM      7  C   UNL     1       5.669  -0.323  -1.361  0.00  0.00    -0.045 A 
ATOM      8  C   UNL     1       6.699   0.160  -2.149  0.00  0.00    -0.021 A 
ATOM      9  C   UNL     1       6.582   1.387  -2.776  0.00  0.00    +0.109 A 
ATOM     10  C   UNL     1       5.436   2.139  -2.619  0.00  0.00    +0.042 A 
ATOM     11  C   UNL     1       7.954  -0.656  -2.324  0.00  0.00    +0.046 C 
ATOM     12  C   UNL     1       5.805  -1.661  -0.681  0.00  0.00    +0.044 C 
BRANCH   9  13
ATOM     13  S   UNL     1       7.900   1.991  -3.778  0.00  0.00    +0.058 S 
ATOM     14  O   UNL     1       7.473   3.242  -4.299  0.00  0.00    -0.153 OA
ATOM     15  O   UNL     1       9.089   1.850  -3.013  0.00  0.00    -0.153 OA
BRANCH  13  16
ATOM     16  N   UNL     1       8.044   0.965  -5.070  0.00  0.00    -0.193 NA
ATOM     17  C   UNL     1       6.949   0.845  -6.035  0.00  0.00    +0.127 C 
ATOM     18  H   UNL     1       8.888   0.260  -5.105  0.00  0.00    +0.148 HD
ENDBRANCH  13  16
ENDBRANCH   9  13
ENDBRANCH   2   5
BRANCH   1  25
ATOM     19  C   UNL     1      -0.249   0.509  -0.602  0.00  0.00    +0.045 C 
ATOM     20  C   UNL     1      -0.247   2.014  -0.665  0.00  0.00    -0.029 A 
ATOM     21  C   UNL     1      -1.440   2.709  -0.589  0.00  0.00    +0.006 A 
ATOM     22  C   UNL     1      -1.445   4.088  -0.641  0.00  0.00    +0.012 A 
ATOM     23  C   UNL     1      -0.244   4.786  -0.781  0.00  0.00    +0.021 A 
ATOM     24  C   UNL     1       0.958   4.085  -0.863  0.00  0.00    +0.035 A 
ATOM     25  C   UNL     1       0.954   2.700  -0.804  0.00  0.00    +0.037 A 
BRANCH  23  26
ATOM     26  C   UNL     1      -0.248   6.264  -0.842  0.00  0.00    +0.164 A 
ATOM     27  N   UNL     1       0.776   7.061  -0.621  0.00  0.00    -0.129 NA
ATOM     28  N   UNL     1       0.413   8.287  -0.769  0.00  0.00    -0.134 NA
ATOM     29  C   UNL     1      -0.851   8.341  -1.086  0.00  0.00    +0.134 A 
ATOM     30  N   UNL     1      -1.315   7.064  -1.132  0.00  0.00    -0.311 N 
ATOM     31  C   UNL     1      -2.686   6.644  -1.423  0.00  0.00    +0.125 C 
ATOM     32  C   UNL     1      -3.355   7.689  -2.321  0.00  0.00    +0.022 C 
ATOM     33  C   UNL     1      -4.026   8.756  -1.458  0.00  0.00    +0.002 C 
ATOM     34  C   UNL     1      -2.993   9.481  -0.601  0.00  0.00    +0.008 C 
ATOM     35  C   UNL     1      -1.668   9.576  -1.363  0.00  0.00    +0.076 C 
ENDBRANCH  23  26
ENDBRANCH   1  25
TORSDOF 5
