REMARK  Name = ZINC33026392
REMARK  5 active torsions:
REMARK  status: ('A' for Active; 'I' for Inactive)
REMARK    1  A    between atoms: C_1  and  C_2
REMARK    2  A    between atoms: C_10  and  C_12
REMARK    3  A    between atoms: C_22  and  C_25
REMARK    4  A    between atoms: C_28  and  O_31
REMARK    5  A    between atoms: O_31  and  C_32
REMARK                            x       y       z     vdW  Elec       q    Type
REMARK                         _______ _______ _______ _____ _____    ______ ____
ROOT
ATOM      1  C   UNL     1      -6.907  -1.352  -0.845  0.00  0.00    +0.069 C 
ATOM      2  C   UNL     1      -5.786  -0.828  -1.706  0.00  0.00    +0.087 A 
ATOM      3  C   UNL     1      -4.686  -0.085  -1.287  0.00  0.00    +0.049 A 
ATOM      4  C   UNL     1      -3.968   0.142  -2.433  0.00  0.00    +0.226 A 
ATOM      5  O   UNL     1      -4.643  -0.443  -3.417  0.00  0.00    -0.339 OA
ATOM      6  N   UNL     1      -5.651  -0.980  -3.000  0.00  0.00    -0.081 NA
ATOM      7  N   UNL     1      -2.789   0.858  -2.407  0.00  0.00    -0.286 N 
ATOM      8  C   UNL     1      -2.190   1.094  -1.192  0.00  0.00    +0.019 C 
ATOM      9  C   UNL     1      -2.825   0.896  -0.018  0.00  0.00    +0.024 C 
ATOM     10  C   UNL     1      -4.262   0.419   0.055  0.00  0.00    +0.093 C 
ATOM     11  C   UNL     1      -2.172   1.129   1.206  0.00  0.00    +0.162 C 
ATOM     12  O   UNL     1      -2.780   0.958   2.245  0.00  0.00    -0.292 OA
ATOM     13  C   UNL     1      -0.741   1.586   1.260  0.00  0.00    +0.088 C 
ATOM     14  C   UNL     1      -0.013   1.086   0.008  0.00  0.00    +0.032 C 
ATOM     15  C   UNL     1      -0.764   1.598  -1.222  0.00  0.00    +0.059 C 
ATOM     16  H   UNL     1      -2.348   1.226  -3.345  0.00  0.00    +0.155 HD
ENDROOT
BRANCH  10  17
ATOM     17  C   UNL     1      -5.151   1.564   0.467  0.00  0.00    -0.000 A 
ATOM     18  C   UNL     1      -5.217   2.703  -0.312  0.00  0.00    +0.007 A 
ATOM     19  C   UNL     1      -6.033   3.753   0.065  0.00  0.00    +0.000 A 
ATOM     20  C   UNL     1      -6.784   3.665   1.222  0.00  0.00    +0.003 A 
ATOM     21  C   UNL     1      -6.720   2.527   2.003  0.00  0.00    +0.038 A 
ATOM     22  C   UNL     1      -5.907   1.472   1.624  0.00  0.00    +0.127 A 
ATOM     23  F   UNL     1      -5.847   0.356   2.383  0.00  0.00    -0.205 F 
ENDBRANCH  10  17
BRANCH  14  24
ATOM     24  C   UNL     1       1.399   1.613  -0.003  0.00  0.00    -0.043 A 
ATOM     25  C   UNL     1       1.627   2.977  -0.003  0.00  0.00    +0.007 A 
ATOM     26  C   UNL     1       2.920   3.462  -0.007  0.00  0.00    +0.046 A 
ATOM     27  C   UNL     1       3.991   2.581  -0.023  0.00  0.00    +0.120 A 
ATOM     28  C   UNL     1       3.760   1.213  -0.028  0.00  0.00    +0.046 A 
ATOM     29  C   UNL     1       2.465   0.732  -0.018  0.00  0.00    +0.007 A 
BRANCH  27  30
ATOM     30  O   UNL     1       5.264   3.056  -0.033  0.00  0.00    -0.495 OA
ATOM     31  C   UNL     1       5.426   4.476  -0.027  0.00  0.00    +0.277 C 
ENDBRANCH  27  30
ENDBRANCH  14  24
TORSDOF 3
