REMARK  Name = ZINC46772147
REMARK  10 active torsions:
REMARK  status: ('A' for Active; 'I' for Inactive)
REMARK    1  A    between atoms: C_1  and  C_2
REMARK    2  A    between atoms: C_5  and  N_9
REMARK    3  A    between atoms: C_7  and  C_8
REMARK    4  A    between atoms: N_9  and  C_10
REMARK    5  A    between atoms: C_10  and  N_12
REMARK    6  A    between atoms: N_12  and  N_13
REMARK    7  A    between atoms: C_14  and  C_16
REMARK    8  A    between atoms: C_18  and  S_23
REMARK    9  A    between atoms: S_23  and  N_26
REMARK   10  A    between atoms: N_26  and  C_27
REMARK                            x       y       z     vdW  Elec       q    Type
REMARK                         _______ _______ _______ _____ _____    ______ ____
ROOT
ATOM      1  N   UNL     1      -0.106  -6.886   0.025  0.00  0.00    -0.231 N 
ATOM      2  C   UNL     1      -0.190  -8.232   0.024  0.00  0.00    +0.262 C 
ATOM      3  O   UNL     1      -0.279  -8.835  -1.027  0.00  0.00    -0.269 OA
ATOM      4  H   UNL     1      -0.035  -6.405   0.864  0.00  0.00    +0.173 HD
ENDROOT
BRANCH   2   5
ATOM      5  C   UNL     1      -0.173  -8.973   1.302  0.00  0.00    +0.058 A 
ATOM      6  C   UNL     1      -0.077  -8.283   2.513  0.00  0.00    +0.043 A 
ATOM      7  C   UNL     1      -0.062  -8.981   3.702  0.00  0.00    +0.106 A 
ATOM      8  C   UNL     1      -0.141 -10.363   3.699  0.00  0.00    +0.030 A 
ATOM      9  C   UNL     1      -0.237 -11.054   2.505  0.00  0.00    +0.022 A 
ATOM     10  C   UNL     1      -0.259 -10.367   1.306  0.00  0.00    +0.053 A 
ATOM     11 CL   UNL     1      -0.387 -11.236  -0.192  0.00  0.00    -0.083 Cl
BRANCH   7  12
ATOM     12  S   UNL     1       0.060  -8.112   5.229  0.00  0.00    +0.058 S 
ATOM     13  O   UNL     1       0.604  -9.024   6.174  0.00  0.00    -0.153 OA
ATOM     14  O   UNL     1       0.672  -6.862   4.938  0.00  0.00    -0.153 OA
BRANCH  12  15
ATOM     15  N   UNL     1      -1.483  -7.778   5.728  0.00  0.00    -0.193 NA
ATOM     16  C   UNL     1      -2.391  -8.873   6.082  0.00  0.00    +0.127 C 
ATOM     17  H   UNL     1      -1.787  -6.859   5.785  0.00  0.00    +0.148 HD
ENDBRANCH  12  15
ENDBRANCH   7  12
ENDBRANCH   2   5
BRANCH   1  18
ATOM     18  N   UNL     1      -0.122  -6.184  -1.187  0.00  0.00    -0.245 N 
ATOM     19  H   UNL     1      -0.193  -6.665  -2.026  0.00  0.00    +0.172 HD
BRANCH  18  20
ATOM     20  C   UNL     1      -0.039  -4.838  -1.187  0.00  0.00    +0.151 C 
ATOM     21  S   UNL     1      -0.058  -3.979  -2.668  0.00  0.00    -0.017 S 
BRANCH  20  22
ATOM     22  N   UNL     1       0.059  -4.169  -0.021  0.00  0.00    -0.296 N 
ATOM     23  H   UNL     1       0.152  -4.658   0.812  0.00  0.00    +0.154 HD
BRANCH  22  28
ATOM     24  C   UNL     1      -0.065   1.502   0.015  0.00  0.00    +0.044 C 
ATOM     25  C   UNL     1      -0.032  -0.005   0.006  0.00  0.00    -0.047 A 
ATOM     26  C   UNL     1      -0.900  -0.709  -0.809  0.00  0.00    +0.005 A 
ATOM     27  C   UNL     1      -0.872  -2.089  -0.820  0.00  0.00    +0.023 A 
ATOM     28  C   UNL     1       0.029  -2.771  -0.012  0.00  0.00    +0.033 A 
ATOM     29  C   UNL     1       0.899  -2.061   0.805  0.00  0.00    +0.027 A 
ATOM     30  C   UNL     1       0.869  -0.680   0.808  0.00  0.00    -0.046 A 
ATOM     31  C   UNL     1       1.817   0.091   1.690  0.00  0.00    +0.044 C 
ENDBRANCH  22  28
ENDBRANCH  20  22
ENDBRANCH  18  20
ENDBRANCH   1  18
TORSDOF 7
