REMARK  Name = ZINC36374609
REMARK  11 active torsions:
REMARK  status: ('A' for Active; 'I' for Inactive)
REMARK    1  A    between atoms: C_1  and  O_2
REMARK    2  A    between atoms: O_2  and  C_3
REMARK    3  A    between atoms: C_4  and  O_22
REMARK    4  A    between atoms: C_6  and  O_21
REMARK    5  A    between atoms: C_10  and  C_15
REMARK    6  A    between atoms: O_22  and  C_23
REMARK    7  A    between atoms: C_25  and  O_38
REMARK    8  A    between atoms: C_27  and  O_37
REMARK    9  A    between atoms: C_29  and  O_36
REMARK   10  A    between atoms: C_31  and  C_34
REMARK   11  A    between atoms: C_34  and  O_35
REMARK                            x       y       z     vdW  Elec       q    Type
REMARK                         _______ _______ _______ _____ _____    ______ ____
ROOT
ATOM      1  C   UNL     1       0.607  -0.608  -1.058  0.00  0.00    +0.205 A 
ATOM      2  C   UNL     1      -0.134  -0.922  -2.194  0.00  0.00    +0.173 A 
ATOM      3  C   UNL     1       0.469  -1.538  -3.284  0.00  0.00    +0.095 A 
ATOM      4  C   UNL     1       1.816  -1.849  -3.248  0.00  0.00    +0.135 A 
ATOM      5  C   UNL     1       2.569  -1.539  -2.104  0.00  0.00    +0.104 A 
ATOM      6  C   UNL     1       1.960  -0.904  -1.006  0.00  0.00    +0.180 A 
ATOM      7  O   UNL     1       2.681  -0.582   0.095  0.00  0.00    -0.479 OA
ATOM      8  C   UNL     1       3.897  -1.287   0.348  0.00  0.00    +0.211 C 
ATOM      9  C   UNL     1       4.786  -1.233  -0.902  0.00  0.00    +0.129 C 
ATOM     10  C   UNL     1       3.997  -1.869  -2.036  0.00  0.00    +0.174 C 
ATOM     11  O   UNL     1       4.522  -2.601  -2.849  0.00  0.00    -0.292 OA
ENDROOT
BRANCH   8  12
ATOM     12  C   UNL     1       4.617  -0.648   1.507  0.00  0.00    -0.007 A 
ATOM     13  C   UNL     1       4.555   0.721   1.689  0.00  0.00    +0.007 A 
ATOM     14  C   UNL     1       5.216   1.308   2.752  0.00  0.00    +0.000 A 
ATOM     15  C   UNL     1       5.939   0.526   3.633  0.00  0.00    +0.000 A 
ATOM     16  C   UNL     1       6.001  -0.843   3.451  0.00  0.00    +0.000 A 
ATOM     17  C   UNL     1       5.336  -1.431   2.391  0.00  0.00    +0.007 A 
ENDBRANCH   8  12
BRANCH   1  19
ATOM     18  C   UNL     1      -0.017   1.425   0.010  0.00  0.00    +0.277 C 
ATOM     19  O   UNL     1       0.002  -0.004   0.002  0.00  0.00    -0.488 OA
ENDBRANCH   1  19
BRANCH   4  20
ATOM     20  O   UNL     1       2.407  -2.450  -4.311  0.00  0.00    -0.506 OA
ATOM     21  H   UNL     1       2.770  -1.832  -4.961  0.00  0.00    +0.292 HD
ENDBRANCH   4  20
BRANCH   2  22
ATOM     22  O   UNL     1      -1.457  -0.624  -2.237  0.00  0.00    -0.457 OA
BRANCH  22  23
ATOM     23  C   UNL     1      -2.162  -0.972  -3.431  0.00  0.00    +0.339 C 
ATOM     24  C   UNL     1      -3.558  -0.345  -3.400  0.00  0.00    +0.214 C 
ATOM     25  C   UNL     1      -4.329  -0.771  -4.654  0.00  0.00    +0.180 C 
ATOM     26  C   UNL     1      -4.379  -2.301  -4.713  0.00  0.00    +0.177 C 
ATOM     27  C   UNL     1      -2.951  -2.852  -4.693  0.00  0.00    +0.179 C 
ATOM     28  O   UNL     1      -2.281  -2.393  -3.518  0.00  0.00    -0.331 OA
BRANCH  26  29
ATOM     29  O   UNL     1      -5.100  -2.799  -3.585  0.00  0.00    -0.386 OA
ATOM     30  H   UNL     1      -6.013  -2.486  -3.532  0.00  0.00    +0.210 HD
ENDBRANCH  26  29
BRANCH  25  31
ATOM     31  O   UNL     1      -5.658  -0.249  -4.599  0.00  0.00    -0.386 OA
ATOM     32  H   UNL     1      -5.700   0.716  -4.553  0.00  0.00    +0.210 HD
ENDBRANCH  25  31
BRANCH  24  33
ATOM     33  O   UNL     1      -4.256  -0.791  -2.235  0.00  0.00    -0.383 OA
ATOM     34  H   UNL     1      -3.821  -0.558  -1.403  0.00  0.00    +0.210 HD
ENDBRANCH  24  33
BRANCH  27  35
ATOM     35  C   UNL     1      -2.994  -4.381  -4.692  0.00  0.00    +0.190 C 
BRANCH  35  36
ATOM     36  O   UNL     1      -1.664  -4.895  -4.791  0.00  0.00    -0.392 OA
ATOM     37  H   UNL     1      -1.615  -5.861  -4.796  0.00  0.00    +0.210 HD
ENDBRANCH  35  36
ENDBRANCH  27  35
ENDBRANCH  22  23
ENDBRANCH   2  22
TORSDOF 10
