REMARK  Name = ZINC44871049
REMARK  7 active torsions:
REMARK  status: ('A' for Active; 'I' for Inactive)
REMARK    1  A    between atoms: C_1  and  C_2
REMARK    2  A    between atoms: C_8  and  C_10
REMARK    3  A    between atoms: C_10  and  C_12
REMARK    4  A    between atoms: C_10  and  C_15
REMARK    5  A    between atoms: C_12  and  C_13
REMARK    6  A    between atoms: C_12  and  C_14
REMARK    7  A    between atoms: N_16  and  O_17
REMARK                            x       y       z     vdW  Elec       q    Type
REMARK                         _______ _______ _______ _____ _____    ______ ____
ROOT
ATOM      1  C   UNL     1       1.236  -0.921   3.523  0.00  0.00    +0.144 C 
ENDROOT
BRANCH   1   8
ATOM      2  C   UNL     1      -0.344   2.128   0.636  0.00  0.00    +0.028 C 
ATOM      3  C   UNL     1       0.875   1.252   0.340  0.00  0.00    +0.073 C 
ATOM      4  C   UNL     1       2.036   2.127  -0.179  0.00  0.00    +0.024 C 
ATOM      5  C   UNL     1       2.889   2.364   1.095  0.00  0.00    +0.021 C 
ATOM      6  C   UNL     1       2.730   1.010   1.832  0.00  0.00    +0.108 C 
ATOM      7  N   UNL     1       1.334   0.599   1.574  0.00  0.00    -0.298 N 
ATOM      8  C   UNL     1       0.603  -0.233   2.342  0.00  0.00    +0.226 C 
ATOM      9  O   UNL     1      -0.566  -0.427   2.082  0.00  0.00    -0.275 OA
ENDBRANCH   1   8
BRANCH   1  10
ATOM     10  C   UNL     1       0.453  -0.603   4.770  0.00  0.00    +0.144 C 
ATOM     11  N   UNL     1      -0.464  -1.413   5.182  0.00  0.00    -0.076 NA
ATOM     12  N   UNL     1       0.716   0.553   5.471  0.00  0.00    -0.343 N 
ATOM     13  H   UNL     1       1.405   1.162   5.162  0.00  0.00    +0.144 HD
ATOM     14  H   UNL     1       0.212   0.759   6.274  0.00  0.00    +0.144 HD
BRANCH  11  15
ATOM     15  O   UNL     1      -1.200  -1.114   6.354  0.00  0.00    -0.408 OA
ATOM     16  H   UNL     1      -1.864  -1.778   6.582  0.00  0.00    +0.328 HD
ENDBRANCH  11  15
ENDBRANCH   1  10
BRANCH   1  17
ATOM     17  C   UNL     1       1.235  -2.434   3.292  0.00  0.00    +0.002 C 
ATOM     18  C   UNL     1       1.919  -2.748   1.960  0.00  0.00    +0.008 C 
ATOM     19  C   UNL     1       1.990  -3.124   4.429  0.00  0.00    +0.008 C 
ENDBRANCH   1  17
TORSDOF 4
