REMARK  Name = ZINC09007904
REMARK  10 active torsions:
REMARK  status: ('A' for Active; 'I' for Inactive)
REMARK    1  A    between atoms: C_1  and  N_55
REMARK    2  A    between atoms: C_2  and  N_55
REMARK    3  A    between atoms: C_3  and  C_4
REMARK    4  A    between atoms: C_3  and  N_55
REMARK    5  A    between atoms: C_4  and  N_5
REMARK    6  A    between atoms: C_6  and  C_26
REMARK    7  A    between atoms: C_9  and  C_10
REMARK    8  A    between atoms: C_9  and  O_21
REMARK    9  A    between atoms: C_16  and  O_19
REMARK   10  A    between atoms: O_19  and  C_20
REMARK                            x       y       z     vdW  Elec       q    Type
REMARK                         _______ _______ _______ _____ _____    ______ ____
ROOT
ATOM      1  N   UNL     1      -0.491   1.582   1.120  0.00  0.00    -0.285 N 
ATOM      2  C   UNL     1      -0.457   2.836   1.879  0.00  0.00    +0.147 C 
ATOM      3  C   UNL     1      -1.505   2.714   2.961  0.00  0.00    +0.074 C 
ATOM      4  C   UNL     1      -1.829   3.664   3.917  0.00  0.00    +0.168 C 
ATOM      5  C   UNL     1      -2.080   1.446   2.807  0.00  0.00    +0.249 C 
ATOM      6  O   UNL     1      -2.966   0.975   3.498  0.00  0.00    -0.282 OA
ATOM      7  C   UNL     1      -1.424   0.775   1.654  0.00  0.00    +0.288 C 
ATOM      8  O   UNL     1      -1.691  -0.339   1.253  0.00  0.00    -0.266 OA
ENDROOT
BRANCH   4   9
ATOM      9  C   UNL     1      -2.771   3.334   4.986  0.00  0.00    +0.171 A 
ATOM     10  C   UNL     1      -3.817   4.113   5.381  0.00  0.00    +0.061 A 
ATOM     11  C   UNL     1      -4.468   3.422   6.434  0.00  0.00    +0.025 A 
ATOM     12  C   UNL     1      -5.585   3.704   7.232  0.00  0.00    +0.012 A 
ATOM     13  C   UNL     1      -5.972   2.819   8.196  0.00  0.00    +0.004 A 
ATOM     14  C   UNL     1      -5.268   1.639   8.395  0.00  0.00    +0.049 A 
ATOM     15  C   UNL     1      -4.163   1.339   7.619  0.00  0.00    +0.163 A 
ATOM     16  C   UNL     1      -3.750   2.229   6.629  0.00  0.00    +0.177 A 
ATOM     17  O   UNL     1      -2.737   2.213   5.738  0.00  0.00    -0.448 OA
BRANCH  15  18
ATOM     18  O   UNL     1      -3.482   0.179   7.821  0.00  0.00    -0.491 OA
ATOM     19  C   UNL     1      -3.963  -0.684   8.853  0.00  0.00    +0.277 C 
ENDBRANCH  15  18
ENDBRANCH   4   9
BRANCH   2  20
ATOM     20  C   UNL     1      -0.786   3.996   0.975  0.00  0.00    +0.013 A 
ATOM     21  C   UNL     1      -1.618   3.810  -0.113  0.00  0.00    +0.008 A 
ATOM     22  C   UNL     1      -1.924   4.875  -0.939  0.00  0.00    +0.001 A 
ATOM     23  C   UNL     1      -1.389   6.125  -0.685  0.00  0.00    +0.003 A 
ATOM     24  C   UNL     1      -0.552   6.311   0.398  0.00  0.00    +0.039 A 
ATOM     25  C   UNL     1      -0.249   5.246   1.230  0.00  0.00    +0.129 A 
ATOM     26  F   UNL     1       0.569   5.427   2.290  0.00  0.00    -0.205 F 
ENDBRANCH   2  20
BRANCH   4  27
ATOM     27  O   UNL     1      -1.274   4.895   3.861  0.00  0.00    -0.503 OA
ATOM     28  H   UNL     1      -1.615   5.449   4.621  0.00  0.00    +0.292 HD
ENDBRANCH   4  27
BRANCH   1  29
ATOM     29  C   UNL     1       0.357   1.259  -0.029  0.00  0.00    +0.090 C 
BRANCH  29  30
ATOM     30  C   UNL     1       1.585   0.480   0.447  0.00  0.00    -0.060 C 
BRANCH  30  33
ATOM     31  C   UNL     1       2.942   1.201  -1.424  0.00  0.00    -0.097 C 
ATOM     32  C   UNL     1       3.422  -0.899  -0.319  0.00  0.00    -0.097 C 
ATOM     33  N   UNL     1       2.354   0.034  -0.734  0.00  0.00    +0.377 N 
ATOM     34  H   UNL     1       1.720  -0.451  -1.381  0.00  0.00    -0.083 HD
ENDBRANCH  30  33
ENDBRANCH  29  30
ENDBRANCH   1  29
TORSDOF 7
