REMARK  Name = ZINC00158575
REMARK  3 active torsions:
REMARK  status: ('A' for Active; 'I' for Inactive)
REMARK    1  A    between atoms: C_4  and  S_7
REMARK    2  A    between atoms: S_7  and  N_10
REMARK    3  A    between atoms: C_18  and  C_19
REMARK                            x       y       z     vdW  Elec       q    Type
REMARK                         _______ _______ _______ _____ _____    ______ ____
ROOT
ATOM      1  N   UNL     1      -2.534   1.363   0.242  0.00  0.00    -0.204 N 
ATOM      2  C   UNL     1      -1.227   1.789   0.238  0.00  0.00    +0.073 A 
ATOM      3  C   UNL     1      -0.013   1.143   0.460  0.00  0.00    +0.028 A 
ATOM      4  C   UNL     1       1.164   1.852   0.380  0.00  0.00    +0.002 A 
ATOM      5  C   UNL     1       1.155   3.210   0.085  0.00  0.00    +0.001 A 
ATOM      6  C   UNL     1      -0.021   3.866  -0.131  0.00  0.00    +0.010 A 
ATOM      7  C   UNL     1      -1.234   3.167  -0.056  0.00  0.00    +0.002 A 
ATOM      8  C   UNL     1      -2.587   3.547  -0.224  0.00  0.00    +0.045 A 
ATOM      9  C   UNL     1      -3.353   2.438  -0.046  0.00  0.00    +0.154 A 
ENDROOT
BRANCH   1  10
ATOM     10  S   UNL     1      -3.043  -0.183   0.543  0.00  0.00    +0.085 S 
ATOM     11  O   UNL     1      -1.942  -0.867   1.127  0.00  0.00    -0.148 OA
ATOM     12  O   UNL     1      -4.303  -0.077   1.191  0.00  0.00    -0.148 OA
BRANCH  10  16
ATOM     13  C   UNL     1      -3.807  -2.146  -3.463  0.00  0.00    +0.000 A 
ATOM     14  C   UNL     1      -2.555  -2.226  -2.882  0.00  0.00    +0.002 A 
ATOM     15  C   UNL     1      -2.322  -1.626  -1.659  0.00  0.00    +0.029 A 
ATOM     16  C   UNL     1      -3.340  -0.947  -1.016  0.00  0.00    +0.111 A 
ATOM     17  C   UNL     1      -4.593  -0.872  -1.595  0.00  0.00    +0.029 A 
ATOM     18  C   UNL     1      -4.826  -1.467  -2.821  0.00  0.00    +0.002 A 
ENDBRANCH  10  16
ENDBRANCH   1  10
BRANCH   9  19
ATOM     19  C   UNL     1      -4.818   2.392  -0.136  0.00  0.00    +0.404 C 
ATOM     20  O   UNL     1      -5.451   3.421  -0.277  0.00  0.00    -0.239 OA
ATOM     21  O   UNL     1      -5.462   1.210  -0.061  0.00  0.00    -0.239 OA
ENDBRANCH   9  19
TORSDOF 3
