REMARK  Name = ZINC58369907
REMARK  10 active torsions:
REMARK  status: ('A' for Active; 'I' for Inactive)
REMARK    1  A    between atoms: C_1  and  C_2
REMARK    2  A    between atoms: C_2  and  O_3
REMARK    3  A    between atoms: O_3  and  C_4
REMARK    4  A    between atoms: C_9  and  N_10
REMARK    5  A    between atoms: N_13  and  C_14
REMARK    6  A    between atoms: C_14  and  C_16
REMARK    7  A    between atoms: C_14  and  C_17
REMARK    8  A    between atoms: C_17  and  N_18
REMARK    9  A    between atoms: C_20  and  C_27
REMARK   10  A    between atoms: C_23  and  C_26
REMARK                            x       y       z     vdW  Elec       q    Type
REMARK                         _______ _______ _______ _____ _____    ______ ____
ROOT
ATOM      1  N   UNL     1       1.953  -1.467  -3.425  0.00  0.00    -0.266 N 
ATOM      2  C   UNL     1       2.659  -1.967  -4.458  0.00  0.00    +0.304 C 
ATOM      3  O   UNL     1       2.754  -3.171  -4.604  0.00  0.00    -0.253 OA
ATOM      4  N   UNL     1       3.259  -1.133  -5.330  0.00  0.00    -0.298 N 
ATOM      5  H   UNL     1       1.808  -0.510  -3.354  0.00  0.00    +0.156 HD
ATOM      6  H   UNL     1       3.183  -0.173  -5.214  0.00  0.00    +0.150 HD
ENDROOT
BRANCH   1  12
ATOM      7  C   UNL     1       0.320  -1.943  -1.701  0.00  0.00    +0.142 A 
ATOM      8  C   UNL     1      -0.198  -2.802  -0.745  0.00  0.00    +0.047 A 
ATOM      9  C   UNL     1       0.388  -4.036  -0.534  0.00  0.00    +0.004 A 
ATOM     10  C   UNL     1       1.492  -4.417  -1.274  0.00  0.00    +0.002 A 
ATOM     11  C   UNL     1       2.014  -3.566  -2.230  0.00  0.00    +0.027 A 
ATOM     12  C   UNL     1       1.428  -2.329  -2.452  0.00  0.00    +0.077 A 
BRANCH   7  13
ATOM     13  O   UNL     1      -0.256  -0.729  -1.910  0.00  0.00    -0.490 OA
BRANCH  13  15
ATOM     14  C   UNL     1      -1.895   0.994  -1.480  0.00  0.00    +0.048 C 
ATOM     15  C   UNL     1      -1.389  -0.400  -1.104  0.00  0.00    +0.226 C 
ENDBRANCH  13  15
ENDBRANCH   7  13
ENDBRANCH   1  12
BRANCH   4  16
ATOM     16  C   UNL     1       4.026  -1.677  -6.454  0.00  0.00    +0.055 C 
ATOM     17  C   UNL     1       5.452  -1.987  -5.995  0.00  0.00    +0.026 C 
BRANCH  16  18
ATOM     18  C   UNL     1       4.067  -0.650  -7.587  0.00  0.00    -0.057 C 
BRANCH  18  19
ATOM     19  N   UNL     1       2.697  -0.262  -7.947  0.00  0.00    +0.381 N 
ATOM     20  C   UNL     1       1.988  -1.426  -8.492  0.00  0.00    -0.076 C 
ATOM     21  C   UNL     1       0.536  -1.049  -8.793  0.00  0.00    -0.031 C 
ATOM     22  C   UNL     1       0.512   0.090  -9.816  0.00  0.00    +0.003 C 
ATOM     23  C   UNL     1       1.317   1.272  -9.268  0.00  0.00    -0.031 C 
ATOM     24  C   UNL     1       2.740   0.809  -8.950  0.00  0.00    -0.076 C 
ATOM     25  C   UNL     1       1.364   2.387 -10.315  0.00  0.00    +0.005 C 
ATOM     26  C   UNL     1      -0.151  -0.594  -7.504  0.00  0.00    +0.005 C 
ATOM     27  H   UNL     1       2.215   0.068  -7.124  0.00  0.00    -0.082 HD
ENDBRANCH  18  19
ENDBRANCH  16  18
ENDBRANCH   4  16
TORSDOF 6
