REMARK  Name = ZINC62833720
REMARK  5 active torsions:
REMARK  status: ('A' for Active; 'I' for Inactive)
REMARK    1  A    between atoms: C_1  and  C_2
REMARK    2  A    between atoms: C_2  and  C_4
REMARK    3  A    between atoms: C_2  and  N_10
REMARK    4  A    between atoms: C_11  and  C_13
REMARK    5  A    between atoms: C_19  and  N_23
REMARK                            x       y       z     vdW  Elec       q    Type
REMARK                         _______ _______ _______ _____ _____    ______ ____
ROOT
ATOM      1  C   UNL     1      -3.408  -1.164   1.191  0.00  0.00    +0.103 A 
ATOM      2  C   UNL     1      -4.173  -1.347   2.300  0.00  0.00    +0.041 A 
ATOM      3  C   UNL     1      -5.428  -1.848   1.881  0.00  0.00    +0.002 A 
ATOM      4  C   UNL     1      -6.595  -2.217   2.566  0.00  0.00    +0.010 A 
ATOM      5  C   UNL     1      -7.676  -2.679   1.873  0.00  0.00    +0.002 A 
ATOM      6  C   UNL     1      -7.636  -2.789   0.489  0.00  0.00    +0.025 A 
ATOM      7  C   UNL     1      -6.499  -2.432  -0.212  0.00  0.00    +0.049 A 
ATOM      8  C   UNL     1      -5.380  -1.956   0.479  0.00  0.00    +0.068 A 
ATOM      9  N   UNL     1      -4.136  -1.527   0.076  0.00  0.00    -0.349 N 
ATOM     10  H   UNL     1      -3.822  -1.489  -0.841  0.00  0.00    +0.166 HD
ENDROOT
BRANCH   1  12
ATOM     11  N   UNL     1      -1.372  -0.511   0.012  0.00  0.00    -0.302 N 
ATOM     12  C   UNL     1      -2.029  -0.655   1.181  0.00  0.00    +0.261 C 
ATOM     13  O   UNL     1      -1.480  -0.364   2.227  0.00  0.00    -0.269 OA
ATOM     14  H   UNL     1      -1.810  -0.743  -0.822  0.00  0.00    +0.150 HD
BRANCH  11  16
ATOM     15  C   UNL     1      -0.019   1.526   0.010  0.00  0.00    +0.034 C 
ATOM     16  C   UNL     1       0.002  -0.004   0.002  0.00  0.00    +0.119 C 
BRANCH  16  17
ATOM     17  C   UNL     1       0.707  -0.490  -1.238  0.00  0.00    +0.061 A 
ATOM     18  C   UNL     1       2.085  -0.606  -1.239  0.00  0.00    +0.025 A 
ATOM     19  C   UNL     1       2.724  -1.054  -2.385  0.00  0.00    +0.003 A 
ATOM     20  C   UNL     1       1.950  -1.370  -3.491  0.00  0.00    +0.020 A 
ATOM     21  C   UNL     1       0.578  -1.229  -3.416  0.00  0.00    +0.111 A 
ATOM     22  N   UNL     1       0.003  -0.805  -2.307  0.00  0.00    -0.258 NA
ENDBRANCH  16  17
ENDBRANCH  11  16
ENDBRANCH   1  12
BRANCH   7  23
ATOM     23  N   UNL     1      -6.468  -2.547  -1.605  0.00  0.00    -0.356 N 
ATOM     24  H   UNL     1      -7.245  -2.878  -2.082  0.00  0.00    +0.142 HD
ATOM     25  H   UNL     1      -5.669  -2.296  -2.095  0.00  0.00    +0.142 HD
ENDBRANCH   7  23
TORSDOF 4
