REMARK  Name = ZINC41639664
REMARK  6 active torsions:
REMARK  status: ('A' for Active; 'I' for Inactive)
REMARK    1  A    between atoms: C_1  and  N_2
REMARK    2  A    between atoms: N_2  and  C_3
REMARK    3  A    between atoms: C_5  and  C_10
REMARK    4  A    between atoms: C_10  and  N_11
REMARK    5  A    between atoms: C_12  and  C_14
REMARK    6  A    between atoms: N_16  and  C_17
REMARK                            x       y       z     vdW  Elec       q    Type
REMARK                         _______ _______ _______ _____ _____    ______ ____
ROOT
ATOM      1  C   UNL     1      -3.342  -3.575   2.109  0.00  0.00    +0.303 C 
ATOM      2  O   UNL     1      -4.203  -3.037   1.443  0.00  0.00    -0.265 OA
ATOM      3  N   UNL     1      -3.673  -4.215   3.248  0.00  0.00    -0.278 N 
ATOM      4  H   UNL     1      -2.997  -4.704   3.743  0.00  0.00    +0.155 HD
ENDROOT
BRANCH   3   5
ATOM      5  C   UNL     1      -4.991  -4.176   3.714  0.00  0.00    +0.038 A 
ATOM      6  C   UNL     1      -5.243  -4.131   5.080  0.00  0.00    +0.027 A 
ATOM      7  C   UNL     1      -6.544  -4.093   5.544  0.00  0.00    +0.051 A 
ATOM      8  C   UNL     1      -7.599  -4.099   4.648  0.00  0.00    +0.167 A 
ATOM      9  C   UNL     1      -7.350  -4.143   3.276  0.00  0.00    +0.169 A 
ATOM     10  C   UNL     1      -6.048  -4.176   2.812  0.00  0.00    +0.073 A 
ATOM     11  O   UNL     1      -8.553  -4.137   2.620  0.00  0.00    -0.447 OA
ATOM     12  C   UNL     1      -9.486  -4.591   3.610  0.00  0.00    +0.254 C 
ATOM     13  O   UNL     1      -8.957  -4.069   4.837  0.00  0.00    -0.448 OA
ATOM     14  C   UNL     1      -9.561  -6.121   3.642  0.00  0.00    +0.093 C 
ATOM     15  C   UNL     1     -11.048  -6.416   3.974  0.00  0.00    +0.008 C 
ATOM     16  C   UNL     1     -11.802  -5.306   3.198  0.00  0.00    +0.008 C 
ATOM     17  C   UNL     1     -10.894  -4.062   3.337  0.00  0.00    +0.093 C 
ENDBRANCH   3   5
BRANCH   1  19
ATOM     18  N   UNL     1      -1.586  -2.886   0.527  0.00  0.00    -0.303 N 
ATOM     19  C   UNL     1      -1.917  -3.527   1.666  0.00  0.00    +0.300 C 
ATOM     20  O   UNL     1      -1.056  -4.065   2.332  0.00  0.00    -0.265 OA
ATOM     21  H   UNL     1      -2.274  -2.457  -0.005  0.00  0.00    +0.149 HD
BRANCH  18  22
ATOM     22  C   UNL     1      -0.188  -2.840   0.093  0.00  0.00    +0.143 C 
BRANCH  22  27
ATOM     23  C   UNL     1      -1.503   0.275   0.599  0.00  0.00    +0.130 C 
ATOM     24  N   UNL     1      -0.188   0.005   0.014  0.00  0.00    -0.323 N 
ATOM     25  C   UNL     1       1.026   0.454   0.699  0.00  0.00    +0.130 C 
ATOM     26  C   UNL     1      -0.092  -0.679  -1.193  0.00  0.00    +0.103 A 
ATOM     27  C   UNL     1      -0.088  -2.070  -1.199  0.00  0.00    +0.008 A 
ATOM     28  C   UNL     1       0.008  -2.737  -2.406  0.00  0.00    +0.010 A 
ATOM     29  C   UNL     1       0.098  -1.988  -3.572  0.00  0.00    +0.018 A 
ATOM     30  C   UNL     1       0.089  -0.610  -3.493  0.00  0.00    +0.084 A 
ATOM     31  N   UNL     1      -0.009  -0.000  -2.327  0.00  0.00    -0.349 N 
ATOM     32  H   UNL     1      -0.018   0.970  -2.299  0.00  0.00    +0.167 HD
ENDBRANCH  22  27
ENDBRANCH  18  22
ENDBRANCH   1  19
TORSDOF 4
