REMARK  Name = ZINC36142189
REMARK  2 active torsions:
REMARK  status: ('A' for Active; 'I' for Inactive)
REMARK    1  A    between atoms: C_7  and  C_11
REMARK    2  A    between atoms: C_7  and  N_14
REMARK                            x       y       z     vdW  Elec       q    Type
REMARK                         _______ _______ _______ _____ _____    ______ ____
ROOT
ATOM      1  C   UNL     1      -0.017   1.381   0.010  0.00  0.00    +0.021 A 
ATOM      2  C   UNL     1       1.167   2.095   0.002  0.00  0.00    +0.020 A 
ATOM      3  C   UNL     1       2.377   1.426  -0.014  0.00  0.00    +0.039 A 
ATOM      4  C   UNL     1       2.402   0.045  -0.024  0.00  0.00    +0.084 A 
ATOM      5  C   UNL     1       1.211  -0.676  -0.018  0.00  0.00    +0.141 A 
ATOM      6  C   UNL     1       0.002  -0.004   0.002  0.00  0.00    -0.004 A 
ATOM      7  C   UNL     1      -1.310  -0.747   0.021  0.00  0.00    +0.065 C 
ATOM      8  C   UNL     1      -1.089  -2.194  -0.427  0.00  0.00    +0.044 C 
ATOM      9  C   UNL     1       0.108  -2.762   0.347  0.00  0.00    +0.228 C 
ATOM     10  O   UNL     1       1.276  -2.033  -0.034  0.00  0.00    -0.490 OA
ATOM     11 CL   UNL     1       3.922  -0.793  -0.045  0.00  0.00    -0.080 Cl
ATOM     12 BR   UNL     1       1.131   3.986   0.013  0.00  0.00    -0.050 Br
ENDROOT
BRANCH   7  13
ATOM     13  N   UNL     1      -2.256  -0.092  -0.891  0.00  0.00    +0.392 N 
ATOM     14  H   UNL     1      -1.880  -0.098  -1.827  0.00  0.00    -0.088 HD
ATOM     15  H   UNL     1      -3.134  -0.589  -0.879  0.00  0.00    -0.088 HD
ATOM     16  H   UNL     1      -2.405   0.861  -0.594  0.00  0.00    -0.088 HD
ENDBRANCH   7  13
BRANCH   7  17
ATOM     17  C   UNL     1      -1.872  -0.736   1.419  0.00  0.00    +0.349 C 
ATOM     18  O   UNL     1      -2.961  -0.230   1.634  0.00  0.00    -0.248 OA
ATOM     19  O   UNL     1      -1.239  -1.231   2.335  0.00  0.00    -0.248 OA
ENDBRANCH   7  17
TORSDOF 2
