REMARK  Name = ZINC62766428
REMARK  4 active torsions:
REMARK  status: ('A' for Active; 'I' for Inactive)
REMARK    1  A    between atoms: C_1  and  C_2
REMARK    2  A    between atoms: C_6  and  C_22
REMARK    3  A    between atoms: C_8  and  S_11
REMARK    4  A    between atoms: S_11  and  C_12
REMARK                            x       y       z     vdW  Elec       q    Type
REMARK                         _______ _______ _______ _____ _____    ______ ____
ROOT
ATOM      1  S   UNL     1       1.640  -2.642   2.703  0.00  0.00    -0.100 S 
ENDROOT
BRANCH   1   2
ATOM      2  C   UNL     1       3.294  -2.079   2.472  0.00  0.00    +0.126 A 
ATOM      3  C   UNL     1       4.283  -2.361   3.417  0.00  0.00    +0.117 A 
ATOM      4  C   UNL     1       5.586  -1.891   3.188  0.00  0.00    +0.182 A 
ATOM      5  N   UNL     1       6.335  -2.293   4.232  0.00  0.00    -0.216 NA
ATOM      6  H   UNL     1       3.582  -3.480   5.056  0.00  0.00    +0.167 HD
ATOM      7  C   UNL     1       5.597  -2.964   5.072  0.00  0.00    +0.199 A 
ATOM      8  N   UNL     1       4.325  -3.036   4.618  0.00  0.00    -0.341 N 
ATOM      9  N   UNL     1       5.829  -1.192   2.074  0.00  0.00    -0.214 NA
ATOM     10  C   UNL     1       4.866  -0.951   1.212  0.00  0.00    +0.224 A 
ATOM     11  N   UNL     1       3.630  -1.380   1.390  0.00  0.00    -0.227 NA
ENDBRANCH   1   2
BRANCH   1  17
ATOM     12  C   UNL     1      -0.019   1.526   0.010  0.00  0.00    +0.007 C 
ATOM     13  C   UNL     1       0.002  -0.004   0.002  0.00  0.00    -0.013 C 
ATOM     14  C   UNL     1      -1.433  -0.534   0.013  0.00  0.00    +0.004 C 
ATOM     15  C   UNL     1      -1.413  -2.063   0.004  0.00  0.00    +0.016 C 
ATOM     16  C   UNL     1      -0.673  -2.570   1.244  0.00  0.00    +0.115 C 
ATOM     17  C   UNL     1       0.763  -2.041   1.233  0.00  0.00    +0.067 C 
ATOM     18  C   UNL     1       0.742  -0.511   1.242  0.00  0.00    +0.018 C 
BRANCH  16  19
ATOM     19  C   UNL     1      -1.378  -2.084   2.484  0.00  0.00    +0.360 C 
ATOM     20  O   UNL     1      -2.539  -2.396   2.686  0.00  0.00    -0.246 OA
ATOM     21  O   UNL     1      -0.787  -1.380   3.285  0.00  0.00    -0.246 OA
ENDBRANCH  16  19
ENDBRANCH   1  17
TORSDOF 3
