REMARK  Name = ZINC63277948
REMARK  4 active torsions:
REMARK  status: ('A' for Active; 'I' for Inactive)
REMARK    1  A    between atoms: C_1  and  C_2
REMARK    2  A    between atoms: C_9  and  C_13
REMARK    3  A    between atoms: C_14  and  C_15
REMARK    4  A    between atoms: C_18  and  C_20
REMARK                            x       y       z     vdW  Elec       q    Type
REMARK                         _______ _______ _______ _____ _____    ______ ____
ROOT
ATOM      1  C   UNL     1      -0.018   1.503   0.010  0.00  0.00    +0.046 C 
ATOM      2  C   UNL     1       0.002  -0.004   0.002  0.00  0.00    -0.024 A 
ATOM      3  C   UNL     1       0.006  -0.684  -1.180  0.00  0.00    +0.005 A 
ATOM      4  C   UNL     1       0.025  -2.075  -1.207  0.00  0.00    +0.001 A 
ATOM      5  C   UNL     1       0.040  -2.799  -0.051  0.00  0.00    +0.015 A 
ATOM      6  C   UNL     1       0.037  -2.134   1.179  0.00  0.00    +0.067 A 
ATOM      7  C   UNL     1       0.023  -0.716   1.210  0.00  0.00    +0.082 A 
ATOM      8  N   UNL     1       0.025  -0.096   2.397  0.00  0.00    -0.226 NA
ATOM      9  C   UNL     1       0.046  -0.798   3.519  0.00  0.00    +0.176 A 
ATOM     10  N   UNL     1       0.065  -2.134   3.531  0.00  0.00    -0.188 NA
ATOM     11  C   UNL     1       0.052  -2.834   2.411  0.00  0.00    +0.281 A 
ATOM     12  O   UNL     1       0.070  -4.186   2.438  0.00  0.00    -0.265 OA
ENDROOT
BRANCH   9  13
ATOM     13  C   UNL     1       0.048  -0.080   4.802  0.00  0.00    +0.087 C 
ATOM     14  C   UNL     1       0.068  -0.769   5.959  0.00  0.00    +0.052 C 
ATOM     15 CL   UNL     1       0.024   1.656   4.825  0.00  0.00    -0.080 Cl
BRANCH  14  16
ATOM     16  C   UNL     1       0.070  -0.050   7.243  0.00  0.00    +0.073 A 
ATOM     17  C   UNL     1       0.096  -0.714   8.447  0.00  0.00    +0.074 A 
ATOM     18  S   UNL     1       0.084   0.663   9.583  0.00  0.00    -0.080 S 
ATOM     19  C   UNL     1       0.048   1.905   8.448  0.00  0.00    +0.082 A 
ATOM     20  N   UNL     1       0.052   1.277   7.304  0.00  0.00    -0.244 NA
BRANCH  19  21
ATOM     21  C   UNL     1       0.024   3.392   8.695  0.00  0.00    +0.045 C 
ATOM     22  C   UNL     1       0.235   3.873  10.132  0.00  0.00    +0.011 C 
ATOM     23  C   UNL     1      -1.153   3.956   9.494  0.00  0.00    +0.011 C 
ENDBRANCH  19  21
ENDBRANCH  14  16
ENDBRANCH   9  13
TORSDOF 3
