REMARK  Name = ZINC13174498
REMARK  7 active torsions:
REMARK  status: ('A' for Active; 'I' for Inactive)
REMARK    1  A    between atoms: C_4  and  C_7
REMARK    2  A    between atoms: C_7  and  N_8
REMARK    3  A    between atoms: C_9  and  C_11
REMARK    4  A    between atoms: C_11  and  S_12
REMARK    5  A    between atoms: S_12  and  C_13
REMARK    6  A    between atoms: C_14  and  C_34
REMARK    7  A    between atoms: C_15  and  C_25
REMARK                            x       y       z     vdW  Elec       q    Type
REMARK                         _______ _______ _______ _____ _____    ______ ____
ROOT
ATOM      1  C   UNL     1       7.737  -2.955   4.667  0.00  0.00    +0.112 C 
ATOM      2  C   UNL     1       8.911  -3.605   5.006  0.00  0.00    +0.073 C 
ATOM      3  C   UNL     1       9.212  -3.771   6.485  0.00  0.00    +0.097 C 
ATOM      4  C   UNL     1       8.179  -3.199   7.438  0.00  0.00    +0.029 C 
ATOM      5  C   UNL     1       8.364  -3.297   8.764  0.00  0.00    +0.162 C 
ATOM      6  C   UNL     1       7.358  -2.741   9.738  0.00  0.00    +0.080 C 
ATOM      7  C   UNL     1       6.649  -1.542   9.102  0.00  0.00    +0.014 C 
ATOM      8  C   UNL     1       5.992  -1.992   7.794  0.00  0.00    +0.056 C 
ATOM      9  C   UNL     1       7.048  -2.574   6.883  0.00  0.00    +0.050 C 
ATOM     10  N   UNL     1       6.893  -2.482   5.586  0.00  0.00    -0.244 NA
ATOM     11  O   UNL     1       9.470  -3.906   9.234  0.00  0.00    -0.292 OA
ENDROOT
BRANCH   3  12
ATOM     12  C   UNL     1      10.533  -3.108   6.775  0.00  0.00    -0.031 A 
ATOM     13  C   UNL     1      10.693  -1.755   6.537  0.00  0.00    +0.008 A 
ATOM     14  C   UNL     1      11.903  -1.142   6.801  0.00  0.00    +0.050 A 
ATOM     15  C   UNL     1      12.960  -1.882   7.306  0.00  0.00    +0.166 A 
ATOM     16  C   UNL     1      12.799  -3.245   7.546  0.00  0.00    +0.167 A 
ATOM     17  C   UNL     1      11.582  -3.852   7.284  0.00  0.00    +0.054 A 
ATOM     18  O   UNL     1      13.972  -3.743   8.037  0.00  0.00    -0.453 OA
ATOM     19  C   UNL     1      14.973  -2.760   7.710  0.00  0.00    +0.466 C 
ATOM     20  O   UNL     1      14.233  -1.527   7.646  0.00  0.00    -0.453 OA
ENDBRANCH   3  12
BRANCH   2  21
ATOM     21  C   UNL     1       9.806  -4.101   4.004  0.00  0.00    +0.098 C 
ATOM     22  N   UNL     1      10.515  -4.494   3.208  0.00  0.00    -0.191 NA
ENDBRANCH   2  21
BRANCH   1  23
ATOM     23  S   UNL     1       7.347  -2.738   2.963  0.00  0.00    -0.096 S 
BRANCH  23  24
ATOM     24  C   UNL     1       5.764  -1.853   2.984  0.00  0.00    +0.171 C 
BRANCH  24  26
ATOM     25  N   UNL     1       4.152  -0.952   1.338  0.00  0.00    -0.311 N 
ATOM     26  C   UNL     1       5.311  -1.601   1.569  0.00  0.00    +0.224 C 
ATOM     27  O   UNL     1       5.989  -1.981   0.638  0.00  0.00    -0.275 OA
ATOM     28  H   UNL     1       3.610  -0.648   2.082  0.00  0.00    +0.149 HD
BRANCH  25  29
ATOM     29  C   UNL     1       3.711  -0.707  -0.038  0.00  0.00    +0.139 C 
BRANCH  29  33
ATOM     30  C   UNL     1      -0.017   1.378   0.010  0.00  0.00    +0.000 A 
ATOM     31  C   UNL     1       1.171   2.086   0.002  0.00  0.00    +0.000 A 
ATOM     32  C   UNL     1       2.377   1.411  -0.013  0.00  0.00    +0.005 A 
ATOM     33  C   UNL     1       2.396   0.029  -0.020  0.00  0.00    -0.030 A 
ATOM     34  C   UNL     1       1.208  -0.679  -0.012  0.00  0.00    +0.005 A 
ATOM     35  C   UNL     1       0.002  -0.004   0.002  0.00  0.00    +0.000 A 
ENDBRANCH  29  33
ENDBRANCH  25  29
ENDBRANCH  24  26
ENDBRANCH  23  24
ENDBRANCH   1  23
TORSDOF 7
