REMARK  Name = ZINC44922944
REMARK  6 active torsions:
REMARK  status: ('A' for Active; 'I' for Inactive)
REMARK    1  A    between atoms: C_1  and  C_2
REMARK    2  A    between atoms: C_2  and  C_4
REMARK    3  A    between atoms: C_2  and  N_11
REMARK    4  A    between atoms: N_11  and  C_12
REMARK    5  A    between atoms: C_12  and  C_14
REMARK    6  A    between atoms: C_12  and  C_15
REMARK                            x       y       z     vdW  Elec       q    Type
REMARK                         _______ _______ _______ _____ _____    ______ ____
ROOT
ATOM      1  N   UNL     1      -1.376  -0.512   0.012  0.00  0.00    +0.390 N 
ATOM      2  H   UNL     1      -1.363  -1.518   0.090  0.00  0.00    -0.084 HD
ATOM      3  H   UNL     1      -1.873  -0.121   0.799  0.00  0.00    -0.084 HD
ENDROOT
BRANCH   1   5
ATOM      4  C   UNL     1      -0.019   1.526   0.010  0.00  0.00    -0.009 C 
ATOM      5  C   UNL     1       0.002  -0.004   0.002  0.00  0.00    -0.043 C 
BRANCH   5   6
ATOM      6  C   UNL     1       0.731  -0.503   1.223  0.00  0.00    -0.061 A 
ATOM      7  C   UNL     1       0.081  -0.558   2.442  0.00  0.00    +0.002 A 
ATOM      8  C   UNL     1       0.749  -1.016   3.562  0.00  0.00    +0.001 A 
ATOM      9  C   UNL     1       2.067  -1.419   3.464  0.00  0.00    +0.015 A 
ATOM     10  C   UNL     1       2.718  -1.365   2.245  0.00  0.00    +0.018 A 
ATOM     11  C   UNL     1       2.048  -0.911   1.123  0.00  0.00    +0.017 A 
ATOM     12 BR   UNL     1       4.522  -1.915   2.110  0.00  0.00    -0.050 Br
ENDBRANCH   5   6
ENDBRANCH   1   5
BRANCH   1  13
ATOM     13  C   UNL     1      -2.050  -0.126  -1.234  0.00  0.00    -0.001 C 
ATOM     14  C   UNL     1      -1.371  -0.820  -2.417  0.00  0.00    -0.006 C 
BRANCH  13  15
ATOM     15  C   UNL     1      -3.498  -0.540  -1.172  0.00  0.00    +0.163 A 
ATOM     16  N   UNL     1      -4.545   0.191  -1.525  0.00  0.00    -0.113 NA
ATOM     17  N   UNL     1      -5.602  -0.518  -1.323  0.00  0.00    -0.021 NA
ATOM     18  N   UNL     1      -5.253  -1.667  -0.856  0.00  0.00    -0.021 NA
ATOM     19  N   UNL     1      -3.968  -1.708  -0.759  0.00  0.00    -0.113 NA
ENDBRANCH  13  15
ENDBRANCH   1  13
TORSDOF 4
