REMARK  Name = ZINC51609703
REMARK  5 active torsions:
REMARK  status: ('A' for Active; 'I' for Inactive)
REMARK    1  A    between atoms: C_3  and  N_19
REMARK    2  A    between atoms: C_4  and  O_8
REMARK    3  A    between atoms: O_8  and  C_9
REMARK    4  A    between atoms: C_11  and  C_15
REMARK    5  A    between atoms: N_16  and  O_17
REMARK                            x       y       z     vdW  Elec       q    Type
REMARK                         _______ _______ _______ _____ _____    ______ ____
ROOT
ATOM      1  C   UNL     1       3.904  -1.819  -0.435  0.00  0.00    +0.221 A 
ATOM      2  C   UNL     1       5.000  -2.608  -0.115  0.00  0.00    +0.079 A 
ATOM      3  C   UNL     1       4.823  -3.986   0.024  0.00  0.00    +0.024 A 
ATOM      4  C   UNL     1       3.540  -4.512  -0.167  0.00  0.00    +0.031 A 
ATOM      5  C   UNL     1       2.505  -3.657  -0.483  0.00  0.00    +0.115 A 
ATOM      6  N   UNL     1       2.708  -2.359  -0.602  0.00  0.00    -0.221 NA
ENDROOT
BRANCH   3   7
ATOM      7  C   UNL     1       5.964  -4.869   0.364  0.00  0.00    +0.163 C 
ATOM      8  N   UNL     1       6.982  -4.392   1.017  0.00  0.00    -0.072 NA
ATOM      9  N   UNL     1       5.945  -6.201  -0.014  0.00  0.00    -0.340 N 
ATOM     10  H   UNL     1       5.185  -6.556  -0.501  0.00  0.00    +0.144 HD
ATOM     11  H   UNL     1       6.692  -6.779   0.209  0.00  0.00    +0.144 HD
BRANCH   8  12
ATOM     12  O   UNL     1       6.937  -3.076   1.536  0.00  0.00    -0.408 OA
ATOM     13  H   UNL     1       7.740  -2.811   2.006  0.00  0.00    +0.328 HD
ENDBRANCH   8  12
ENDBRANCH   3   7
BRANCH   1  14
ATOM     14  O   UNL     1       4.061  -0.479  -0.574  0.00  0.00    -0.436 OA
BRANCH  14  18
ATOM     15  C   UNL     1       0.696   1.802  -1.285  0.00  0.00    +0.022 A 
ATOM     16  C   UNL     1       1.080   1.524   0.014  0.00  0.00    +0.038 A 
ATOM     17  C   UNL     1       2.206   0.761   0.255  0.00  0.00    +0.168 A 
ATOM     18  C   UNL     1       2.953   0.272  -0.808  0.00  0.00    +0.162 A 
ATOM     19  C   UNL     1       2.566   0.551  -2.111  0.00  0.00    +0.068 A 
ATOM     20  C   UNL     1       1.438   1.316  -2.347  0.00  0.00    +0.045 A 
ATOM     21 CL   UNL     1       0.953   1.666  -3.977  0.00  0.00    -0.083 Cl
BRANCH  17  22
ATOM     22  N   UNL     1       2.617   0.465   1.646  0.00  0.00    +0.060 N 
ATOM     23  O   UNL     1       1.966   0.891   2.572  0.00  0.00    -0.126 OA
ATOM     24  O   UNL     1       3.602  -0.203   1.856  0.00  0.00    -0.126 OA
ENDBRANCH  17  22
ENDBRANCH  14  18
ENDBRANCH   1  14
TORSDOF 5
