REMARK  Name = ZINC09634786
REMARK  10 active torsions:
REMARK  status: ('A' for Active; 'I' for Inactive)
REMARK    1  A    between atoms: C_3  and  N_32
REMARK    2  A    between atoms: C_4  and  N_29
REMARK    3  A    between atoms: C_6  and  S_7
REMARK    4  A    between atoms: S_7  and  N_10
REMARK    5  A    between atoms: N_10  and  C_11
REMARK    6  A    between atoms: C_11  and  C_12
REMARK    7  A    between atoms: C_12  and  O_14
REMARK    8  A    between atoms: O_14  and  C_15
REMARK    9  A    between atoms: C_15  and  C_16
REMARK   10  A    between atoms: N_18  and  C_19
REMARK                            x       y       z     vdW  Elec       q    Type
REMARK                         _______ _______ _______ _____ _____    ______ ____
ROOT
ATOM      1  C   UNL     1       1.691   1.593  -0.679  0.00  0.00    +0.226 C 
ENDROOT
BRANCH   1   2
ATOM      2  N   UNL     1       0.454   0.834  -0.481  0.00  0.00    -0.179 NA
ATOM      3  H   UNL     1       0.463  -0.134  -0.542  0.00  0.00    +0.149 HD
BRANCH   2   4
ATOM      4  S   UNL     1      -0.963   1.629  -0.158  0.00  0.00    +0.059 S 
ATOM      5  O   UNL     1      -1.972   0.634  -0.052  0.00  0.00    -0.153 OA
ATOM      6  O   UNL     1      -0.683   2.546   0.891  0.00  0.00    -0.153 OA
BRANCH   4  12
ATOM      7  C   UNL     1      -0.892   3.893  -1.679  0.00  0.00    +0.030 A 
ATOM      8  C   UNL     1      -1.193   4.651  -2.794  0.00  0.00    +0.027 A 
ATOM      9  C   UNL     1      -1.970   4.110  -3.811  0.00  0.00    +0.055 A 
ATOM     10  C   UNL     1      -2.437   2.805  -3.704  0.00  0.00    +0.149 A 
ATOM     11  C   UNL     1      -2.127   2.052  -2.590  0.00  0.00    +0.063 A 
ATOM     12  C   UNL     1      -1.354   2.594  -1.579  0.00  0.00    +0.108 A 
BRANCH  10  13
ATOM     13  N   UNL     1      -3.264   2.224  -4.785  0.00  0.00    +0.058 N 
ATOM     14  O   UNL     1      -3.767   1.124  -4.643  0.00  0.00    -0.126 OA
ATOM     15  O   UNL     1      -3.442   2.846  -5.817  0.00  0.00    -0.126 OA
ENDBRANCH  10  13
BRANCH   9  16
ATOM     16  N   UNL     1      -2.281   4.875  -4.937  0.00  0.00    -0.356 N 
ATOM     17  H   UNL     1      -3.070   4.668  -5.461  0.00  0.00    +0.142 HD
ATOM     18  H   UNL     1      -1.707   5.613  -5.195  0.00  0.00    +0.142 HD
ENDBRANCH   9  16
ENDBRANCH   4  12
ENDBRANCH   2   4
ENDBRANCH   1   2
BRANCH   1  19
ATOM     19  C   UNL     1       2.871   0.660  -0.595  0.00  0.00    +0.323 C 
ATOM     20  O   UNL     1       2.697  -0.518  -0.391  0.00  0.00    -0.249 OA
BRANCH  19  21
ATOM     21  O   UNL     1       4.117   1.137  -0.748  0.00  0.00    -0.454 OA
BRANCH  21  22
ATOM     22  C   UNL     1       5.205   0.181  -0.655  0.00  0.00    +0.327 C 
BRANCH  22  23
ATOM     23  C   UNL     1       6.518   0.894  -0.851  0.00  0.00    +0.251 C 
ATOM     24  O   UNL     1       6.535   2.091  -1.049  0.00  0.00    -0.272 OA
ATOM     25  N   UNL     1       7.674   0.203  -0.805  0.00  0.00    -0.307 N 
ATOM     26  H   UNL     1       7.661  -0.754  -0.646  0.00  0.00    +0.149 HD
BRANCH  25  27
ATOM     27  C   UNL     1       8.951   0.896  -0.995  0.00  0.00    +0.035 C 
ATOM     28  C   UNL     1       8.970   1.559  -2.374  0.00  0.00    +0.029 C 
ATOM     29  C   UNL     1      10.303   2.283  -2.572  0.00  0.00    -0.008 C 
ATOM     30  C   UNL     1      11.451   1.276  -2.474  0.00  0.00    +0.007 C 
ATOM     31  C   UNL     1      11.431   0.613  -1.096  0.00  0.00    -0.008 C 
ATOM     32  C   UNL     1      10.098  -0.111  -0.897  0.00  0.00    +0.029 C 
ATOM     33  C   UNL     1      11.597   1.682  -0.013  0.00  0.00    +0.007 C 
ATOM     34  C   UNL     1      10.450   2.689  -0.112  0.00  0.00    -0.008 C 
ATOM     35  C   UNL     1      10.469   3.352  -1.490  0.00  0.00    +0.007 C 
ATOM     36  C   UNL     1       9.117   1.965   0.087  0.00  0.00    +0.029 C 
ENDBRANCH  25  27
ENDBRANCH  22  23
ENDBRANCH  21  22
ENDBRANCH  19  21
ENDBRANCH   1  19
TORSDOF 10
