REMARK  Name = ZINC20558546
REMARK  6 active torsions:
REMARK  status: ('A' for Active; 'I' for Inactive)
REMARK    1  A    between atoms: C_1  and  C_2
REMARK    2  A    between atoms: C_7  and  C_8
REMARK    3  A    between atoms: C_10  and  C_34
REMARK    4  A    between atoms: C_11  and  N_33
REMARK    5  A    between atoms: N_18  and  C_25
REMARK    6  A    between atoms: C_25  and  C_26
REMARK                            x       y       z     vdW  Elec       q    Type
REMARK                         _______ _______ _______ _____ _____    ______ ____
ROOT
ATOM      1  C   UNL     1       4.546   3.896   4.013  0.00  0.00    +0.118 C 
ATOM      2  C   UNL     1       4.543   3.805   5.514  0.00  0.00    +0.099 C 
ATOM      3  C   UNL     1       3.386   3.561   6.181  0.00  0.00    +0.199 C 
ATOM      4  O   UNL     1       2.227   3.394   5.525  0.00  0.00    -0.439 OA
ATOM      5  C   UNL     1       2.081   3.862   4.256  0.00  0.00    +0.162 C 
ATOM      6  C   UNL     1       3.148   4.111   3.503  0.00  0.00    +0.141 C 
ATOM      7  S   UNL     1       2.908   4.714   1.857  0.00  0.00    +0.076 S 
ATOM      8  O   UNL     1       3.850   4.047   1.028  0.00  0.00    -0.150 OA
ATOM      9  O   UNL     1       2.823   6.130   1.941  0.00  0.00    -0.150 OA
ATOM     10  N   UNL     1       1.399   4.161   1.421  0.00  0.00    -0.198 N 
ATOM     11  C   UNL     1       0.396   4.217   2.396  0.00  0.00    +0.062 A 
ATOM     12  C   UNL     1       0.704   4.078   3.753  0.00  0.00    +0.042 A 
ATOM     13  C   UNL     1      -0.332   4.148   4.693  0.00  0.00    +0.013 A 
ATOM     14  C   UNL     1      -1.637   4.357   4.275  0.00  0.00    +0.001 A 
ATOM     15  C   UNL     1      -1.930   4.482   2.929  0.00  0.00    +0.002 A 
ATOM     16  C   UNL     1      -0.918   4.413   1.991  0.00  0.00    +0.025 A 
ENDROOT
BRANCH   1  23
ATOM     17  C   UNL     1       7.046   3.921   2.565  0.00  0.00    +0.044 C 
ATOM     18  C   UNL     1       6.292   2.629   2.744  0.00  0.00    -0.046 A 
ATOM     19  C   UNL     1       6.797   1.455   2.215  0.00  0.00    +0.003 A 
ATOM     20  C   UNL     1       6.106   0.270   2.379  0.00  0.00    +0.000 A 
ATOM     21  C   UNL     1       4.910   0.257   3.073  0.00  0.00    +0.000 A 
ATOM     22  C   UNL     1       4.407   1.430   3.605  0.00  0.00    +0.005 A 
ATOM     23  C   UNL     1       5.096   2.616   3.436  0.00  0.00    -0.030 A 
ENDBRANCH   1  23
BRANCH   3  24
ATOM     24  N   UNL     1       3.402   3.484   7.551  0.00  0.00    -0.328 N 
ATOM     25  H   UNL     1       2.471   3.287   8.102  0.00  0.00    +0.145 HD
ATOM     26  H   UNL     1       4.347   3.619   8.099  0.00  0.00    +0.145 HD
ENDBRANCH   3  24
BRANCH   2  27
ATOM     27  C   UNL     1       5.764   3.976   6.242  0.00  0.00    +0.101 C 
ATOM     28  N   UNL     1       6.732   4.112   6.820  0.00  0.00    -0.191 NA
ENDBRANCH   2  27
BRANCH  10  29
ATOM     29  C   UNL     1       1.132   3.644   0.077  0.00  0.00    +0.169 C 
BRANCH  29  30
ATOM     30  C   UNL     1       0.809   2.174   0.159  0.00  0.00    +0.007 A 
ATOM     31  C   UNL     1      -0.505   1.750   0.093  0.00  0.00    +0.008 A 
ATOM     32  C   UNL     1      -0.802   0.403   0.167  0.00  0.00    +0.000 A 
ATOM     33  C   UNL     1       0.215  -0.523   0.307  0.00  0.00    +0.003 A 
ATOM     34  C   UNL     1       1.530  -0.102   0.373  0.00  0.00    +0.038 A 
ATOM     35  C   UNL     1       1.828   1.248   0.298  0.00  0.00    +0.128 A 
ATOM     36  F   UNL     1       3.113   1.661   0.363  0.00  0.00    -0.205 F 
ENDBRANCH  29  30
ENDBRANCH  10  29
TORSDOF 5
