REMARK  Name = ZINC61564491
REMARK  8 active torsions:
REMARK  status: ('A' for Active; 'I' for Inactive)
REMARK    1  A    between atoms: C_1  and  C_2
REMARK    2  A    between atoms: C_2  and  C_3
REMARK    3  A    between atoms: C_2  and  C_4
REMARK    4  A    between atoms: C_2  and  C_5
REMARK    5  A    between atoms: C_5  and  C_7
REMARK    6  A    between atoms: C_5  and  N_21
REMARK    7  A    between atoms: N_9  and  C_10
REMARK    8  A    between atoms: C_15  and  C_16
REMARK                            x       y       z     vdW  Elec       q    Type
REMARK                         _______ _______ _______ _____ _____    ______ ____
ROOT
ATOM      1  C   UNL     1       2.132   0.024  -1.270  0.00  0.00    +0.203 C 
ATOM      2  O   UNL     1       3.047  -0.698  -0.937  0.00  0.00    -0.277 OA
ATOM      3  N   UNL     1       2.380   1.290  -1.661  0.00  0.00    -0.286 N 
ATOM      4  H   UNL     1       1.660   1.842  -2.003  0.00  0.00    +0.155 HD
ENDROOT
BRANCH   3   5
ATOM      5  C   UNL     1       3.671   1.805  -1.573  0.00  0.00    +0.050 A 
ATOM      6  C   UNL     1       4.568   1.284  -0.652  0.00  0.00    +0.065 A 
ATOM      7  C   UNL     1       5.850   1.796  -0.567  0.00  0.00    +0.160 A 
ATOM      8  C   UNL     1       6.249   2.835  -1.400  0.00  0.00    +0.159 A 
ATOM      9  C   UNL     1       5.370   3.365  -2.320  0.00  0.00    +0.058 A 
ATOM     10  C   UNL     1       4.072   2.851  -2.421  0.00  0.00    +0.087 A 
ATOM     11  F   UNL     1       7.503   3.328  -1.307  0.00  0.00    -0.202 F 
ATOM     12  F   UNL     1       6.719   1.284   0.332  0.00  0.00    -0.202 F 
BRANCH  10  13
ATOM     13  C   UNL     1       3.132   3.408  -3.404  0.00  0.00    +0.388 C 
ATOM     14  O   UNL     1       3.510   4.255  -4.201  0.00  0.00    -0.241 OA
ATOM     15  O   UNL     1       1.970   3.023  -3.425  0.00  0.00    -0.241 OA
ENDBRANCH  10  13
ENDBRANCH   3   5
BRANCH   1  16
ATOM     16  C   UNL     1       0.716  -0.493  -1.246  0.00  0.00    +0.019 C 
BRANCH  16  18
ATOM     17  C   UNL     1       0.000   1.526   0.040  0.00  0.00    +0.009 C 
ATOM     18  C   UNL     1       0.016  -0.004   0.023  0.00  0.00    -0.042 C 
ATOM     19  C   UNL     1       0.768  -0.519   1.252  0.00  0.00    +0.009 C 
ATOM     20  C   UNL     1      -1.421  -0.529   0.047  0.00  0.00    +0.009 C 
ENDBRANCH  16  18
BRANCH  16  21
ATOM     21  N   UNL     1       0.732  -1.962  -1.262  0.00  0.00    +0.386 N 
ATOM     22  H   UNL     1      -0.216  -2.308  -1.246  0.00  0.00    -0.089 HD
ATOM     23  H   UNL     1       1.193  -2.284  -2.099  0.00  0.00    -0.089 HD
ATOM     24  H   UNL     1       1.228  -2.302  -0.452  0.00  0.00    -0.089 HD
ENDBRANCH  16  21
ENDBRANCH   1  16
TORSDOF 5
