REMARK  Name = ZINC12888879
REMARK  13 active torsions:
REMARK  status: ('A' for Active; 'I' for Inactive)
REMARK    1  A    between atoms: CD1_1  and  CG1_2
REMARK    2  A    between atoms: CG1_2  and  CB_3
REMARK    3  A    between atoms: CB_3  and  CG2_5
REMARK    4  A    between atoms: CB_3  and  CA_6
REMARK    5  A    between atoms: CA_6  and  C_8
REMARK    6  A    between atoms: CA_6  and  N_16
REMARK    7  A    between atoms: N_10  and  CA_11
REMARK    8  A    between atoms: CA_11  and  CB_13
REMARK    9  A    between atoms: CA_11  and  C_14
REMARK   10  A    between atoms: C_17  and  C_19
REMARK   11  A    between atoms: C_19  and  C_21
REMARK   12  A    between atoms: C_19  and  N_28
REMARK   13  A    between atoms: C_21  and  C_22
REMARK                            x       y       z     vdW  Elec       q    Type
REMARK                         _______ _______ _______ _____ _____    ______ ____
ROOT
ATOM      1  C   UNK A   0      -0.322   2.031   1.054  0.00  0.00    +0.185 C 
ENDROOT
BRANCH   1   2
ATOM      2  N   UNK A   0      -1.673   1.502   0.852  0.00  0.00    -0.248 N 
ATOM      3  C   UNK A   0      -2.723   2.351   0.849  0.00  0.00    +0.265 A 
ATOM      4  O   UNK A   0      -2.560   3.545   1.010  0.00  0.00    -0.267 OA
ATOM      5  C   UNK A   0      -4.072   1.793   0.640  0.00  0.00    +0.063 A 
ATOM      6  C   UNK A   0      -5.204   2.604   0.620  0.00  0.00    +0.015 A 
ATOM      7  C   UNK A   0      -6.444   2.033   0.425  0.00  0.00    +0.001 A 
ATOM      8  C   UNK A   0      -6.567   0.662   0.251  0.00  0.00    +0.002 A 
ATOM      9  C   UNK A   0      -5.452  -0.152   0.270  0.00  0.00    +0.026 A 
ATOM     10  C   UNK A   0      -4.197   0.404   0.465  0.00  0.00    +0.056 A 
ATOM     11  N   UNK A   0      -3.051  -0.378   0.491  0.00  0.00    -0.307 N 
ATOM     12  H   UNK A   0      -3.122  -1.338   0.371  0.00  0.00    +0.170 HD
ATOM     13  C   UNK A   0      -1.844   0.182   0.681  0.00  0.00    +0.330 A 
ATOM     14  O   UNK A   0      -0.865  -0.539   0.697  0.00  0.00    -0.246 OA
ENDBRANCH   1   2
BRANCH   1  16
ATOM     15  N   ALA A   1       1.527   1.753   2.673  0.00  0.00    -0.302 N 
ATOM     16  C   UNK A   0       0.281   1.413   2.289  0.00  0.00    +0.237 C 
ATOM     17  O   UNK A   0      -0.355   0.610   2.937  0.00  0.00    -0.274 OA
ATOM     18  H   ALA A   1       2.036   2.396   2.154  0.00  0.00    +0.150 HD
BRANCH  15  19
ATOM     19  CA  ALA A   1       2.113   1.153   3.874  0.00  0.00    +0.162 C 
BRANCH  19  20
ATOM     20  C   ALA A   1       3.167   2.073   4.433  0.00  0.00    +0.234 C 
ATOM     21  O   ALA A   1       3.753   2.840   3.699  0.00  0.00    -0.274 OA
ATOM     22  N   ALA A   1       3.459   2.044   5.749  0.00  0.00    -0.301 N 
ATOM     23  H   ALA A   1       3.043   1.382   6.323  0.00  0.00    +0.150 HD
BRANCH  22  24
ATOM     24  CA  ALA A   1       4.403   3.012   6.311  0.00  0.00    +0.183 C 
ATOM     25  CB  ALA A   1       3.663   4.307   6.654  0.00  0.00    +0.040 C 
BRANCH  24  26
ATOM     26  C   ALA A   1       5.022   2.442   7.561  0.00  0.00    +0.376 C 
ATOM     27  O   ALA A   1       4.707   1.339   7.943  0.00  0.00    -0.244 OA
ATOM     28  OXT ALA A   1       5.924   3.158   8.251  0.00  0.00    -0.244 OA
ENDBRANCH  24  26
ENDBRANCH  22  24
ENDBRANCH  19  20
BRANCH  19  29
ATOM     29  CB  ALA A   1       2.749  -0.192   3.514  0.00  0.00    +0.015 C 
ATOM     30  CG2 ALA A   1       3.247  -0.878   4.787  0.00  0.00    +0.010 C 
BRANCH  29  32
ATOM     31  CD1 ALA A   1       4.484  -1.309   2.106  0.00  0.00    +0.004 C 
ATOM     32  CG1 ALA A   1       3.927   0.040   2.565  0.00  0.00    +0.002 C 
ENDBRANCH  29  32
ENDBRANCH  19  29
ENDBRANCH  15  19
ENDBRANCH   1  16
BRANCH   1  33
ATOM     33  C   UNK A   0       0.545   1.692  -0.161  0.00  0.00    +0.070 C 
BRANCH  33  34
ATOM     34  C   UNK A   0       0.012   2.410  -1.374  0.00  0.00    -0.045 A 
ATOM     35  C   UNK A   0      -0.935   1.801  -2.177  0.00  0.00    +0.004 A 
ATOM     36  C   UNK A   0      -1.427   2.462  -3.287  0.00  0.00    +0.000 A 
ATOM     37  C   UNK A   0      -0.965   3.726  -3.600  0.00  0.00    +0.000 A 
ATOM     38  C   UNK A   0      -0.014   4.332  -2.801  0.00  0.00    +0.000 A 
ATOM     39  C   UNK A   0       0.474   3.674  -1.688  0.00  0.00    +0.004 A 
ENDBRANCH  33  34
ENDBRANCH   1  33
TORSDOF 10
