REMARK  Name = ZINC67587758
REMARK  9 active torsions:
REMARK  status: ('A' for Active; 'I' for Inactive)
REMARK    1  A    between atoms: C_4  and  C_7
REMARK    2  A    between atoms: C_7  and  C_8
REMARK    3  A    between atoms: C_8  and  C_9
REMARK    4  A    between atoms: C_9  and  N_10
REMARK    5  A    between atoms: C_14  and  C_17
REMARK    6  A    between atoms: C_14  and  O_26
REMARK    7  A    between atoms: C_17  and  N_18
REMARK    8  A    between atoms: N_18  and  C_19
REMARK    9  A    between atoms: C_22  and  O_25
REMARK                            x       y       z     vdW  Elec       q    Type
REMARK                         _______ _______ _______ _____ _____    ______ ____
ROOT
ATOM      1  N   UNL     1       5.954  -1.961   2.756  0.00  0.00    -0.299 N 
ATOM      2  C   UNL     1       6.791  -0.955   3.397  0.00  0.00    +0.108 C 
ATOM      3  C   UNL     1       7.532  -1.557   4.591  0.00  0.00    +0.022 C 
ATOM      4  C   UNL     1       6.516  -2.279   5.485  0.00  0.00    +0.044 C 
ATOM      5  C   UNL     1       5.984  -3.497   4.726  0.00  0.00    +0.127 C 
ATOM      6  C   UNL     1       5.561  -3.091   3.343  0.00  0.00    +0.245 C 
ATOM      7  O   UNL     1       4.826  -3.833   2.726  0.00  0.00    -0.273 OA
ENDROOT
BRANCH   5   8
ATOM      8  O   UNL     1       7.010  -4.489   4.641  0.00  0.00    -0.381 OA
ATOM      9  H   UNL     1       7.807  -4.192   4.182  0.00  0.00    +0.211 HD
ENDBRANCH   5   8
BRANCH   1  10
ATOM     10  C   UNL     1       5.511  -1.711   1.381  0.00  0.00    +0.108 C 
BRANCH  10  11
ATOM     11  C   UNL     1       4.181  -0.956   1.403  0.00  0.00    +0.024 C 
BRANCH  11  12
ATOM     12  C   UNL     1       3.719  -0.695  -0.032  0.00  0.00    +0.036 C 
BRANCH  12  16
ATOM     13  C   UNL     1       0.005   1.415   0.028  0.00  0.00    +0.000 A 
ATOM     14  C   UNL     1       1.197   2.114   0.018  0.00  0.00    +0.000 A 
ATOM     15  C   UNL     1       2.399   1.432  -0.002  0.00  0.00    +0.003 A 
ATOM     16  C   UNL     1       2.408   0.049  -0.010  0.00  0.00    -0.047 A 
ATOM     17  C   UNL     1       1.216  -0.650   0.001  0.00  0.00    +0.003 A 
ATOM     18  C   UNL     1       0.014   0.033   0.019  0.00  0.00    +0.000 A 
ENDBRANCH  12  16
ENDBRANCH  11  12
ENDBRANCH  10  11
ENDBRANCH   1  10
BRANCH   5  19
ATOM     19  C   UNL     1       4.781  -4.076   5.473  0.00  0.00    -0.037 C 
BRANCH  19  20
ATOM     20  N   UNL     1       5.190  -4.477   6.825  0.00  0.00    +0.383 N 
ATOM     21  H   UNL     1       5.974  -5.109   6.766  0.00  0.00    -0.085 HD
ATOM     22  H   UNL     1       5.458  -3.659   7.352  0.00  0.00    -0.085 HD
BRANCH  20  23
ATOM     23  C   UNL     1       4.070  -5.148   7.498  0.00  0.00    -0.072 C 
ATOM     24  C   UNL     1       2.926  -4.151   7.700  0.00  0.00    -0.013 C 
ATOM     25  C   UNL     1       1.759  -4.850   8.400  0.00  0.00    +0.030 C 
ATOM     26  C   UNL     1       2.222  -5.378   9.760  0.00  0.00    +0.114 C 
ATOM     27  C   UNL     1       3.365  -6.374   9.558  0.00  0.00    +0.030 C 
ATOM     28  C   UNL     1       4.533  -5.675   8.857  0.00  0.00    -0.013 C 
BRANCH  26  29
ATOM     29  O   UNL     1       1.132  -6.030  10.414  0.00  0.00    -0.392 OA
ATOM     30  H   UNL     1       1.354  -6.390  11.284  0.00  0.00    +0.210 HD
ENDBRANCH  26  29
ENDBRANCH  20  23
ENDBRANCH  19  20
ENDBRANCH   5  19
TORSDOF 9
