REMARK  Name = ZINC41402867
REMARK  6 active torsions:
REMARK  status: ('A' for Active; 'I' for Inactive)
REMARK    1  A    between atoms: C_1  and  C_2
REMARK    2  A    between atoms: C_5  and  O_18
REMARK    3  A    between atoms: C_6  and  N_8
REMARK    4  A    between atoms: C_9  and  N_17
REMARK    5  A    between atoms: C_11  and  C_13
REMARK    6  A    between atoms: O_18  and  C_19
REMARK                            x       y       z     vdW  Elec       q    Type
REMARK                         _______ _______ _______ _____ _____    ______ ____
ROOT
ATOM      1  N   UNL     1       0.066  -2.785   2.407  0.00  0.00    -0.215 N 
ATOM      2  C   UNL     1      -0.658  -2.486   3.519  0.00  0.00    +0.120 A 
ATOM      3  C   UNL     1      -0.374  -3.432   4.457  0.00  0.00    +0.077 A 
ATOM      4  C   UNL     1       0.545  -4.325   3.901  0.00  0.00    +0.167 A 
ATOM      5  N   UNL     1       0.805  -3.944   2.676  0.00  0.00    -0.161 NA
ENDROOT
BRANCH   1  11
ATOM      6  C   UNL     1       0.360   1.524   0.053  0.00  0.00    +0.044 C 
ATOM      7  C   UNL     1       0.208   0.025   0.034  0.00  0.00    -0.048 A 
ATOM      8  C   UNL     1       0.071  -0.639  -1.172  0.00  0.00    +0.007 A 
ATOM      9  C   UNL     1      -0.069  -2.014  -1.196  0.00  0.00    +0.048 A 
ATOM     10  C   UNL     1      -0.071  -2.731  -0.011  0.00  0.00    +0.145 A 
ATOM     11  C   UNL     1       0.068  -2.063   1.204  0.00  0.00    +0.109 A 
ATOM     12  C   UNL     1       0.213  -0.684   1.220  0.00  0.00    +0.035 A 
BRANCH  10  13
ATOM     13  O   UNL     1      -0.208  -4.084  -0.033  0.00  0.00    -0.493 OA
ATOM     14  C   UNL     1      -0.346  -4.701  -1.315  0.00  0.00    +0.277 C 
ENDBRANCH  10  13
ENDBRANCH   1  11
BRANCH   4  15
ATOM     15  C   UNL     1       1.134  -5.528   4.591  0.00  0.00    +0.436 C 
ATOM     16  F   UNL     1       0.322  -6.644   4.358  0.00  0.00    -0.164 F 
ATOM     17  F   UNL     1       2.417  -5.772   4.091  0.00  0.00    -0.164 F 
ATOM     18  F   UNL     1       1.208  -5.286   5.967  0.00  0.00    -0.164 F 
ENDBRANCH   4  15
BRANCH   2  19
ATOM     19  N   UNL     1      -1.529  -1.411   3.671  0.00  0.00    -0.343 N 
ATOM     20  H   UNL     1      -1.731  -0.840   2.914  0.00  0.00    +0.144 HD
ATOM     21  H   UNL     1      -1.935  -1.234   4.534  0.00  0.00    +0.144 HD
ENDBRANCH   2  19
TORSDOF 4
