REMARK  Name = ZINC38448421
REMARK  8 active torsions:
REMARK  status: ('A' for Active; 'I' for Inactive)
REMARK    1  A    between atoms: C_1  and  C_2
REMARK    2  A    between atoms: C_2  and  N_3
REMARK    3  A    between atoms: C_7  and  C_9
REMARK    4  A    between atoms: C_9  and  N_10
REMARK    5  A    between atoms: N_10  and  C_11
REMARK    6  A    between atoms: N_10  and  C_13
REMARK    7  A    between atoms: C_11  and  C_12
REMARK    8  A    between atoms: C_13  and  C_14
REMARK                            x       y       z     vdW  Elec       q    Type
REMARK                         _______ _______ _______ _____ _____    ______ ____
ROOT
ATOM      1  N   UNL     1       2.200  -5.380   3.719  0.00  0.00    -0.287 NA
ENDROOT
BRANCH   1   2
ATOM      2  C   UNL     1       3.183  -5.792   2.707  0.00  0.00    +0.082 C 
ATOM      3  C   UNL     1       2.975  -7.269   2.367  0.00  0.00    +0.020 C 
ENDBRANCH   1   2
BRANCH   1   4
ATOM      4  C   UNL     1       2.122  -3.915   3.810  0.00  0.00    +0.181 C 
BRANCH   4   9
ATOM      5  N   UNL     1       0.747  -0.204   1.082  0.00  0.00    -0.299 N 
ATOM      6  C   UNL     1       0.909  -1.534   1.228  0.00  0.00    +0.306 C 
ATOM      7  O   UNL     1       0.607  -2.286   0.322  0.00  0.00    -0.252 OA
ATOM      8  N   UNL     1       1.405  -2.030   2.378  0.00  0.00    -0.239 N 
ATOM      9  C   UNL     1       1.567  -3.360   2.524  0.00  0.00    +0.234 C 
ATOM     10  O   UNL     1       1.266  -4.110   1.620  0.00  0.00    -0.274 OA
ATOM     11  H   UNL     1       0.987   0.396   1.805  0.00  0.00    +0.150 HD
ATOM     12  H   UNL     1       1.646  -1.430   3.101  0.00  0.00    +0.159 HD
BRANCH   5  14
ATOM     13  C   UNL     1       0.126   1.860  -0.073  0.00  0.00    +0.024 C 
ATOM     14  C   UNL     1       0.207   0.336  -0.169  0.00  0.00    +0.102 C 
ENDBRANCH   5  14
ENDBRANCH   4   9
ENDBRANCH   1   4
BRANCH   1  15
ATOM     15  C   UNL     1       2.510  -5.973   5.026  0.00  0.00    +0.159 C 
BRANCH  15  16
ATOM     16  C   UNL     1       1.277  -5.951   5.893  0.00  0.00    +0.125 A 
ATOM     17  N   UNL     1       1.392  -6.348   7.187  0.00  0.00    -0.309 N 
ATOM     18  H   UNL     1       2.254  -6.635   7.527  0.00  0.00    +0.170 HD
ATOM     19  C   UNL     1       0.315  -6.346   8.006  0.00  0.00    +0.259 A 
ATOM     20  O   UNL     1       0.403  -6.698   9.168  0.00  0.00    -0.267 OA
ATOM     21  C   UNL     1      -0.967  -5.900   7.438  0.00  0.00    +0.065 A 
ATOM     22  C   UNL     1      -2.135  -5.861   8.197  0.00  0.00    +0.015 A 
ATOM     23  C   UNL     1      -3.308  -5.436   7.614  0.00  0.00    +0.001 A 
ATOM     24  C   UNL     1      -3.335  -5.047   6.281  0.00  0.00    +0.002 A 
ATOM     25  C   UNL     1      -2.192  -5.079   5.514  0.00  0.00    +0.028 A 
ATOM     26  C   UNL     1      -0.990  -5.506   6.082  0.00  0.00    +0.078 A 
ATOM     27  N   UNL     1       0.161  -5.548   5.365  0.00  0.00    -0.232 NA
ENDBRANCH  15  16
ENDBRANCH   1  15
TORSDOF 6
