REMARK  Name = ZINC39634410
REMARK  8 active torsions:
REMARK  status: ('A' for Active; 'I' for Inactive)
REMARK    1  A    between atoms: C_1  and  C_2
REMARK    2  A    between atoms: C_5  and  C_8
REMARK    3  A    between atoms: C_8  and  N_9
REMARK    4  A    between atoms: C_10  and  C_12
REMARK    5  A    between atoms: C_23  and  C_25
REMARK    6  A    between atoms: C_25  and  O_26
REMARK    7  A    between atoms: O_26  and  C_27
REMARK    8  A    between atoms: C_37  and  C_38
REMARK                            x       y       z     vdW  Elec       q    Type
REMARK                         _______ _______ _______ _____ _____    ______ ____
ROOT
ATOM      1  C   UNL     1       3.137  -6.551  -0.051  0.00  0.00    +0.100 C 
ATOM      2  C   UNL     1       3.900  -6.003   1.176  0.00  0.00    +0.121 C 
ATOM      3  N   UNL     1       3.805  -7.081   2.188  0.00  0.00    -0.297 N 
ATOM      4  C   UNL     1       3.965  -8.333   1.411  0.00  0.00    +0.115 C 
ATOM      5  C   UNL     1       3.185  -8.081   0.105  0.00  0.00    -0.004 C 
ATOM      6  C   UNL     1       3.917  -8.710  -1.077  0.00  0.00    -0.010 C 
ATOM      7  C   UNL     1       3.901 -10.234  -0.929  0.00  0.00    -0.082 C 
ATOM      8  N   UNL     1       2.512 -10.708  -0.878  0.00  0.00    +0.379 N 
ATOM      9  C   UNL     1       1.843 -10.171   0.314  0.00  0.00    -0.082 C 
ATOM     10  C   UNL     1       1.772  -8.645   0.218  0.00  0.00    -0.010 C 
ATOM     11  C   UNL     1       3.615  -6.952   3.517  0.00  0.00    +0.253 C 
ATOM     12  O   UNL     1       3.559  -7.938   4.220  0.00  0.00    -0.272 OA
ATOM     13  H   UNL     1       2.022 -10.399  -1.704  0.00  0.00    -0.086 HD
ATOM     14  H   UNL     1       2.503 -11.716  -0.842  0.00  0.00    -0.086 HD
ENDROOT
BRANCH   1  16
ATOM     15  N   UNL     1       1.040  -5.919  -1.200  0.00  0.00    -0.311 N 
ATOM     16  C   UNL     1       1.710  -6.067  -0.040  0.00  0.00    +0.218 C 
ATOM     17  O   UNL     1       1.164  -5.812   1.012  0.00  0.00    -0.275 OA
ATOM     18  H   UNL     1       1.477  -6.123  -2.042  0.00  0.00    +0.149 HD
BRANCH  15  19
ATOM     19  C   UNL     1      -0.347  -5.448  -1.190  0.00  0.00    +0.139 C 
BRANCH  19  24
ATOM     20  C   UNL     1      -2.321  -5.144  -6.613  0.00  0.00    +0.044 C 
ATOM     21  C   UNL     1      -1.806  -5.223  -5.199  0.00  0.00    -0.050 A 
ATOM     22  C   UNL     1      -1.952  -6.391  -4.474  0.00  0.00    +0.003 A 
ATOM     23  C   UNL     1      -1.480  -6.464  -3.177  0.00  0.00    +0.005 A 
ATOM     24  C   UNL     1      -0.861  -5.369  -2.605  0.00  0.00    -0.030 A 
ATOM     25  C   UNL     1      -0.714  -4.201  -3.329  0.00  0.00    +0.005 A 
ATOM     26  C   UNL     1      -1.183  -4.129  -4.628  0.00  0.00    +0.003 A 
ENDBRANCH  19  24
ENDBRANCH  15  19
ENDBRANCH   1  16
BRANCH  11  27
ATOM     27  C   UNL     1       3.473  -5.582   4.128  0.00  0.00    +0.324 C 
BRANCH  27  28
ATOM     28  O   UNL     1       3.282  -5.707   5.538  0.00  0.00    -0.479 OA
BRANCH  28  29
ATOM     29  C   UNL     1       3.136  -4.555   6.246  0.00  0.00    +0.164 A 
ATOM     30  C   UNL     1       3.168  -3.334   5.597  0.00  0.00    +0.049 A 
ATOM     31  C   UNL     1       3.020  -2.152   6.308  0.00  0.00    +0.004 A 
ATOM     32  C   UNL     1       2.837  -2.178   7.672  0.00  0.00    +0.012 A 
ATOM     33  C   UNL     1       2.801  -3.404   8.344  0.00  0.00    +0.024 A 
ATOM     34  C   UNL     1       2.946  -4.603   7.626  0.00  0.00    +0.181 A 
ATOM     35  O   UNL     1       2.906  -5.786   8.276  0.00  0.00    -0.418 OA
ATOM     36  C   UNL     1       2.725  -5.849   9.604  0.00  0.00    +0.338 A 
ATOM     37  O   UNL     1       2.696  -6.939  10.148  0.00  0.00    -0.245 OA
ATOM     38  C   UNL     1       2.567  -4.685  10.387  0.00  0.00    +0.096 A 
ATOM     39  C   UNL     1       2.609  -3.464   9.796  0.00  0.00    -0.033 A 
ATOM     40  C   UNL     1       2.444  -2.205  10.608  0.00  0.00    +0.045 C 
ENDBRANCH  28  29
ENDBRANCH  27  28
ENDBRANCH  11  27
TORSDOF 6
