REMARK  Name = ZINC62827846
REMARK  4 active torsions:
REMARK  status: ('A' for Active; 'I' for Inactive)
REMARK    1  A    between atoms: C_1  and  C_2
REMARK    2  A    between atoms: C_6  and  C_10
REMARK    3  A    between atoms: N_13  and  C_14
REMARK    4  A    between atoms: C_15  and  C_19
REMARK                            x       y       z     vdW  Elec       q    Type
REMARK                         _______ _______ _______ _____ _____    ______ ____
ROOT
ATOM      1  C   UNL     1       0.023   1.544   0.234  0.00  0.00    +0.039 C 
ATOM      2  C   UNL     1       0.017   0.016   0.166  0.00  0.00    +0.133 C 
ATOM      3  C   UNL     1       0.656  -0.441  -1.151  0.00  0.00    +0.141 C 
ATOM      4  N   UNL     1       0.808  -1.904  -1.110  0.00  0.00    -0.278 N 
ATOM      5  C   UNL     1       1.456  -2.499   0.070  0.00  0.00    +0.100 C 
ATOM      6  C   UNL     1       0.777  -1.942   1.327  0.00  0.00    +0.182 C 
ATOM      7  O   UNL     1       0.765  -0.514   1.262  0.00  0.00    -0.373 OA
ATOM      8  C   UNL     1       1.300  -4.021   0.030  0.00  0.00    +0.030 C 
ATOM      9  C   UNL     1       0.368  -2.675  -2.123  0.00  0.00    +0.307 C 
ATOM     10  O   UNL     1       0.592  -3.870  -2.119  0.00  0.00    -0.252 OA
ATOM     11  N   UNL     1      -0.321  -2.123  -3.141  0.00  0.00    -0.263 N 
ATOM     12  H   UNL     1      -0.435  -1.160  -3.183  0.00  0.00    +0.157 HD
ENDROOT
BRANCH  11  13
ATOM     13  C   UNL     1      -0.866  -2.928  -4.126  0.00  0.00    +0.087 A 
ATOM     14  C   UNL     1      -1.596  -2.538  -5.244  0.00  0.00    +0.092 A 
ATOM     15  C   UNL     1      -2.051  -3.596  -6.118  0.00  0.00    +0.024 A 
ATOM     16  C   UNL     1      -1.715  -4.845  -5.752  0.00  0.00    +0.048 A 
ATOM     17  S   UNL     1      -0.792  -4.600  -4.250  0.00  0.00    -0.081 S 
BRANCH  14  18
ATOM     18  C   UNL     1      -1.880  -1.175  -5.511  0.00  0.00    +0.389 C 
ATOM     19  O   UNL     1      -2.527  -0.867  -6.505  0.00  0.00    -0.241 OA
ATOM     20  O   UNL     1      -1.480  -0.305  -4.747  0.00  0.00    -0.241 OA
ENDBRANCH  14  18
ENDBRANCH  11  13
TORSDOF 2
