REMARK  Name = ZINC22833617
REMARK  6 active torsions:
REMARK  status: ('A' for Active; 'I' for Inactive)
REMARK    1  A    between atoms: C_1  and  C_2
REMARK    2  A    between atoms: C_2  and  O_3
REMARK    3  A    between atoms: O_3  and  C_4
REMARK    4  A    between atoms: C_4  and  C_6
REMARK    5  A    between atoms: C_7  and  N_34
REMARK    6  A    between atoms: C_25  and  C_28
REMARK                            x       y       z     vdW  Elec       q    Type
REMARK                         _______ _______ _______ _____ _____    ______ ____
ROOT
ATOM      1  C   UNL     1      -4.638  -0.174  -1.336  0.00  0.00    +0.117 C 
ATOM      2  C   UNL     1      -3.865   0.077  -2.427  0.00  0.00    +0.195 C 
ATOM      3  O   UNL     1      -2.781   0.862  -2.346  0.00  0.00    -0.446 OA
ATOM      4  C   UNL     1      -2.182   1.070  -1.159  0.00  0.00    +0.116 C 
ATOM      5  C   UNL     1      -2.840   0.876  -0.000  0.00  0.00    +0.057 C 
ATOM      6  C   UNL     1      -4.279   0.427  -0.009  0.00  0.00    +0.141 C 
ATOM      7  C   UNL     1      -5.188   1.567   0.330  0.00  0.00    -0.001 A 
ATOM      8  C   UNL     1      -5.421   2.768  -0.305  0.00  0.00    +0.022 A 
ATOM      9  C   UNL     1      -6.346   3.623   0.284  0.00  0.00    +0.018 A 
ATOM     10  C   UNL     1      -7.000   3.281   1.451  0.00  0.00    +0.017 A 
ATOM     11  C   UNL     1      -6.772   2.074   2.094  0.00  0.00    +0.025 A 
ATOM     12  C   UNL     1      -5.845   1.207   1.513  0.00  0.00    +0.038 A 
ATOM     13  N   UNL     1      -5.429  -0.045   1.932  0.00  0.00    -0.284 N 
ATOM     14  C   UNL     1      -4.511  -0.578   1.100  0.00  0.00    +0.237 C 
ATOM     15  O   UNL     1      -3.972  -1.659   1.218  0.00  0.00    -0.274 OA
ATOM     16 BR   UNL     1      -6.717   5.290  -0.531  0.00  0.00    -0.050 Br
ATOM     17  C   UNL     1      -2.212   1.083   1.243  0.00  0.00    +0.165 C 
ATOM     18  O   UNL     1      -2.843   0.912   2.266  0.00  0.00    -0.292 OA
ATOM     19  C   UNL     1      -0.772   1.513   1.326  0.00  0.00    +0.088 C 
ATOM     20  C   UNL     1      -0.031   1.006   0.084  0.00  0.00    +0.034 C 
ATOM     21  C   UNL     1      -0.742   1.538  -1.161  0.00  0.00    +0.083 C 
ATOM     22  H   UNL     1      -5.847  -0.484   2.850  0.00  0.00    +0.155 HD
ENDROOT
BRANCH  20  23
ATOM     23  C   UNL     1       1.392   1.502   0.106  0.00  0.00    -0.043 A 
ATOM     24  C   UNL     1       1.651   2.860   0.118  0.00  0.00    +0.004 A 
ATOM     25  C   UNL     1       2.956   3.314   0.143  0.00  0.00    +0.000 A 
ATOM     26  C   UNL     1       4.002   2.411   0.146  0.00  0.00    +0.000 A 
ATOM     27  C   UNL     1       3.744   1.053   0.129  0.00  0.00    +0.000 A 
ATOM     28  C   UNL     1       2.438   0.599   0.109  0.00  0.00    +0.004 A 
ENDBRANCH  20  23
BRANCH   2  29
ATOM     29  N   UNL     1      -4.200  -0.483  -3.631  0.00  0.00    -0.329 N 
ATOM     30  H   UNL     1      -3.582  -0.288  -4.519  0.00  0.00    +0.145 HD
ATOM     31  H   UNL     1      -5.087  -1.129  -3.708  0.00  0.00    +0.145 HD
ENDBRANCH   2  29
BRANCH   1  32
ATOM     32  C   UNL     1      -5.770  -0.994  -1.452  0.00  0.00    +0.342 C 
ATOM     33  O   UNL     1      -6.009  -1.557  -2.506  0.00  0.00    -0.245 OA
BRANCH  32  34
ATOM     34  O   UNL     1      -6.596  -1.159  -0.396  0.00  0.00    -0.462 OA
BRANCH  34  36
ATOM     35  C   UNL     1      -8.540  -2.073   0.711  0.00  0.00    +0.048 C 
ATOM     36  C   UNL     1      -7.729  -2.008  -0.585  0.00  0.00    +0.229 C 
ENDBRANCH  34  36
ENDBRANCH  32  34
ENDBRANCH   1  32
TORSDOF 5
