REMARK  Name = ZINC49506848
REMARK  4 active torsions:
REMARK  status: ('A' for Active; 'I' for Inactive)
REMARK    1  A    between atoms: C_1  and  C_2
REMARK    2  A    between atoms: C_2  and  N_3
REMARK    3  A    between atoms: C_7  and  N_13
REMARK    4  A    between atoms: C_14  and  C_16
REMARK                            x       y       z     vdW  Elec       q    Type
REMARK                         _______ _______ _______ _____ _____    ______ ____
ROOT
ATOM      1  N   UNL     1       0.700  -0.505  -1.201  0.00  0.00    -0.271 N 
ATOM      2  C   UNL     1       0.053  -0.754  -2.414  0.00  0.00    +0.040 A 
ATOM      3  C   UNL     1      -1.289  -0.632  -2.771  0.00  0.00    +0.025 A 
ATOM      4  C   UNL     1      -1.697  -0.941  -4.051  0.00  0.00    +0.025 A 
ATOM      5  C   UNL     1      -0.776  -1.375  -4.995  0.00  0.00    +0.034 A 
ATOM      6  C   UNL     1       0.564  -1.498  -4.644  0.00  0.00    +0.029 A 
ATOM      7  C   UNL     1       0.967  -1.189  -3.365  0.00  0.00    -0.015 A 
ATOM      8  C   UNL     1       2.314  -1.215  -2.679  0.00  0.00    +0.133 C 
ATOM      9  C   UNL     1       2.020  -0.744  -1.271  0.00  0.00    +0.224 C 
ATOM     10  O   UNL     1       2.825  -0.610  -0.374  0.00  0.00    -0.275 OA
ENDROOT
BRANCH   5  11
ATOM     11  N   UNL     1      -1.194  -1.689  -6.294  0.00  0.00    -0.281 N 
ATOM     12  C   UNL     1      -0.388  -1.426  -7.343  0.00  0.00    +0.255 C 
ATOM     13  O   UNL     1       0.735  -0.996  -7.155  0.00  0.00    -0.269 OA
ATOM     14  H   UNL     1      -2.062  -2.095  -6.439  0.00  0.00    +0.155 HD
BRANCH  12  15
ATOM     15  C   UNL     1      -0.865  -1.659  -8.708  0.00  0.00    +0.076 A 
ATOM     16  C   UNL     1      -0.202  -1.462  -9.910  0.00  0.00    +0.022 A 
ATOM     17  C   UNL     1      -0.914  -1.774 -11.043  0.00  0.00    +0.028 A 
ATOM     18  C   UNL     1      -2.183  -2.241 -10.916  0.00  0.00    +0.079 A 
ATOM     19  S   UNL     1      -2.444  -2.277  -9.257  0.00  0.00    -0.072 S 
ATOM     20 CL   UNL     1      -3.282  -2.701 -12.178  0.00  0.00    -0.076 Cl
ENDBRANCH  12  15
ENDBRANCH   5  11
BRANCH   1  22
ATOM     21  C   UNL     1       0.006   1.497   0.020  0.00  0.00    +0.025 C 
ATOM     22  C   UNL     1       0.018  -0.033   0.007  0.00  0.00    +0.110 C 
ENDBRANCH   1  22
TORSDOF 3
