REMARK  Name = ZINC35506927
REMARK  2 active torsions:
REMARK  status: ('A' for Active; 'I' for Inactive)
REMARK    1  A    between atoms: C_8  and  C_14
REMARK    2  A    between atoms: N_19  and  C_22
REMARK                            x       y       z     vdW  Elec       q    Type
REMARK                         _______ _______ _______ _____ _____    ______ ____
ROOT
ATOM      1  C   UNL     1       2.459  -2.806  -1.936  0.00  0.00    +0.252 C 
ATOM      2  O   UNL     1       3.283  -2.064  -2.427  0.00  0.00    -0.272 OA
ATOM      3  N   UNL     1       1.650  -3.535  -2.731  0.00  0.00    -0.296 N 
ATOM      4  C   UNL     1       0.643  -4.433  -2.149  0.00  0.00    +0.127 C 
ATOM      5  C   UNL     1      -0.731  -4.065  -2.722  0.00  0.00    +0.124 C 
ATOM      6  N   UNL     1      -0.622  -3.975  -4.185  0.00  0.00    -0.327 N 
ATOM      7  C   UNL     1       0.386  -3.077  -4.766  0.00  0.00    +0.124 C 
ATOM      8  C   UNL     1       1.756  -3.441  -4.193  0.00  0.00    +0.127 C 
ENDROOT
BRANCH   1  16
ATOM      9  C   UNL     1       6.443  -0.389   0.440  0.00  0.00    +0.002 A 
ATOM     10  C   UNL     1       7.237  -1.509   0.268  0.00  0.00    +0.002 A 
ATOM     11  C   UNL     1       6.650  -2.742   0.047  0.00  0.00    +0.030 A 
ATOM     12  C   UNL     1       5.276  -2.854   0.004  0.00  0.00    +0.126 A 
ATOM     13  C   UNL     1       4.470  -1.739   0.188  0.00  0.00    +0.055 A 
ATOM     14  C   UNL     1       5.069  -0.498   0.400  0.00  0.00    +0.025 A 
ATOM     15  N   UNL     1       3.080  -1.822   0.192  0.00  0.00    -0.319 N 
ATOM     16  C   UNL     1       2.339  -2.912  -0.438  0.00  0.00    +0.247 C 
ATOM     17  N   UNL     1       2.908  -4.197   0.018  0.00  0.00    -0.161 NA
ATOM     18  S   UNL     1       4.530  -4.428  -0.298  0.00  0.00    +0.062 S 
ATOM     19  O   UNL     1       5.023  -5.318   0.694  0.00  0.00    -0.153 OA
ATOM     20  O   UNL     1       4.649  -4.684  -1.690  0.00  0.00    -0.153 OA
ATOM     21  H   UNL     1       2.578  -1.120   0.635  0.00  0.00    +0.148 HD
ATOM     22  H   UNL     1       2.372  -4.865   0.473  0.00  0.00    +0.151 HD
ENDBRANCH   1  16
BRANCH   6  23
ATOM     23  C   UNL     1      -1.460  -4.731  -5.008  0.00  0.00    +0.031 A 
ATOM     24  C   UNL     1      -2.489  -5.481  -4.453  0.00  0.00    +0.023 A 
ATOM     25  C   UNL     1      -3.316  -6.227  -5.269  0.00  0.00    +0.003 A 
ATOM     26  C   UNL     1      -3.122  -6.229  -6.638  0.00  0.00    +0.020 A 
ATOM     27  C   UNL     1      -2.098  -5.482  -7.195  0.00  0.00    +0.043 A 
ATOM     28  C   UNL     1      -1.270  -4.729  -6.384  0.00  0.00    +0.043 A 
ATOM     29 CL   UNL     1      -1.857  -5.487  -8.914  0.00  0.00    -0.083 Cl
ENDBRANCH   6  23
TORSDOF 2
