REMARK  Name = ZINC12894585
REMARK  4 active torsions:
REMARK  status: ('A' for Active; 'I' for Inactive)
REMARK    1  A    between atoms: C_4  and  N_7
REMARK    2  A    between atoms: C_8  and  C_10
REMARK    3  A    between atoms: N_21  and  C_23
REMARK    4  A    between atoms: C_23  and  C_24
REMARK                            x       y       z     vdW  Elec       q    Type
REMARK                         _______ _______ _______ _____ _____    ______ ____
ROOT
ATOM      1  C   UNL     1      -1.256   7.403  -0.165  0.00  0.00    +0.123 C 
ATOM      2  C   UNL     1      -0.603   8.067   1.109  0.00  0.00    +0.155 C 
ATOM      3  C   UNL     1      -0.304   9.488   0.615  0.00  0.00    +0.004 C 
ATOM      4  C   UNL     1      -1.488  10.077   0.526  0.00  0.00    +0.008 C 
ATOM      5  C   UNL     1      -2.494   9.053   1.018  0.00  0.00    +0.116 C 
ATOM      6  C   UNL     1      -2.663   7.938  -0.091  0.00  0.00    +0.127 C 
ATOM      7  C   UNL     1      -3.378   8.704  -1.128  0.00  0.00    +0.223 C 
ATOM      8  O   UNL     1      -3.269   8.571  -2.328  0.00  0.00    -0.275 OA
ATOM      9  N   UNL     1      -4.192   9.598  -0.475  0.00  0.00    -0.294 N 
ATOM     10  C   UNL     1      -3.902   9.563   0.993  0.00  0.00    +0.148 C 
ATOM     11  O   UNL     1      -1.788   8.305   1.979  0.00  0.00    -0.359 OA
ENDROOT
BRANCH   1  13
ATOM     12  N   UNL     1      -0.069   5.242   0.029  0.00  0.00    -0.285 N 
ATOM     13  C   UNL     1      -1.242   5.900  -0.058  0.00  0.00    +0.224 C 
ATOM     14  O   UNL     1      -2.286   5.283  -0.051  0.00  0.00    -0.275 OA
ATOM     15  H   UNL     1       0.761   5.737   0.101  0.00  0.00    +0.155 HD
BRANCH  12  19
ATOM     16  C   UNL     1      -0.012   1.076  -0.007  0.00  0.00    +0.000 A 
ATOM     17  C   UNL     1       0.921   1.772   0.739  0.00  0.00    +0.002 A 
ATOM     18  C   UNL     1       0.908   3.153   0.749  0.00  0.00    +0.023 A 
ATOM     19  C   UNL     1      -0.050   3.842   0.017  0.00  0.00    +0.033 A 
ATOM     20  C   UNL     1      -0.989   3.140  -0.728  0.00  0.00    +0.023 A 
ATOM     21  C   UNL     1      -0.967   1.759  -0.738  0.00  0.00    +0.002 A 
ENDBRANCH  12  19
ENDBRANCH   1  13
BRANCH   9  22
ATOM     22  C   UNL     1      -5.191  10.455  -1.118  0.00  0.00    +0.143 C 
BRANCH  22  23
ATOM     23  C   UNL     1      -6.513   9.733  -1.169  0.00  0.00    -0.026 A 
ATOM     24  C   UNL     1      -7.411   9.863  -0.126  0.00  0.00    +0.009 A 
ATOM     25  C   UNL     1      -8.625   9.203  -0.168  0.00  0.00    +0.050 A 
ATOM     26  C   UNL     1      -8.945   8.410  -1.258  0.00  0.00    +0.166 A 
ATOM     27  C   UNL     1      -8.041   8.280  -2.310  0.00  0.00    +0.167 A 
ATOM     28  C   UNL     1      -6.828   8.948  -2.262  0.00  0.00    +0.054 A 
ATOM     29  O   UNL     1      -8.583   7.455  -3.252  0.00  0.00    -0.453 OA
ATOM     30  C   UNL     1      -9.651   6.757  -2.584  0.00  0.00    +0.466 C 
ATOM     31  O   UNL     1     -10.054   7.666  -1.542  0.00  0.00    -0.453 OA
ENDBRANCH  22  23
ENDBRANCH   9  22
TORSDOF 4
