REMARK  Name = ZINC44927370
REMARK  6 active torsions:
REMARK  status: ('A' for Active; 'I' for Inactive)
REMARK    1  A    between atoms: C_1  and  C_2
REMARK    2  A    between atoms: C_5  and  N_12
REMARK    3  A    between atoms: C_8  and  C_10
REMARK    4  A    between atoms: C_8  and  C_11
REMARK    5  A    between atoms: N_12  and  C_13
REMARK    6  A    between atoms: C_13  and  C_14
REMARK                            x       y       z     vdW  Elec       q    Type
REMARK                         _______ _______ _______ _____ _____    ______ ____
ROOT
ATOM      1  C   UNL     1      -0.019   1.524   0.010  0.00  0.00    +0.007 C 
ATOM      2  C   UNL     1       0.002  -0.004   0.002  0.00  0.00    -0.015 C 
ATOM      3  C   UNL     1       0.621  -0.525  -1.288  0.00  0.00    -0.013 C 
ATOM      4  C   UNL     1       2.137  -0.340  -1.274  0.00  0.00    -0.071 C 
ATOM      5  C   UNL     1       2.721  -1.130  -0.106  0.00  0.00    -0.010 C 
ATOM      6  C   UNL     1       2.178  -0.615   1.222  0.00  0.00    -0.036 C 
ATOM      7  C   UNL     1       0.661  -0.562   1.247  0.00  0.00    +0.009 C 
ATOM      8  C   UNL     1       2.641  -1.587   2.329  0.00  0.00    +0.011 C 
ATOM      9  C   UNL     1       2.780   0.757   1.538  0.00  0.00    +0.011 C 
ENDROOT
BRANCH   4  10
ATOM     10  N   UNL     1       2.696  -0.857  -2.534  0.00  0.00    +0.386 N 
ATOM     11  H   UNL     1       3.704  -0.814  -2.498  0.00  0.00    -0.085 HD
ATOM     12  H   UNL     1       2.406  -1.815  -2.663  0.00  0.00    -0.085 HD
BRANCH  10  13
ATOM     13  C   UNL     1       2.211  -0.043  -3.657  0.00  0.00    -0.001 C 
BRANCH  13  14
ATOM     14  C   UNL     1       2.784  -0.572  -4.946  0.00  0.00    +0.160 A 
ATOM     15  N   UNL     1       3.921  -0.208  -5.510  0.00  0.00    -0.113 NA
ATOM     16  N   UNL     1       4.055  -0.889  -6.596  0.00  0.00    -0.021 NA
ATOM     17  N   UNL     1       3.037  -1.667  -6.729  0.00  0.00    -0.021 NA
ATOM     18  N   UNL     1       2.246  -1.494  -5.726  0.00  0.00    -0.113 NA
ENDBRANCH  13  14
ENDBRANCH  10  13
ENDBRANCH   4  10
TORSDOF 3
