REMARK  Name = ZINC44882709
REMARK  5 active torsions:
REMARK  status: ('A' for Active; 'I' for Inactive)
REMARK    1  A    between atoms: C_1  and  C_2
REMARK    2  A    between atoms: C_2  and  N_9
REMARK    3  A    between atoms: C_10  and  C_12
REMARK    4  A    between atoms: C_12  and  C_13
REMARK    5  A    between atoms: N_14  and  O_15
REMARK                            x       y       z     vdW  Elec       q    Type
REMARK                         _______ _______ _______ _____ _____    ______ ____
ROOT
ATOM      1  N   UNL     1      -1.378  -0.491   0.059  0.00  0.00    -0.308 N 
ATOM      2  C   UNL     1      -2.254  -0.148  -0.907  0.00  0.00    +0.221 C 
ATOM      3  O   UNL     1      -1.899   0.564  -1.822  0.00  0.00    -0.275 OA
ATOM      4  H   UNL     1      -1.662  -1.060   0.791  0.00  0.00    +0.149 HD
ENDROOT
BRANCH   1   6
ATOM      5  C   UNL     1      -0.019   1.526   0.010  0.00  0.00    +0.033 C 
ATOM      6  C   UNL     1       0.002  -0.004   0.002  0.00  0.00    +0.052 C 
ATOM      7  C   UNL     1       0.632  -0.478  -1.307  0.00  0.00    +0.049 C 
ATOM      8  C   UNL     1       2.169  -0.637  -1.140  0.00  0.00    +0.168 C 
ATOM      9  S   UNL     1       2.220  -1.358   0.560  0.00  0.00    -0.029 S 
ATOM     10  O   UNL     1       1.951  -2.751   0.484  0.00  0.00    -0.174 OA
ATOM     11  O   UNL     1       3.390  -0.903   1.225  0.00  0.00    -0.174 OA
ATOM     12  C   UNL     1       0.751  -0.495   1.257  0.00  0.00    +0.191 C 
ENDBRANCH   1   6
BRANCH   2  13
ATOM     13  C   UNL     1      -3.674  -0.649  -0.849  0.00  0.00    +0.170 C 
BRANCH  13  14
ATOM     14  C   UNL     1      -4.441  -0.126  -2.036  0.00  0.00    +0.140 C 
ATOM     15  N   UNL     1      -3.852   0.630  -2.903  0.00  0.00    -0.076 NA
ATOM     16  N   UNL     1      -5.768  -0.454  -2.197  0.00  0.00    -0.344 N 
ATOM     17  H   UNL     1      -6.210  -1.022  -1.547  0.00  0.00    +0.144 HD
ATOM     18  H   UNL     1      -6.262  -0.117  -2.962  0.00  0.00    +0.144 HD
BRANCH  15  19
ATOM     19  O   UNL     1      -4.572   1.121  -4.018  0.00  0.00    -0.408 OA
ATOM     20  H   UNL     1      -4.048   1.678  -4.611  0.00  0.00    +0.328 HD
ENDBRANCH  15  19
ENDBRANCH  13  14
ENDBRANCH   2  13
TORSDOF 4
