REMARK  Name = ZINC01331376
REMARK  6 active torsions:
REMARK  status: ('A' for Active; 'I' for Inactive)
REMARK    1  A    between atoms: C_1  and  C_2
REMARK    2  A    between atoms: C_2  and  C_3
REMARK    3  A    between atoms: C_4  and  C_27
REMARK    4  A    between atoms: C_11  and  S_12
REMARK    5  A    between atoms: S_12  and  C_13
REMARK    6  A    between atoms: C_13  and  C_14
REMARK                            x       y       z     vdW  Elec       q    Type
REMARK                         _______ _______ _______ _____ _____    ______ ____
ROOT
ATOM      1  C   UNL     1       0.744  -0.393   1.250  0.00  0.00    +0.018 A 
ATOM      2  C   UNL     1       0.058  -0.758   2.364  0.00  0.00    +0.048 A 
ATOM      3  N   UNL     1       0.699  -1.230   3.439  0.00  0.00    -0.221 NA
ATOM      4  C   UNL     1       2.006  -1.362   3.467  0.00  0.00    +0.201 A 
ATOM      5  N   UNL     1       2.766  -1.016   2.386  0.00  0.00    -0.242 N 
ATOM      6  C   UNL     1       2.150  -0.528   1.248  0.00  0.00    +0.169 A 
ATOM      7  N   UNL     1       3.100  -0.285   0.372  0.00  0.00    -0.128 NA
ATOM      8  N   UNL     1       4.245  -0.589   0.876  0.00  0.00    -0.122 NA
ATOM      9  C   UNL     1       4.101  -1.031   2.104  0.00  0.00    +0.199 A 
ATOM     10  N   UNL     1       2.615  -1.852   4.597  0.00  0.00    -0.328 N 
ATOM     11  C   UNL     1      -1.444  -0.629   2.390  0.00  0.00    +0.066 C 
ATOM     12  H   UNL     1       2.081  -2.099   5.368  0.00  0.00    +0.145 HD
ATOM     13  H   UNL     1       3.580  -1.951   4.623  0.00  0.00    +0.145 HD
ENDROOT
BRANCH   1  15
ATOM     14  C   UNL     1       0.015   1.669   0.081  0.00  0.00    +0.009 C 
ATOM     15  C   UNL     1       0.020   0.139   0.040  0.00  0.00    +0.037 C 
ENDBRANCH   1  15
BRANCH   9  16
ATOM     16  S   UNL     1       5.391  -1.563   3.181  0.00  0.00    -0.076 S 
BRANCH  16  17
ATOM     17  C   UNL     1       6.902  -1.329   2.205  0.00  0.00    +0.173 C 
BRANCH  17  18
ATOM     18  C   UNL     1       8.097  -1.752   3.021  0.00  0.00    +0.230 C 
ATOM     19  O   UNL     1       7.954  -2.085   4.178  0.00  0.00    -0.274 OA
ATOM     20  N   UNL     1       9.324  -1.760   2.463  0.00  0.00    -0.270 N 
ATOM     21  C   UNL     1       9.524  -1.278   1.090  0.00  0.00    +0.114 C 
ATOM     22  C   UNL     1      10.435  -2.280   0.370  0.00  0.00    +0.024 C 
ATOM     23  C   UNL     1      11.797  -2.297   1.063  0.00  0.00    +0.038 C 
ATOM     24  C   UNL     1      11.631  -2.500   2.546  0.00  0.00    -0.026 A 
ATOM     25  C   UNL     1      10.432  -2.224   3.187  0.00  0.00    +0.039 A 
ATOM     26  C   UNL     1      10.314  -2.411   4.559  0.00  0.00    +0.024 A 
ATOM     27  C   UNL     1      11.393  -2.870   5.288  0.00  0.00    +0.002 A 
ATOM     28  C   UNL     1      12.590  -3.142   4.652  0.00  0.00    +0.000 A 
ATOM     29  C   UNL     1      12.707  -2.966   3.283  0.00  0.00    +0.005 A 
ENDBRANCH  17  18
ENDBRANCH  16  17
ENDBRANCH   9  16
TORSDOF 4
