REMARK  Name = ZINC21723547
REMARK  4 active torsions:
REMARK  status: ('A' for Active; 'I' for Inactive)
REMARK    1  A    between atoms: C_2  and  C_3
REMARK    2  A    between atoms: C_3  and  N_4
REMARK    3  A    between atoms: C_5  and  C_7
REMARK    4  A    between atoms: C_15  and  C_16
REMARK                            x       y       z     vdW  Elec       q    Type
REMARK                         _______ _______ _______ _____ _____    ______ ____
ROOT
ATOM      1  C   UNL     1      -2.453   0.870   0.011  0.00  0.00    +0.081 A 
ATOM      2  C   UNL     1      -2.455  -0.519  -0.003  0.00  0.00    +0.018 A 
ATOM      3  C   UNL     1      -3.675  -1.202  -0.002  0.00  0.00    +0.019 A 
ATOM      4  C   UNL     1      -4.851  -0.534   0.011  0.00  0.00    +0.095 A 
ATOM      5  N   UNL     1      -4.899   0.824   0.025  0.00  0.00    -0.282 N 
ATOM      6  C   UNL     1      -3.741   1.565   0.032  0.00  0.00    +0.174 A 
ATOM      7  N   UNL     1      -4.091   2.836   0.052  0.00  0.00    -0.128 NA
ATOM      8  N   UNL     1      -5.374   2.934   0.064  0.00  0.00    -0.128 NA
ATOM      9  C   UNL     1      -5.921   1.736   0.040  0.00  0.00    +0.169 A 
ENDROOT
BRANCH   9  10
ATOM     10  C   UNL     1      -7.367   1.433   0.045  0.00  0.00    +0.020 A 
ATOM     11  C   UNL     1      -7.822   0.182  -0.378  0.00  0.00    +0.014 A 
ATOM     12  C   UNL     1      -9.172  -0.098  -0.366  0.00  0.00    +0.039 A 
ATOM     13  C   UNL     1     -10.078   0.863   0.055  0.00  0.00    +0.123 A 
ATOM     14  C   UNL     1      -9.633   2.107   0.471  0.00  0.00    +0.039 A 
ATOM     15  C   UNL     1      -8.284   2.397   0.468  0.00  0.00    +0.014 A 
ATOM     16  F   UNL     1     -11.400   0.586   0.059  0.00  0.00    -0.205 F 
ENDBRANCH   9  10
BRANCH   1  18
ATOM     17  N   UNL     1      -0.011   0.966  -0.002  0.00  0.00    -0.308 N 
ATOM     18  C   UNL     1      -1.187   1.624   0.012  0.00  0.00    +0.248 C 
ATOM     19  O   UNL     1      -1.204   2.840   0.024  0.00  0.00    -0.270 OA
ATOM     20  H   UNL     1       0.004  -0.134  -0.008  0.00  0.00    +0.149 HD
BRANCH  17  21
ATOM     21  C   UNL     1       1.248   1.716  -0.007  0.00  0.00    +0.131 C 
BRANCH  21  23
ATOM     22  C   UNL     1       3.316   0.843  -0.967  0.00  0.00    +0.005 C 
ATOM     23  C   UNL     1       2.406   0.752  -0.029  0.00  0.00    -0.016 C 
ENDBRANCH  21  23
ENDBRANCH  17  21
ENDBRANCH   1  18
TORSDOF 4
