REMARK  Name = ZINC24008422
REMARK  5 active torsions:
REMARK  status: ('A' for Active; 'I' for Inactive)
REMARK    1  A    between atoms: C_1  and  C_2
REMARK    2  A    between atoms: N_11  and  C_15
REMARK    3  A    between atoms: C_15  and  C_16
REMARK    4  A    between atoms: C_16  and  O_18
REMARK    5  A    between atoms: O_18  and  C_19
REMARK                            x       y       z     vdW  Elec       q    Type
REMARK                         _______ _______ _______ _____ _____    ______ ____
ROOT
ATOM      1  C   UNL     1      -0.150   1.520   0.035  0.00  0.00    +0.010 C 
ATOM      2  C   UNL     1      -0.170  -0.010   0.035  0.00  0.00    +0.018 C 
ATOM      3  C   UNL     1      -1.619  -0.501   0.079  0.00  0.00    +0.006 C 
ATOM      4  C   UNL     1      -1.637  -2.031   0.100  0.00  0.00    +0.000 C 
ATOM      5  C   UNL     1      -0.901  -2.534   1.344  0.00  0.00    +0.003 C 
ATOM      6  C   UNL     1       0.551  -2.051   1.305  0.00  0.00    +0.035 C 
ATOM      7  C   UNL     1       0.582  -0.527   1.257  0.00  0.00    +0.115 C 
ATOM      8  C   UNL     1      -0.006   0.054   2.523  0.00  0.00    +0.247 C 
ATOM      9  O   UNL     1      -1.136  -0.086   2.939  0.00  0.00    -0.273 OA
ATOM     10  N   UNL     1       0.992   0.760   3.092  0.00  0.00    -0.213 N 
ATOM     11  C   UNL     1       2.114   0.703   2.364  0.00  0.00    +0.310 C 
ATOM     12  O   UNL     1       3.149   1.261   2.673  0.00  0.00    -0.252 OA
ATOM     13  N   UNL     1       1.968  -0.041   1.252  0.00  0.00    -0.285 N 
ATOM     14  H   UNL     1       2.644  -0.221   0.580  0.00  0.00    +0.151 HD
ENDROOT
BRANCH  10  15
ATOM     15  C   UNL     1       0.864   1.499   4.351  0.00  0.00    +0.238 C 
BRANCH  15  16
ATOM     16  C   UNL     1       1.228   0.597   5.502  0.00  0.00    +0.330 C 
ATOM     17  O   UNL     1       1.560  -0.545   5.293  0.00  0.00    -0.249 OA
BRANCH  16  18
ATOM     18  O   UNL     1       1.182   1.063   6.760  0.00  0.00    -0.425 OA
BRANCH  18  19
ATOM     19  C   UNL     1       1.419   0.189   7.774  0.00  0.00    +0.135 A 
ATOM     20  C   UNL     1       2.718  -0.204   8.062  0.00  0.00    +0.050 A 
ATOM     21  C   UNL     1       2.961  -1.093   9.092  0.00  0.00    +0.053 A 
ATOM     22  C   UNL     1       1.907  -1.595   9.839  0.00  0.00    +0.166 A 
ATOM     23  C   UNL     1       0.602  -1.203   9.551  0.00  0.00    +0.170 A 
ATOM     24  C   UNL     1       0.362  -0.307   8.523  0.00  0.00    +0.096 A 
ATOM     25  O   UNL     1      -0.244  -1.831  10.419  0.00  0.00    -0.452 OA
ATOM     26  C   UNL     1       0.514  -2.923  10.973  0.00  0.00    +0.466 C 
ATOM     27  O   UNL     1       1.878  -2.470  10.887  0.00  0.00    -0.453 OA
ENDBRANCH  18  19
ENDBRANCH  16  18
ENDBRANCH  15  16
ENDBRANCH  10  15
TORSDOF 4
