REMARK  Name = ZINC05018305
REMARK  8 active torsions:
REMARK  status: ('A' for Active; 'I' for Inactive)
REMARK    1  A    between atoms: C_1  and  C_2
REMARK    2  A    between atoms: C_7  and  C_8
REMARK    3  A    between atoms: C_10  and  C_24
REMARK    4  A    between atoms: C_11  and  C_16
REMARK    5  A    between atoms: C_16  and  S_17
REMARK    6  A    between atoms: S_17  and  C_18
REMARK    7  A    between atoms: C_24  and  O_26
REMARK    8  A    between atoms: O_26  and  C_27
REMARK                            x       y       z     vdW  Elec       q    Type
REMARK                         _______ _______ _______ _____ _____    ______ ____
ROOT
ATOM      1  C   UNL     1      -9.257   5.852   1.337  0.00  0.00    +0.144 C 
ATOM      2  C   UNL     1      -7.796   5.639   0.998  0.00  0.00    +0.079 C 
ATOM      3  C   UNL     1      -7.480   5.383  -0.289  0.00  0.00    +0.034 C 
ATOM      4  N   UNL     1      -8.445   5.324  -1.254  0.00  0.00    -0.272 N 
ATOM      5  C   UNL     1      -9.750   5.499  -1.009  0.00  0.00    +0.304 C 
ATOM      6  O   UNL     1     -10.537   5.422  -1.933  0.00  0.00    -0.252 OA
ATOM      7  N   UNL     1     -10.220   5.762   0.226  0.00  0.00    -0.288 N 
ATOM      8  H   UNL     1      -8.171   5.142  -2.166  0.00  0.00    +0.156 HD
ATOM      9  H   UNL     1     -11.169   5.889   0.380  0.00  0.00    +0.151 HD
ENDROOT
BRANCH   1  16
ATOM     10  C   UNL     1      -8.924   6.177   4.189  0.00  0.00    +0.044 C 
ATOM     11  C   UNL     1      -9.236   7.372   3.325  0.00  0.00    -0.045 A 
ATOM     12  C   UNL     1      -9.362   8.624   3.898  0.00  0.00    +0.004 A 
ATOM     13  C   UNL     1      -9.648   9.720   3.106  0.00  0.00    +0.000 A 
ATOM     14  C   UNL     1      -9.806   9.565   1.741  0.00  0.00    +0.000 A 
ATOM     15  C   UNL     1      -9.676   8.314   1.169  0.00  0.00    +0.006 A 
ATOM     16  C   UNL     1      -9.395   7.217   1.961  0.00  0.00    -0.020 A 
ENDBRANCH   1  16
BRANCH   2  17
ATOM     17  C   UNL     1      -6.796   5.705   1.997  0.00  0.00    +0.339 C 
ATOM     18  O   UNL     1      -6.590   4.745   2.716  0.00  0.00    -0.245 OA
BRANCH  17  19
ATOM     19  O   UNL     1      -6.072   6.833   2.153  0.00  0.00    -0.465 OA
ATOM     20  C   UNL     1      -5.030   6.804   3.131  0.00  0.00    +0.280 C 
ENDBRANCH  17  19
ENDBRANCH   2  17
BRANCH   3  21
ATOM     21  C   UNL     1      -6.038   5.165  -0.670  0.00  0.00    +0.127 C 
BRANCH  21  22
ATOM     22  S   UNL     1      -5.751   3.399  -0.966  0.00  0.00    -0.091 S 
BRANCH  22  23
ATOM     23  C   UNL     1      -4.044   3.311  -1.395  0.00  0.00    +0.160 A 
ATOM     24  N   UNL     1      -3.155   4.280  -1.489  0.00  0.00    -0.133 NA
ATOM     25  N   UNL     1      -1.857   3.986  -1.838  0.00  0.00    -0.125 NA
ATOM     26  C   UNL     1      -1.510   2.739  -2.088  0.00  0.00    +0.180 A 
ATOM     27  S   UNL     1      -3.056   1.884  -1.819  0.00  0.00    -0.025 S 
ATOM     28  N   UNL     1      -0.273   2.225  -2.457  0.00  0.00    -0.336 N 
ATOM     29  H   UNL     1      -0.167   1.272  -2.604  0.00  0.00    +0.144 HD
ATOM     30  H   UNL     1       0.485   2.820  -2.571  0.00  0.00    +0.144 HD
ENDBRANCH  22  23
ENDBRANCH  21  22
ENDBRANCH   3  21
TORSDOF 6
