REMARK  Name = ZINC65696188
REMARK  9 active torsions:
REMARK  status: ('A' for Active; 'I' for Inactive)
REMARK    1  A    between atoms: C_1  and  C_2
REMARK    2  A    between atoms: C_3  and  C_30
REMARK    3  A    between atoms: C_9  and  C_12
REMARK    4  A    between atoms: C_12  and  N_13
REMARK    5  A    between atoms: N_16  and  N_17
REMARK    6  A    between atoms: C_18  and  C_20
REMARK    7  A    between atoms: C_20  and  O_21
REMARK    8  A    between atoms: O_21  and  C_22
REMARK    9  A    between atoms: C_27  and  C_28
REMARK                            x       y       z     vdW  Elec       q    Type
REMARK                         _______ _______ _______ _____ _____    ______ ____
ROOT
ATOM      1  N   UNL     1      -1.310  -1.423   5.394  0.00  0.00    -0.294 N 
ATOM      2  C   UNL     1      -1.547  -1.215   6.704  0.00  0.00    +0.316 C 
ATOM      3  O   UNL     1      -0.618  -1.076   7.475  0.00  0.00    -0.251 OA
ATOM      4  N   UNL     1      -2.815  -1.160   7.159  0.00  0.00    -0.218 N 
ATOM      5  H   UNL     1      -2.052  -1.533   4.778  0.00  0.00    +0.151 HD
ATOM      6  H   UNL     1      -2.985  -1.010   8.102  0.00  0.00    +0.174 HD
ENDROOT
BRANCH   4   7
ATOM      7  N   UNL     1      -3.886  -1.320   6.270  0.00  0.00    -0.230 N 
ATOM      8  C   UNL     1      -5.153  -1.265   6.725  0.00  0.00    +0.267 C 
ATOM      9  O   UNL     1      -5.366  -1.078   7.904  0.00  0.00    -0.271 OA
ATOM     10  H   UNL     1      -3.715  -1.470   5.327  0.00  0.00    +0.173 HD
BRANCH   8  11
ATOM     11  C   UNL     1      -6.305  -1.437   5.769  0.00  0.00    +0.326 C 
BRANCH  11  12
ATOM     12  O   UNL     1      -7.538  -1.340   6.486  0.00  0.00    -0.481 OA
BRANCH  12  13
ATOM     13  C   UNL     1      -8.681  -1.473   5.767  0.00  0.00    +0.138 A 
ATOM     14  C   UNL     1      -8.621  -1.699   4.400  0.00  0.00    +0.047 A 
ATOM     15  C   UNL     1      -9.785  -1.834   3.669  0.00  0.00    +0.004 A 
ATOM     16  C   UNL     1     -11.019  -1.746   4.293  0.00  0.00    +0.001 A 
ATOM     17  C   UNL     1     -11.097  -1.522   5.651  0.00  0.00    +0.022 A 
ATOM     18  C   UNL     1      -9.927  -1.389   6.403  0.00  0.00    +0.093 A 
BRANCH  18  19
ATOM     19  C   UNL     1     -10.000  -1.162   7.815  0.00  0.00    +0.103 C 
ATOM     20  N   UNL     1     -10.059  -0.982   8.935  0.00  0.00    -0.191 NA
ENDBRANCH  18  19
ENDBRANCH  12  13
ENDBRANCH  11  12
ENDBRANCH   8  11
ENDBRANCH   4   7
BRANCH   1  21
ATOM     21  C   UNL     1       0.068  -1.482   4.899  0.00  0.00    +0.141 C 
BRANCH  21  30
ATOM     22  C   UNL     1      -0.018   1.503   0.010  0.00  0.00    +0.046 C 
ATOM     23  C   UNL     1       0.002  -0.004   0.002  0.00  0.00    -0.022 A 
ATOM     24  C   UNL     1       0.009  -0.797  -1.081  0.00  0.00    +0.017 A 
ATOM     25  N   UNL     1       0.028  -2.110  -0.699  0.00  0.00    -0.358 N 
ATOM     26  H   UNL     1       0.036  -2.867  -1.305  0.00  0.00    +0.166 HD
ATOM     27  C   UNL     1       0.035  -2.197   0.676  0.00  0.00    +0.047 A 
ATOM     28  C   UNL     1       0.025  -0.882   1.175  0.00  0.00    +0.003 A 
ATOM     29  C   UNL     1       0.035  -0.659   2.553  0.00  0.00    +0.015 A 
ATOM     30  C   UNL     1       0.057  -1.723   3.411  0.00  0.00    -0.030 A 
ATOM     31  C   UNL     1       0.071  -3.022   2.924  0.00  0.00    +0.007 A 
ATOM     32  C   UNL     1       0.052  -3.264   1.567  0.00  0.00    +0.026 A 
ATOM     33  C   UNL     1      -0.004  -0.311  -2.508  0.00  0.00    +0.063 C 
ENDBRANCH  21  30
ENDBRANCH   1  21
TORSDOF 7
