REMARK  Name = ZINC13167420
REMARK  4 active torsions:
REMARK  status: ('A' for Active; 'I' for Inactive)
REMARK    1  A    between atoms: C_4  and  C_19
REMARK    2  A    between atoms: C_6  and  C_7
REMARK    3  A    between atoms: C_8  and  C_9
REMARK    4  A    between atoms: C_14  and  C_17
REMARK                            x       y       z     vdW  Elec       q    Type
REMARK                         _______ _______ _______ _____ _____    ______ ____
ROOT
ATOM      1  C   UNL     1       3.652   2.157  -0.015  0.00  0.00    +0.013 C 
ATOM      2  C   UNL     1       4.827   1.495  -0.037  0.00  0.00    +0.068 C 
ENDROOT
BRANCH   2   3
ATOM      3  C   UNL     1       6.087   2.241  -0.048  0.00  0.00    +0.239 C 
ATOM      4  O   UNL     1       6.075   3.455  -0.135  0.00  0.00    -0.271 OA
ATOM      5  N   UNL     1       7.260   1.583   0.038  0.00  0.00    -0.298 N 
ATOM      6  C   UNL     1       7.297   0.114   0.037  0.00  0.00    +0.109 C 
ATOM      7  C   UNL     1       8.078  -0.365   1.259  0.00  0.00    +0.034 C 
ATOM      8  C   UNL     1       9.457   0.298   1.273  0.00  0.00    +0.105 C 
ATOM      9  C   UNL     1       9.293   1.817   1.367  0.00  0.00    +0.034 C 
ATOM     10  C   UNL     1       8.527   2.321   0.140  0.00  0.00    +0.109 C 
BRANCH   8  11
ATOM     11  C   UNL     1      10.240  -0.197   2.461  0.00  0.00    +0.359 C 
ATOM     12  O   UNL     1      10.628   0.584   3.297  0.00  0.00    -0.246 OA
ATOM     13  O   UNL     1      10.507  -1.506   2.591  0.00  0.00    -0.246 OA
ENDBRANCH   8  11
ENDBRANCH   2   3
BRANCH   1  19
ATOM     14  C   UNL     1       2.397   0.009  -0.015  0.00  0.00    +0.009 A 
ATOM     15  C   UNL     1       1.207  -0.686  -0.005  0.00  0.00    +0.021 A 
ATOM     16  C   UNL     1       0.002  -0.003   0.016  0.00  0.00    +0.053 A 
ATOM     17  C   UNL     1      -0.017   1.382   0.028  0.00  0.00    +0.074 A 
ATOM     18  C   UNL     1       1.165   2.091   0.018  0.00  0.00    +0.021 A 
ATOM     19  C   UNL     1       2.386   1.407  -0.004  0.00  0.00    -0.024 A 
ATOM     20 CL   UNL     1      -1.492  -0.887   0.029  0.00  0.00    -0.083 Cl
BRANCH  17  21
ATOM     21  C   UNL     1      -1.333   2.116   0.044  0.00  0.00    +0.419 C 
ATOM     22  F   UNL     1      -1.097   3.495   0.053  0.00  0.00    -0.166 F 
ATOM     23  F   UNL     1      -2.070   1.777  -1.095  0.00  0.00    -0.166 F 
ATOM     24  F   UNL     1      -2.052   1.758   1.189  0.00  0.00    -0.166 F 
ENDBRANCH  17  21
ENDBRANCH   1  19
TORSDOF 4
