REMARK  Name = ZINC13637601
REMARK  1 active torsions:
REMARK  status: ('A' for Active; 'I' for Inactive)
REMARK    1  A    between atoms: C_4  and  N_7
REMARK                            x       y       z     vdW  Elec       q    Type
REMARK                         _______ _______ _______ _____ _____    ______ ____
ROOT
ATOM      1  N   UNL     1       3.623  -0.652  -0.037  0.00  0.00    -0.230 N 
ATOM      2  C   UNL     1       4.762   0.077  -0.144  0.00  0.00    +0.198 C 
ATOM      3  N   UNL     1       5.846  -0.100   0.507  0.00  0.00    -0.220 NA
ATOM      4  C   UNL     1       6.086  -1.051   1.442  0.00  0.00    +0.165 A 
ATOM      5  C   UNL     1       5.651  -2.363   1.294  0.00  0.00    +0.049 A 
ATOM      6  C   UNL     1       5.934  -3.294   2.283  0.00  0.00    +0.136 A 
ATOM      7  N   UNL     1       6.615  -2.890   3.358  0.00  0.00    -0.199 NA
ATOM      8  C   UNL     1       7.014  -1.634   3.478  0.00  0.00    +0.221 A 
ATOM      9  N   UNL     1       6.764  -0.725   2.551  0.00  0.00    -0.195 NA
ATOM     10  N   UNL     1       7.715  -1.260   4.611  0.00  0.00    -0.300 N 
ATOM     11  C   UNL     1       8.018  -2.241   5.662  0.00  0.00    +0.108 C 
ATOM     12  C   UNL     1       9.526  -2.223   5.934  0.00  0.00    +0.019 C 
ATOM     13  C   UNL     1       9.963  -0.793   6.263  0.00  0.00    +0.003 C 
ATOM     14  C   UNL     1       9.677   0.118   5.067  0.00  0.00    +0.019 C 
ATOM     15  C   UNL     1       8.176   0.124   4.783  0.00  0.00    +0.108 C 
ATOM     16  N   UNL     1       5.541  -4.618   2.193  0.00  0.00    -0.270 N 
ATOM     17  C   UNL     1       4.867  -5.143   1.161  0.00  0.00    +0.219 C 
ATOM     18  O   UNL     1       4.574  -6.320   1.166  0.00  0.00    -0.275 OA
ATOM     19  C   UNL     1       4.468  -4.271  -0.010  0.00  0.00    +0.113 C 
ATOM     20  C   UNL     1       4.878  -2.786   0.068  0.00  0.00    +0.121 C 
ATOM     21  C   UNL     1       3.604  -1.986   0.058  0.00  0.00    +0.233 C 
ATOM     22  O   UNL     1       2.540  -2.561   0.135  0.00  0.00    -0.274 OA
ATOM     23  H   UNL     1       5.771  -5.207   2.928  0.00  0.00    +0.156 HD
ENDROOT
BRANCH   1  27
ATOM     24  C   UNL     1      -0.016   1.380   0.011  0.00  0.00    +0.000 A 
ATOM     25  C   UNL     1       0.651   1.131   1.196  0.00  0.00    +0.002 A 
ATOM     26  C   UNL     1       1.857   0.458   1.184  0.00  0.00    +0.024 A 
ATOM     27  C   UNL     1       2.400   0.031  -0.021  0.00  0.00    +0.042 A 
ATOM     28  C   UNL     1       1.727   0.282  -1.210  0.00  0.00    +0.024 A 
ATOM     29  C   UNL     1       0.522   0.956  -1.191  0.00  0.00    +0.002 A 
ENDBRANCH   1  27
TORSDOF 1
