REMARK  Name = ZINC01560718
REMARK  7 active torsions:
REMARK  status: ('A' for Active; 'I' for Inactive)
REMARK    1  A    between atoms: C_1  and  C_2
REMARK    2  A    between atoms: C_2  and  C_23
REMARK    3  A    between atoms: C_6  and  C_22
REMARK    4  A    between atoms: C_13  and  O_20
REMARK    5  A    between atoms: C_14  and  C_17
REMARK    6  A    between atoms: C_15  and  O_16
REMARK    7  A    between atoms: C_17  and  C_19
REMARK                            x       y       z     vdW  Elec       q    Type
REMARK                         _______ _______ _______ _____ _____    ______ ____
ROOT
ATOM      1  C   UNL     1       1.907   7.357  -1.184  0.00  0.00    +0.039 C 
ATOM      2  C   UNL     1       0.764   6.839  -2.018  0.00  0.00    -0.076 C 
ATOM      3  C   UNL     1      -0.140   6.060  -1.478  0.00  0.00    -0.063 C 
ATOM      4  C   UNL     1      -1.306   5.516  -2.279  0.00  0.00    +0.035 C 
ATOM      5  C   UNL     1      -2.606   5.860  -1.550  0.00  0.00    +0.052 C 
ATOM      6  C   UNL     1      -2.545   5.441  -0.091  0.00  0.00    +0.109 C 
ATOM      7  C   UNL     1      -1.387   6.127   0.635  0.00  0.00    +0.060 C 
ATOM      8  C   UNL     1      -0.075   5.652  -0.013  0.00  0.00    +0.056 C 
ATOM      9  C   UNL     1      -0.063   4.138   0.009  0.00  0.00    +0.044 A 
ATOM     10  C   UNL     1      -1.250   3.422   0.031  0.00  0.00    +0.132 A 
ATOM     11  C   UNL     1      -1.220   2.027   0.019  0.00  0.00    +0.092 A 
ATOM     12  C   UNL     1      -0.016   1.352   0.009  0.00  0.00    +0.134 A 
ATOM     13  C   UNL     1       1.192   2.074   0.002  0.00  0.00    +0.100 A 
ATOM     14  C   UNL     1       1.154   3.481  -0.004  0.00  0.00    +0.138 A 
ATOM     15  O   UNL     1      -2.458   4.035   0.069  0.00  0.00    -0.485 OA
ATOM     16  C   UNL     1      -3.845   5.889   0.579  0.00  0.00    +0.055 C 
ATOM     17  C   UNL     1       0.660   7.218  -3.473  0.00  0.00    +0.039 C 
ENDROOT
BRANCH  13  18
ATOM     18  C   UNL     1       2.473   1.370  -0.000  0.00  0.00    +0.167 C 
ATOM     19  O   UNL     1       3.511   1.999  -0.007  0.00  0.00    -0.292 OA
ATOM     20  C   UNL     1       2.504  -0.137   0.006  0.00  0.00    +0.092 C 
ENDBRANCH  13  18
BRANCH  14  21
ATOM     21  O   UNL     1       2.309   4.191  -0.025  0.00  0.00    -0.506 OA
ATOM     22  H   UNL     1       2.631   4.393  -0.914  0.00  0.00    +0.292 HD
ENDBRANCH  14  21
BRANCH  12  23
ATOM     23  O   UNL     1       0.002  -0.004   0.002  0.00  0.00    -0.506 OA
ATOM     24  H   UNL     1       0.016  -0.402   0.883  0.00  0.00    +0.292 HD
ENDBRANCH  12  23
TORSDOF 3
