REMARK  Name = ZINC21523794
REMARK  7 active torsions:
REMARK  status: ('A' for Active; 'I' for Inactive)
REMARK    1  A    between atoms: C_1  and  C_2
REMARK    2  A    between atoms: C_4  and  C_32
REMARK    3  A    between atoms: C_11  and  C_13
REMARK    4  A    between atoms: C_14  and  C_21
REMARK    5  A    between atoms: C_24  and  O_27
REMARK    6  A    between atoms: O_27  and  C_28
REMARK    7  A    between atoms: C_28  and  C_29
REMARK                            x       y       z     vdW  Elec       q    Type
REMARK                         _______ _______ _______ _____ _____    ______ ____
ROOT
ATOM      1  C   UNL     1       2.743   1.263   1.426  0.00  0.00    +0.066 C 
ATOM      2  C   UNL     1       1.417   1.907   1.117  0.00  0.00    +0.044 A 
ATOM      3  C   UNL     1       0.267   1.138   1.027  0.00  0.00    +0.046 A 
ATOM      4  C   UNL     1      -0.932   1.770   0.736  0.00  0.00    +0.044 A 
ATOM      5  N   UNL     1      -0.944   3.082   0.565  0.00  0.00    -0.216 NA
ATOM      6  C   UNL     1       0.173   3.787   0.657  0.00  0.00    +0.253 A 
ATOM      7  N   UNL     1       1.334   3.214   0.928  0.00  0.00    -0.216 NA
ATOM      8  N   UNL     1       0.124   5.166   0.464  0.00  0.00    -0.183 N 
ATOM      9  C   UNL     1      -0.971   5.884   0.031  0.00  0.00    +0.137 A 
ATOM     10  C   UNL     1      -0.597   7.181  -0.022  0.00  0.00    +0.033 A 
ATOM     11  C   UNL     1       0.752   7.258   0.389  0.00  0.00    +0.067 A 
ATOM     12  N   UNL     1       1.171   6.061   0.682  0.00  0.00    -0.167 NA
ATOM     13  C   UNL     1       1.569   8.520   0.480  0.00  0.00    +0.068 C 
ATOM     14  C   UNL     1      -1.374   8.395  -0.424  0.00  0.00    +0.112 C 
ATOM     15  S   UNL     1      -2.567   8.076  -1.727  0.00  0.00    -0.138 S 
ATOM     16  C   UNL     1      -3.819   7.007  -1.002  0.00  0.00    +0.166 C 
ATOM     17  C   UNL     1      -3.316   5.649  -0.706  0.00  0.00    +0.228 C 
ATOM     18  O   UNL     1      -4.106   4.755  -0.920  0.00  0.00    -0.275 OA
ATOM     19  N   UNL     1      -2.163   5.262  -0.250  0.00  0.00    -0.269 N 
ATOM     20  C   UNL     1      -2.207   0.975   0.623  0.00  0.00    +0.066 C 
ATOM     21  H   UNL     1      -2.270   4.179  -0.085  0.00  0.00    +0.156 HD
ENDROOT
BRANCH  14  22
ATOM     22  C   UNL     1      -0.410   9.451  -0.899  0.00  0.00    -0.030 A 
ATOM     23  C   UNL     1       0.250   9.291  -2.103  0.00  0.00    +0.008 A 
ATOM     24  C   UNL     1       1.131  10.260  -2.544  0.00  0.00    +0.046 A 
ATOM     25  C   UNL     1       1.361  11.389  -1.772  0.00  0.00    +0.121 A 
ATOM     26  C   UNL     1       0.701  11.545  -0.561  0.00  0.00    +0.046 A 
ATOM     27  C   UNL     1      -0.182  10.575  -0.128  0.00  0.00    +0.008 A 
BRANCH  25  28
ATOM     28  O   UNL     1       2.230  12.342  -2.201  0.00  0.00    -0.483 OA
BRANCH  28  29
ATOM     29  C   UNL     1       2.873  12.115  -3.457  0.00  0.00    +0.324 C 
BRANCH  29  30
ATOM     30  C   UNL     1       3.793  13.268  -3.765  0.00  0.00    +0.248 C 
ATOM     31  O   UNL     1       3.889  14.193  -2.986  0.00  0.00    -0.272 OA
ATOM     32  N   UNL     1       4.509  13.272  -4.907  0.00  0.00    -0.327 N 
ATOM     33  H   UNL     1       5.181  14.113  -5.132  0.00  0.00    +0.145 HD
ATOM     34  H   UNL     1       4.422  12.433  -5.613  0.00  0.00    +0.145 HD
ENDBRANCH  29  30
ENDBRANCH  28  29
ENDBRANCH  25  28
ENDBRANCH  14  22
TORSDOF 4
