REMARK  Name = ZINC54156163
REMARK  7 active torsions:
REMARK  status: ('A' for Active; 'I' for Inactive)
REMARK    1  A    between atoms: C_1  and  C_2
REMARK    2  A    between atoms: C_2  and  C_4
REMARK    3  A    between atoms: C_2  and  C_17
REMARK    4  A    between atoms: C_4  and  N_5
REMARK    5  A    between atoms: N_5  and  S_6
REMARK    6  A    between atoms: S_6  and  C_9
REMARK    7  A    between atoms: N_18  and  O_19
REMARK                            x       y       z     vdW  Elec       q    Type
REMARK                         _______ _______ _______ _____ _____    ______ ____
ROOT
ATOM      1  N   UNL     1      -2.155  -0.019  -1.337  0.00  0.00    -0.194 NA
ATOM      2  H   UNL     1      -1.820   0.631  -1.973  0.00  0.00    +0.148 HD
ENDROOT
BRANCH   1   3
ATOM      3  S   UNL     1      -3.456  -0.967  -1.730  0.00  0.00    +0.032 S 
ATOM      4  O   UNL     1      -3.819  -0.557  -3.041  0.00  0.00    -0.158 OA
ATOM      5  O   UNL     1      -3.024  -2.297  -1.480  0.00  0.00    -0.158 OA
BRANCH   3   6
ATOM      6  C   UNL     1      -4.749  -0.497  -0.548  0.00  0.00    +0.151 C 
ATOM      7  C   UNL     1      -6.005  -1.318  -0.824  0.00  0.00    +0.050 C 
ATOM      8  C   UNL     1      -7.010  -1.137   0.317  0.00  0.00    +0.168 C 
ATOM      9  S   UNL     1      -7.520   0.606   0.379  0.00  0.00    -0.031 S 
ATOM     10  O   UNL     1      -8.224   0.828   1.594  0.00  0.00    -0.174 OA
ATOM     11  O   UNL     1      -8.145   0.939  -0.853  0.00  0.00    -0.174 OA
ATOM     12  C   UNL     1      -5.922   1.466   0.472  0.00  0.00    +0.168 C 
ATOM     13  C   UNL     1      -5.039   0.995  -0.686  0.00  0.00    +0.050 C 
ENDBRANCH   3   6
ENDBRANCH   1   3
BRANCH   1  14
ATOM     14  C   UNL     1      -1.513  -0.165  -0.028  0.00  0.00    +0.116 C 
BRANCH  14  16
ATOM     15  C   UNL     1      -0.360   2.043  -0.232  0.00  0.00    +0.017 C 
ATOM     16  C   UNL     1      -0.153   0.538  -0.047  0.00  0.00    +0.068 C 
BRANCH  16  17
ATOM     17  C   UNL     1       0.561   0.285   1.256  0.00  0.00    +0.136 C 
ATOM     18  N   UNL     1       0.476   1.145   2.216  0.00  0.00    -0.076 NA
ATOM     19  N   UNL     1       1.304  -0.862   1.422  0.00  0.00    -0.344 N 
ATOM     20  H   UNL     1       1.368  -1.507   0.701  0.00  0.00    +0.144 HD
ATOM     21  H   UNL     1       1.764  -1.025   2.260  0.00  0.00    +0.144 HD
BRANCH  18  22
ATOM     22  O   UNL     1       1.147   0.907   3.440  0.00  0.00    -0.408 OA
ATOM     23  H   UNL     1       1.024   1.606   4.098  0.00  0.00    +0.328 HD
ENDBRANCH  18  22
ENDBRANCH  16  17
ENDBRANCH  14  16
ENDBRANCH   1  14
TORSDOF 6
