REMARK  Name = ZINC27643458
REMARK  12 active torsions:
REMARK  status: ('A' for Active; 'I' for Inactive)
REMARK    1  A    between atoms: C_1  and  C_2
REMARK    2  A    between atoms: C_5  and  N_9
REMARK    3  A    between atoms: C_6  and  C_8
REMARK    4  A    between atoms: C_10  and  C_12
REMARK    5  A    between atoms: C_12  and  S_13
REMARK    6  A    between atoms: S_13  and  C_14
REMARK    7  A    between atoms: C_16  and  C_22
REMARK    8  A    between atoms: N_17  and  N_21
REMARK    9  A    between atoms: C_22  and  C_23
REMARK   10  A    between atoms: C_26  and  C_29
REMARK   11  A    between atoms: C_29  and  C_30
REMARK   12  A    between atoms: C_29  and  C_31
REMARK                            x       y       z     vdW  Elec       q    Type
REMARK                         _______ _______ _______ _____ _____    ______ ____
ROOT
ATOM      1  C   UNL     1      -1.859   1.550   3.203  0.00  0.00    +0.195 A 
ATOM      2  N   UNL     1      -1.237   1.127   2.092  0.00  0.00    -0.207 NA
ATOM      3  C   UNL     1      -0.764   1.990   1.228  0.00  0.00    +0.138 A 
ATOM      4  N   UNL     1      -0.909   3.316   1.447  0.00  0.00    -0.202 N 
ATOM      5  C   UNL     1      -1.538   3.742   2.562  0.00  0.00    +0.369 A 
ATOM      6  O   UNL     1      -1.675   4.935   2.771  0.00  0.00    -0.243 OA
ATOM      7  N   UNL     1      -2.010   2.848   3.435  0.00  0.00    -0.166 NA
ENDROOT
BRANCH   4   8
ATOM      8  N   UNL     1      -0.421   4.219   0.546  0.00  0.00    -0.293 N 
ATOM      9  H   UNL     1      -0.541   5.297   0.728  0.00  0.00    +0.163 HD
ATOM     10  H   UNL     1       0.092   3.868  -0.362  0.00  0.00    +0.163 HD
ENDBRANCH   4   8
BRANCH   1  11
ATOM     11  S   UNL     1      -2.483   0.376   4.358  0.00  0.00    -0.076 S 
BRANCH  11  12
ATOM     12  C   UNL     1      -3.190   1.494   5.593  0.00  0.00    +0.173 C 
BRANCH  12  14
ATOM     13  N   UNL     1      -4.388   1.313   7.749  0.00  0.00    -0.285 N 
ATOM     14  C   UNL     1      -3.799   0.688   6.711  0.00  0.00    +0.227 C 
ATOM     15  O   UNL     1      -3.759  -0.524   6.676  0.00  0.00    -0.275 OA
ATOM     16  H   UNL     1      -4.346   2.409   7.827  0.00  0.00    +0.155 HD
BRANCH  13  21
ATOM     17  C   UNL     1      -7.090  -1.709  11.718  0.00  0.00    +0.044 C 
ATOM     18  C   UNL     1      -6.372  -0.907  10.664  0.00  0.00    -0.050 A 
ATOM     19  C   UNL     1      -6.221  -1.421   9.389  0.00  0.00    +0.005 A 
ATOM     20  C   UNL     1      -5.564  -0.688   8.420  0.00  0.00    +0.024 A 
ATOM     21  C   UNL     1      -5.055   0.568   8.728  0.00  0.00    +0.036 A 
ATOM     22  C   UNL     1      -5.203   1.079  10.011  0.00  0.00    -0.029 A 
ATOM     23  C   UNL     1      -5.866   0.342  10.973  0.00  0.00    +0.008 A 
ATOM     24  C   UNL     1      -4.647   2.437  10.351  0.00  0.00    +0.045 C 
ENDBRANCH  13  21
ENDBRANCH  12  14
ENDBRANCH  11  12
ENDBRANCH   1  11
BRANCH   3  25
ATOM     25  C   UNL     1      -0.064   1.504  -0.015  0.00  0.00    +0.111 C 
BRANCH  25  26
ATOM     26  C   UNL     1      -0.035  -0.003  -0.019  0.00  0.00    -0.040 A 
ATOM     27  C   UNL     1       1.026  -0.676   0.556  0.00  0.00    +0.004 A 
ATOM     28  C   UNL     1       1.049  -2.058   0.556  0.00  0.00    +0.004 A 
ATOM     29  C   UNL     1       0.016  -2.767  -0.028  0.00  0.00    -0.045 A 
ATOM     30  C   UNL     1      -1.043  -2.094  -0.608  0.00  0.00    +0.004 A 
ATOM     31  C   UNL     1      -1.068  -0.711  -0.604  0.00  0.00    +0.004 A 
BRANCH  29  32
ATOM     32  C   UNL     1       0.044  -4.274  -0.031  0.00  0.00    +0.013 C 
ATOM     33  C   UNL     1       1.290  -4.759  -0.774  0.00  0.00    +0.012 C 
ATOM     34  C   UNL     1       0.076  -4.786   1.410  0.00  0.00    +0.012 C 
ENDBRANCH  29  32
ENDBRANCH  25  26
ENDBRANCH   3  25
TORSDOF 8
