REMARK  Name = ZINC31745579
REMARK  9 active torsions:
REMARK  status: ('A' for Active; 'I' for Inactive)
REMARK    1  A    between atoms: C_1  and  C_2
REMARK    2  A    between atoms: C_4  and  N_23
REMARK    3  A    between atoms: C_6  and  S_8
REMARK    4  A    between atoms: S_8  and  C_9
REMARK    5  A    between atoms: C_9  and  C_10
REMARK    6  A    between atoms: C_10  and  C_12
REMARK    7  A    between atoms: C_13  and  N_22
REMARK    8  A    between atoms: N_14  and  C_21
REMARK    9  A    between atoms: N_17  and  C_20
REMARK                            x       y       z     vdW  Elec       q    Type
REMARK                         _______ _______ _______ _____ _____    ______ ____
ROOT
ATOM      1  C   UNL     1      -1.410  -0.526   0.035  0.00  0.00    +0.182 C 
ATOM      2  O   UNL     1      -2.343   0.251   0.033  0.00  0.00    -0.291 OA
ENDROOT
BRANCH   1   3
ATOM      3  C   UNL     1      -1.650  -1.917   0.019  0.00  0.00    +0.120 A 
ATOM      4  C   UNL     1      -2.955  -2.429   0.122  0.00  0.00    +0.116 A 
ATOM      5  N   UNL     1      -3.137  -3.782   0.096  0.00  0.00    -0.284 N 
ATOM      6  C   UNL     1      -2.098  -4.624  -0.015  0.00  0.00    +0.333 A 
ATOM      7  O   UNL     1      -2.313  -5.821  -0.029  0.00  0.00    -0.246 OA
ATOM      8  N   UNL     1      -0.830  -4.194  -0.112  0.00  0.00    -0.263 N 
ATOM      9  C   UNL     1      -0.544  -2.876  -0.101  0.00  0.00    +0.269 A 
ATOM     10  O   UNL     1       0.607  -2.489  -0.189  0.00  0.00    -0.267 OA
ATOM     11  C   UNL     1       0.258  -5.168  -0.231  0.00  0.00    +0.157 C 
ATOM     12  C   UNL     1      -4.494  -4.326   0.198  0.00  0.00    +0.155 C 
BRANCH   4  13
ATOM     13  N   UNL     1      -4.019  -1.590   0.241  0.00  0.00    -0.344 N 
ATOM     14  H   UNL     1      -5.037  -2.000   0.322  0.00  0.00    +0.144 HD
ATOM     15  H   UNL     1      -3.862  -0.501   0.257  0.00  0.00    +0.144 HD
ENDBRANCH   4  13
ENDBRANCH   1   3
BRANCH   1  16
ATOM     16  C   UNL     1       0.004  -0.006   0.056  0.00  0.00    +0.157 C 
BRANCH  16  17
ATOM     17  S   UNL     1      -0.019   1.804   0.074  0.00  0.00    -0.078 S 
BRANCH  17  23
ATOM     18  C   UNL     1       3.888   5.109   0.150  0.00  0.00    +0.066 C 
ATOM     19  C   UNL     1       3.425   3.675   0.131  0.00  0.00    +0.044 A 
ATOM     20  C   UNL     1       4.346   2.645   0.131  0.00  0.00    +0.066 A 
ATOM     21  C   UNL     1       3.874   1.330   0.113  0.00  0.00    +0.121 A 
ATOM     22  N   UNL     1       2.563   1.115   0.102  0.00  0.00    -0.207 NA
ATOM     23  C   UNL     1       1.712   2.132   0.097  0.00  0.00    +0.191 A 
ATOM     24  N   UNL     1       2.132   3.389   0.114  0.00  0.00    -0.227 NA
BRANCH  21  25
ATOM     25  N   UNL     1       4.761   0.266   0.113  0.00  0.00    -0.343 N 
ATOM     26  H   UNL     1       4.381  -0.766   0.098  0.00  0.00    +0.144 HD
ATOM     27  H   UNL     1       5.845   0.453   0.127  0.00  0.00    +0.144 HD
ENDBRANCH  21  25
ENDBRANCH  17  23
ENDBRANCH  16  17
ENDBRANCH   1  16
TORSDOF 6
