REMARK  Name = ZINC50987048
REMARK  9 active torsions:
REMARK  status: ('A' for Active; 'I' for Inactive)
REMARK    1  A    between atoms: C_1  and  C_2
REMARK    2  A    between atoms: C_2  and  C_4
REMARK    3  A    between atoms: C_2  and  N_15
REMARK    4  A    between atoms: C_6  and  C_7
REMARK    5  A    between atoms: C_6  and  C_9
REMARK    6  A    between atoms: N_11  and  C_12
REMARK    7  A    between atoms: C_12  and  C_13
REMARK    8  A    between atoms: C_12  and  C_14
REMARK    9  A    between atoms: C_16  and  C_18
REMARK                            x       y       z     vdW  Elec       q    Type
REMARK                         _______ _______ _______ _____ _____    ______ ____
ROOT
ATOM      1  C   UNL     1      -1.412  -0.526   0.013  0.00  0.00    +0.198 C 
ATOM      2  O   UNL     1      -2.202  -0.302   1.076  0.00  0.00    -0.289 OA
ATOM      3  C   UNL     1      -1.889  -1.224  -1.056  0.00  0.00    +0.157 C 
ENDROOT
BRANCH   3   4
ATOM      4  C   UNL     1      -3.268  -1.733  -1.046  0.00  0.00    +0.258 C 
ATOM      5  O   UNL     1      -3.984  -1.531  -0.083  0.00  0.00    -0.269 OA
ATOM      6  N   UNL     1      -3.740  -2.423  -2.103  0.00  0.00    -0.308 N 
ATOM      7  H   UNL     1      -3.169  -2.584  -2.871  0.00  0.00    +0.149 HD
BRANCH   6   8
ATOM      8  C   UNL     1      -5.114  -2.930  -2.093  0.00  0.00    +0.067 C 
ATOM      9  C   UNL     1      -5.606  -3.099  -3.532  0.00  0.00    +0.027 C 
ATOM     10  C   UNL     1      -5.153  -4.283  -1.378  0.00  0.00    +0.027 C 
ENDBRANCH   6   8
ENDBRANCH   3   4
BRANCH   1  12
ATOM     11  C   UNL     1      -0.019   1.526   0.010  0.00  0.00    +0.036 C 
ATOM     12  C   UNL     1       0.002  -0.004   0.002  0.00  0.00    +0.142 C 
BRANCH  12  13
ATOM     13  N   UNL     1       0.711  -0.489   1.189  0.00  0.00    -0.302 N 
ATOM     14  C   UNL     1       2.054  -0.600   1.174  0.00  0.00    +0.248 C 
ATOM     15  O   UNL     1       2.678  -0.297   0.175  0.00  0.00    -0.270 OA
ATOM     16  H   UNL     1       0.213  -0.731   1.986  0.00  0.00    +0.150 HD
BRANCH  14  17
ATOM     17  C   UNL     1       2.767  -1.088   2.368  0.00  0.00    +0.074 A 
ATOM     18  C   UNL     1       4.218  -1.264   2.527  0.00  0.00    +0.054 A 
ATOM     19  C   UNL     1       4.399  -1.726   3.773  0.00  0.00    +0.195 A 
ATOM     20  O   UNL     1       3.205  -1.846   4.375  0.00  0.00    -0.470 OA
ATOM     21  C   UNL     1       2.218  -1.466   3.558  0.00  0.00    +0.207 A 
ENDBRANCH  14  17
ENDBRANCH  12  13
ENDBRANCH   1  12
BRANCH   3  22
ATOM     22  C   UNL     1      -1.046  -1.462  -2.190  0.00  0.00    +0.108 C 
ATOM     23  N   UNL     1      -0.378  -1.651  -3.089  0.00  0.00    -0.191 NA
ENDBRANCH   3  22
TORSDOF 6
