REMARK  Name = ZINC09723158
REMARK  7 active torsions:
REMARK  status: ('A' for Active; 'I' for Inactive)
REMARK    1  A    between atoms: C_1  and  C_2
REMARK    2  A    between atoms: C_2  and  C_3
REMARK    3  A    between atoms: C_3  and  C_29
REMARK    4  A    between atoms: N_6  and  N_10
REMARK    5  A    between atoms: C_11  and  C_13
REMARK    6  A    between atoms: C_16  and  C_19
REMARK    7  A    between atoms: C_19  and  N_20
REMARK                            x       y       z     vdW  Elec       q    Type
REMARK                         _______ _______ _______ _____ _____    ______ ____
ROOT
ATOM      1  N   UNL     1       1.284  -4.212  -6.094  0.00  0.00    -0.220 N 
ATOM      2  C   UNL     1       2.330  -3.639  -5.466  0.00  0.00    +0.261 C 
ATOM      3  O   UNL     1       3.388  -3.502  -6.048  0.00  0.00    -0.269 OA
ATOM      4  H   UNL     1       0.439  -4.321  -5.630  0.00  0.00    +0.174 HD
ENDROOT
BRANCH   1   8
ATOM      5  C   UNL     1       1.648  -5.935  -9.293  0.00  0.00    +0.139 C 
ATOM      6  C   UNL     1       1.532  -5.942  -7.781  0.00  0.00    +0.268 C 
ATOM      7  O   UNL     1       1.541  -6.909  -7.050  0.00  0.00    -0.271 OA
ATOM      8  N   UNL     1       1.416  -4.649  -7.419  0.00  0.00    -0.137 N 
ATOM      9  C   UNL     1       1.438  -3.835  -8.480  0.00  0.00    +0.327 C 
ATOM     10  O   UNL     1       1.344  -2.626  -8.406  0.00  0.00    -0.251 OA
ATOM     11  N   UNL     1       1.577  -4.505  -9.639  0.00  0.00    -0.280 N 
ATOM     12  H   UNL     1       1.620  -4.122 -10.529  0.00  0.00    +0.152 HD
BRANCH   5  13
ATOM     13  C   UNL     1       0.503  -6.692  -9.915  0.00  0.00    -0.015 A 
ATOM     14  C   UNL     1       0.628  -8.044 -10.175  0.00  0.00    +0.006 A 
ATOM     15  C   UNL     1      -0.423  -8.739 -10.742  0.00  0.00    +0.000 A 
ATOM     16  C   UNL     1      -1.597  -8.081 -11.059  0.00  0.00    +0.000 A 
ATOM     17  C   UNL     1      -1.720  -6.727 -10.804  0.00  0.00    +0.000 A 
ATOM     18  C   UNL     1      -0.670  -6.033 -10.232  0.00  0.00    +0.006 A 
ENDBRANCH   5  13
BRANCH   5  20
ATOM     19  C   UNL     1       4.131  -5.712  -9.130  0.00  0.00    +0.007 C 
ATOM     20  C   UNL     1       2.987  -6.530  -9.732  0.00  0.00    +0.037 C 
ENDBRANCH   5  20
ENDBRANCH   1   8
BRANCH   2  21
ATOM     21  C   UNL     1       2.190  -3.178  -4.069  0.00  0.00    +0.038 A 
ATOM     22  C   UNL     1       3.271  -2.584  -3.415  0.00  0.00    +0.013 A 
ATOM     23  C   UNL     1       3.134  -2.156  -2.111  0.00  0.00    +0.006 A 
ATOM     24  C   UNL     1       1.929  -2.314  -1.450  0.00  0.00    -0.026 A 
ATOM     25  C   UNL     1       0.855  -2.907  -2.091  0.00  0.00    +0.006 A 
ATOM     26  C   UNL     1       0.976  -3.334  -3.397  0.00  0.00    +0.013 A 
BRANCH  24  27
ATOM     27  C   UNL     1       1.786  -1.845  -0.025  0.00  0.00    +0.181 C 
BRANCH  27  28
ATOM     28  N   UNL     1       1.331  -0.453  -0.013  0.00  0.00    -0.240 N 
ATOM     29  C   UNL     1       2.122   0.671  -0.015  0.00  0.00    +0.089 A 
ATOM     30  C   UNL     1       3.496   0.886  -0.026  0.00  0.00    +0.029 A 
ATOM     31  C   UNL     1       3.985   2.163  -0.024  0.00  0.00    +0.002 A 
ATOM     32  C   UNL     1       3.120   3.250  -0.011  0.00  0.00    +0.002 A 
ATOM     33  C   UNL     1       1.768   3.066   0.001  0.00  0.00    +0.032 A 
ATOM     34  C   UNL     1       1.242   1.767  -0.000  0.00  0.00    +0.113 A 
ATOM     35  N   UNL     1      -0.015   1.282   0.009  0.00  0.00    -0.129 NA
ATOM     36  N   UNL     1       0.002  -0.004   0.002  0.00  0.00    -0.064 NA
ENDBRANCH  27  28
ENDBRANCH  24  27
ENDBRANCH   2  21
TORSDOF 6
