REMARK  Name = ZINC16122349
REMARK  7 active torsions:
REMARK  status: ('A' for Active; 'I' for Inactive)
REMARK    1  A    between atoms: C_1  and  C_2
REMARK    2  A    between atoms: C_7  and  S_25
REMARK    3  A    between atoms: C_12  and  C_14
REMARK    4  A    between atoms: C_14  and  O_15
REMARK    5  A    between atoms: O_15  and  C_16
REMARK    6  A    between atoms: C_16  and  C_18
REMARK    7  A    between atoms: S_25  and  N_28
REMARK                            x       y       z     vdW  Elec       q    Type
REMARK                         _______ _______ _______ _____ _____    ______ ____
ROOT
ATOM      1  C   UNL     1       8.637   2.643  -1.465  0.00  0.00    +0.029 C 
ATOM      2  C   UNL     1       8.278   4.076  -1.865  0.00  0.00    +0.083 C 
ATOM      3  C   UNL     1       9.380   5.048  -1.412  0.00  0.00    +0.059 C 
ATOM      4  C   UNL     1       8.687   5.991  -0.455  0.00  0.00    -0.022 A 
ATOM      5  C   UNL     1       9.168   7.068   0.265  0.00  0.00    +0.034 A 
ATOM      6  C   UNL     1       8.322   7.787   1.087  0.00  0.00    +0.105 A 
ATOM      7  C   UNL     1       6.990   7.427   1.189  0.00  0.00    +0.030 A 
ATOM      8  C   UNL     1       6.506   6.353   0.474  0.00  0.00    +0.026 A 
ATOM      9  C   UNL     1       7.353   5.625  -0.364  0.00  0.00    +0.040 A 
ATOM     10  N   UNL     1       7.069   4.512  -1.162  0.00  0.00    -0.265 N 
ATOM     11  C   UNL     1       5.859   3.929  -1.272  0.00  0.00    +0.258 C 
ATOM     12  O   UNL     1       5.712   2.968  -1.997  0.00  0.00    -0.272 OA
ENDROOT
BRANCH   6  13
ATOM     13  S   UNL     1       8.937   9.161   2.003  0.00  0.00    +0.056 S 
ATOM     14  O   UNL     1       8.069   9.329   3.115  0.00  0.00    -0.153 OA
ATOM     15  O   UNL     1      10.335   8.956   2.152  0.00  0.00    -0.153 OA
BRANCH  13  16
ATOM     16  N   UNL     1       8.755  10.505   1.053  0.00  0.00    -0.204 NA
ATOM     17  H   UNL     1       8.610  11.372   1.462  0.00  0.00    +0.144 HD
ATOM     18  H   UNL     1       8.792  10.425   0.087  0.00  0.00    +0.144 HD
ENDBRANCH  13  16
ENDBRANCH   6  13
BRANCH  11  19
ATOM     19  C   UNL     1       4.687   4.473  -0.495  0.00  0.00    +0.328 C 
BRANCH  19  20
ATOM     20  O   UNL     1       3.506   3.679  -0.783  0.00  0.00    -0.455 OA
BRANCH  20  21
ATOM     21  C   UNL     1       2.368   4.034  -0.165  0.00  0.00    +0.311 C 
ATOM     22  O   UNL     1       2.360   4.977   0.590  0.00  0.00    -0.251 OA
BRANCH  21  23
ATOM     23  C   UNL     1       1.101   3.257  -0.415  0.00  0.00    +0.102 C 
ATOM     24  C   UNL     1      -0.039   3.846   0.425  0.00  0.00    +0.019 C 
ATOM     25  C   UNL     1      -1.344   3.157   0.021  0.00  0.00    +0.028 C 
ATOM     26  C   UNL     1      -1.164   1.667   0.017  0.00  0.00    -0.031 C 
ATOM     27  C   UNL     1      -0.013   1.076   0.008  0.00  0.00    -0.030 C 
ATOM     28  C   UNL     1       1.303   1.797  -0.001  0.00  0.00    +0.041 C 
ENDBRANCH  21  23
ENDBRANCH  20  21
ENDBRANCH  19  20
ENDBRANCH  11  19
TORSDOF 6
