REMARK  Name = ZINC40332597
REMARK  6 active torsions:
REMARK  status: ('A' for Active; 'I' for Inactive)
REMARK    1  A    between atoms: C_3  and  O_19
REMARK    2  A    between atoms: C_4  and  N_18
REMARK    3  A    between atoms: C_6  and  S_7
REMARK    4  A    between atoms: S_7  and  N_10
REMARK    5  A    between atoms: N_10  and  C_11
REMARK    6  A    between atoms: C_11  and  C_12
REMARK                            x       y       z     vdW  Elec       q    Type
REMARK                         _______ _______ _______ _____ _____    ______ ____
ROOT
ATOM      1  C   UNL     1      -0.017   1.378   0.010  0.00  0.00    +0.032 A 
ATOM      2  C   UNL     1       1.169   2.090   0.002  0.00  0.00    +0.049 A 
ATOM      3  C   UNL     1       2.380   1.418  -0.013  0.00  0.00    +0.137 A 
ATOM      4  C   UNL     1       2.400   0.024  -0.021  0.00  0.00    +0.068 A 
ATOM      5  C   UNL     1       1.207  -0.682  -0.013  0.00  0.00    +0.055 A 
ATOM      6  C   UNL     1       0.002  -0.004   0.002  0.00  0.00    +0.107 A 
ENDROOT
BRANCH   6   7
ATOM      7  S   UNL     1      -1.513  -0.904   0.012  0.00  0.00    +0.058 S 
ATOM      8  O   UNL     1      -1.221  -2.185   0.553  0.00  0.00    -0.153 OA
ATOM      9  O   UNL     1      -2.492  -0.043   0.578  0.00  0.00    -0.153 OA
BRANCH   7  10
ATOM     10  N   UNL     1      -1.950  -1.145  -1.567  0.00  0.00    -0.190 NA
ATOM     11  H   UNL     1      -2.757  -0.735  -1.915  0.00  0.00    +0.148 HD
BRANCH  10  12
ATOM     12  C   UNL     1      -1.117  -1.978  -2.438  0.00  0.00    +0.111 C 
BRANCH  12  13
ATOM     13  C   UNL     1      -1.905  -2.347  -3.696  0.00  0.00    +0.032 C 
ATOM     14  C   UNL     1      -1.032  -3.185  -4.670  0.00  0.00    +0.035 C 
ATOM     15  C   UNL     1      -2.119  -4.008  -5.406  0.00  0.00    +0.160 C 
ATOM     16  O   UNL     1      -3.108  -4.301  -4.407  0.00  0.00    -0.379 OA
ATOM     17  C   UNL     1      -3.055  -3.320  -3.359  0.00  0.00    +0.164 C 
ENDBRANCH  12  13
ENDBRANCH  10  12
ENDBRANCH   7  10
ENDBRANCH   6   7
BRANCH   4  18
ATOM     18  N   UNL     1       3.621  -0.660  -0.037  0.00  0.00    -0.355 N 
ATOM     19  H   UNL     1       4.455  -0.164  -0.043  0.00  0.00    +0.142 HD
ATOM     20  H   UNL     1       3.633  -1.630  -0.043  0.00  0.00    +0.142 HD
ENDBRANCH   4  18
BRANCH   3  21
ATOM     21  O   UNL     1       3.547   2.116  -0.022  0.00  0.00    -0.505 OA
ATOM     22  H   UNL     1       3.894   2.314   0.859  0.00  0.00    +0.292 HD
ENDBRANCH   3  21
TORSDOF 6
