REMARK  Name = ZINC67326285
REMARK  6 active torsions:
REMARK  status: ('A' for Active; 'I' for Inactive)
REMARK    1  A    between atoms: C_1  and  C_2
REMARK    2  A    between atoms: C_2  and  C_3
REMARK    3  A    between atoms: N_12  and  C_13
REMARK    4  A    between atoms: C_18  and  O_19
REMARK    5  A    between atoms: O_19  and  C_20
REMARK    6  A    between atoms: C_20  and  C_21
REMARK                            x       y       z     vdW  Elec       q    Type
REMARK                         _______ _______ _______ _____ _____    ______ ____
ROOT
ATOM      1  C   UNL     1      -1.852  -0.170  -0.140  0.00  0.00    +0.135 C 
ATOM      2  C   UNL     1      -1.658  -1.668  -0.403  0.00  0.00    +0.141 C 
ATOM      3  N   UNL     1      -2.906  -2.366  -0.057  0.00  0.00    -0.281 N 
ATOM      4  C   UNL     1      -3.508  -2.096   1.258  0.00  0.00    +0.137 C 
ATOM      5  C   UNL     1      -3.611  -0.578   1.441  0.00  0.00    +0.179 C 
ATOM      6  O   UNL     1      -2.335   0.015   1.193  0.00  0.00    -0.373 OA
ATOM      7  C   UNL     1      -3.483  -3.225  -0.920  0.00  0.00    +0.307 C 
ATOM      8  O   UNL     1      -3.023  -3.365  -2.038  0.00  0.00    -0.252 OA
ATOM      9  N   UNL     1      -4.568  -3.931  -0.545  0.00  0.00    -0.266 N 
ATOM     10  H   UNL     1      -4.974  -3.773   0.322  0.00  0.00    +0.156 HD
ENDROOT
BRANCH   9  11
ATOM     11  C   UNL     1      -5.111  -4.893  -1.408  0.00  0.00    +0.079 A 
ATOM     12  C   UNL     1      -4.355  -5.389  -2.460  0.00  0.00    +0.065 A 
ATOM     13  C   UNL     1      -4.893  -6.340  -3.310  0.00  0.00    +0.125 A 
ATOM     14  C   UNL     1      -6.185  -6.796  -3.112  0.00  0.00    +0.042 A 
ATOM     15  C   UNL     1      -6.943  -6.305  -2.065  0.00  0.00    +0.050 A 
ATOM     16  C   UNL     1      -6.408  -5.358  -1.207  0.00  0.00    +0.142 A 
ATOM     17  F   UNL     1      -4.157  -6.822  -4.334  0.00  0.00    -0.205 F 
BRANCH  16  18
ATOM     18  O   UNL     1      -7.151  -4.879  -0.173  0.00  0.00    -0.490 OA
BRANCH  18  19
ATOM     19  C   UNL     1      -8.473  -5.401  -0.027  0.00  0.00    +0.226 C 
ATOM     20  C   UNL     1      -9.149  -4.748   1.180  0.00  0.00    +0.048 C 
ENDBRANCH  18  19
ENDBRANCH  16  18
ENDBRANCH   9  11
BRANCH   1  22
ATOM     21  C   UNL     1      -0.731   2.063  -0.162  0.00  0.00    +0.006 C 
ATOM     22  C   UNL     1      -0.515   0.555  -0.304  0.00  0.00    +0.030 C 
ENDBRANCH   1  22
TORSDOF 4
