REMARK  Name = ZINC39449527
REMARK  8 active torsions:
REMARK  status: ('A' for Active; 'I' for Inactive)
REMARK    1  A    between atoms: C_1  and  C_2
REMARK    2  A    between atoms: C_2  and  C_3
REMARK    3  A    between atoms: C_2  and  S_4
REMARK    4  A    between atoms: S_4  and  N_7
REMARK    5  A    between atoms: C_15  and  O_18
REMARK    6  A    between atoms: O_18  and  C_19
REMARK    7  A    between atoms: C_21  and  C_26
REMARK    8  A    between atoms: C_31  and  O_32
REMARK                            x       y       z     vdW  Elec       q    Type
REMARK                         _______ _______ _______ _____ _____    ______ ____
ROOT
ATOM      1  N   UNL     1      -1.606  -2.471   0.121  0.00  0.00    -0.174 N 
ATOM      2  C   UNL     1      -1.471  -3.082  -1.119  0.00  0.00    +0.134 A 
ATOM      3  C   UNL     1      -1.376  -4.458  -1.227  0.00  0.00    +0.083 A 
ATOM      4  C   UNL     1      -1.426  -5.289  -0.017  0.00  0.00    +0.099 A 
ATOM      5  C   UNL     1      -1.565  -4.643   1.231  0.00  0.00    +0.072 A 
ATOM      6  C   UNL     1      -1.650  -3.176   1.266  0.00  0.00    +0.281 A 
ATOM      7  O   UNL     1      -1.764  -2.599   2.332  0.00  0.00    -0.265 OA
ATOM      8  C   UNL     1      -1.615  -5.410   2.394  0.00  0.00    +0.062 A 
ATOM      9  C   UNL     1      -1.525  -6.791   2.268  0.00  0.00    +0.139 A 
ATOM     10  C   UNL     1      -1.390  -7.357   1.002  0.00  0.00    +0.157 A 
ATOM     11  N   UNL     1      -1.344  -6.612  -0.081  0.00  0.00    -0.249 NA
ATOM     12  N   UNL     1      -1.227  -5.043  -2.470  0.00  0.00    -0.333 N 
ATOM     13  C   UNL     1      -0.602  -4.253  -3.542  0.00  0.00    +0.112 C 
ATOM     14  C   UNL     1      -1.343  -2.916  -3.647  0.00  0.00    +0.108 C 
ATOM     15  C   UNL     1      -1.428  -2.283  -2.283  0.00  0.00    +0.185 C 
ATOM     16  O   UNL     1      -1.460  -1.072  -2.183  0.00  0.00    -0.290 OA
ATOM     17  H   UNL     1      -1.528  -5.950  -2.632  0.00  0.00    +0.147 HD
ENDROOT
BRANCH  13  18
ATOM     18  C   UNL     1       0.848  -4.006  -3.212  0.00  0.00    +0.014 A 
ATOM     19  C   UNL     1       1.299  -4.167  -1.915  0.00  0.00    +0.009 A 
ATOM     20  C   UNL     1       2.628  -3.940  -1.612  0.00  0.00    +0.001 A 
ATOM     21  C   UNL     1       3.510  -3.554  -2.604  0.00  0.00    +0.004 A 
ATOM     22  C   UNL     1       3.065  -3.393  -3.902  0.00  0.00    +0.046 A 
ATOM     23  C   UNL     1       1.732  -3.624  -4.210  0.00  0.00    +0.122 A 
BRANCH  23  24
ATOM     24  O   UNL     1       1.292  -3.472  -5.487  0.00  0.00    -0.506 OA
ATOM     25  H   UNL     1       0.983  -2.579  -5.692  0.00  0.00    +0.292 HD
ENDBRANCH  23  24
ENDBRANCH  13  18
BRANCH   1  26
ATOM     26  S   UNL     1      -1.709  -0.819   0.194  0.00  0.00    +0.060 S 
ATOM     27  O   UNL     1      -1.879  -0.526   1.574  0.00  0.00    -0.153 OA
ATOM     28  O   UNL     1      -2.715  -0.477  -0.749  0.00  0.00    -0.153 OA
BRANCH  26  30
ATOM     29  C   UNL     1      -0.089   1.304  -0.399  0.00  0.00    +0.033 C 
ATOM     30  C   UNL     1      -0.092  -0.226  -0.376  0.00  0.00    +0.148 C 
ATOM     31  C   UNL     1       0.998  -0.725   0.575  0.00  0.00    +0.033 C 
ENDBRANCH  26  30
ENDBRANCH   1  26
BRANCH   9  32
ATOM     32  O   UNL     1      -1.569  -7.583   3.370  0.00  0.00    -0.494 OA
ATOM     33  C   UNL     1      -1.470  -8.993   3.160  0.00  0.00    +0.277 C 
ENDBRANCH   9  32
TORSDOF 5
