REMARK  Name = ZINC48856619
REMARK  7 active torsions:
REMARK  status: ('A' for Active; 'I' for Inactive)
REMARK    1  A    between atoms: C_1  and  C_2
REMARK    2  A    between atoms: C_2  and  C_3
REMARK    3  A    between atoms: C_3  and  C_4
REMARK    4  A    between atoms: C_3  and  C_5
REMARK    5  A    between atoms: C_3  and  N_9
REMARK    6  A    between atoms: N_6  and  O_7
REMARK    7  A    between atoms: C_10  and  C_12
REMARK                            x       y       z     vdW  Elec       q    Type
REMARK                         _______ _______ _______ _____ _____    ______ ____
ROOT
ATOM      1  N   UNL     1       0.081   0.085  -2.441  0.00  0.00    -0.299 N 
ATOM      2  C   UNL     1      -1.221  -0.155  -2.692  0.00  0.00    +0.251 C 
ATOM      3  O   UNL     1      -1.867  -0.855  -1.935  0.00  0.00    -0.270 OA
ATOM      4  H   UNL     1       0.597   0.642  -3.044  0.00  0.00    +0.150 HD
ENDROOT
BRANCH   2   5
ATOM      5  C   UNL     1      -1.860   0.429  -3.880  0.00  0.00    +0.075 A 
ATOM      6  C   UNL     1      -3.149   0.308  -4.294  0.00  0.00    +0.029 A 
ATOM      7  C   UNL     1      -3.571   0.951  -5.472  0.00  0.00    -0.010 A 
ATOM      8  C   UNL     1      -4.862   0.945  -6.062  0.00  0.00    +0.009 A 
ATOM      9  C   UNL     1      -5.103   1.625  -7.212  0.00  0.00    +0.001 A 
ATOM     10  C   UNL     1      -4.105   2.349  -7.853  0.00  0.00    +0.001 A 
ATOM     11  C   UNL     1      -2.835   2.383  -7.313  0.00  0.00    +0.015 A 
ATOM     12  C   UNL     1      -2.575   1.697  -6.146  0.00  0.00    +0.020 A 
ATOM     13  S   UNL     1      -1.137   1.478  -5.129  0.00  0.00    -0.084 S 
ENDBRANCH   2   5
BRANCH   1  14
ATOM     14  C   UNL     1       0.718  -0.497  -1.257  0.00  0.00    +0.090 C 
ATOM     15  C   UNL     1       0.630  -2.023  -1.329  0.00  0.00    +0.040 C 
BRANCH  14  16
ATOM     16  C   UNL     1       2.165  -0.079  -1.208  0.00  0.00    +0.155 C 
ATOM     17  N   UNL     1       2.633   0.507  -0.156  0.00  0.00    -0.075 NA
ATOM     18  N   UNL     1       2.989  -0.323  -2.285  0.00  0.00    -0.342 N 
ATOM     19  H   UNL     1       2.638  -0.763  -3.074  0.00  0.00    +0.144 HD
ATOM     20  H   UNL     1       3.920  -0.053  -2.253  0.00  0.00    +0.144 HD
BRANCH  17  21
ATOM     21  O   UNL     1       3.993   0.900  -0.110  0.00  0.00    -0.408 OA
ATOM     22  H   UNL     1       4.250   1.331   0.716  0.00  0.00    +0.328 HD
ENDBRANCH  17  21
ENDBRANCH  14  16
BRANCH  14  24
ATOM     23  C   UNL     1      -0.019   1.526   0.010  0.00  0.00    +0.006 C 
ATOM     24  C   UNL     1       0.002  -0.004   0.002  0.00  0.00    +0.030 C 
ENDBRANCH  14  24
ENDBRANCH   1  14
TORSDOF 5
