REMARK  Name = ZINC30681170
REMARK  6 active torsions:
REMARK  status: ('A' for Active; 'I' for Inactive)
REMARK    1  A    between atoms: C_1  and  C_2
REMARK    2  A    between atoms: C_3  and  C_12
REMARK    3  A    between atoms: C_12  and  C_13
REMARK    4  A    between atoms: C_13  and  C_14
REMARK    5  A    between atoms: N_16  and  N_17
REMARK    6  A    between atoms: N_19  and  C_27
REMARK                            x       y       z     vdW  Elec       q    Type
REMARK                         _______ _______ _______ _____ _____    ______ ____
ROOT
ATOM      1  C   UNL     1      -3.846   8.512   0.081  0.00  0.00    +0.233 C 
ATOM      2  O   UNL     1      -5.013   8.180   0.090  0.00  0.00    -0.274 OA
ATOM      3  N   UNL     1      -2.880   7.576   0.068  0.00  0.00    -0.205 N 
ATOM      4  H   UNL     1      -1.822   7.878   0.059  0.00  0.00    +0.177 HD
ENDROOT
BRANCH   3   5
ATOM      5  N   UNL     1      -3.222   6.218   0.064  0.00  0.00    -0.154 NA
ATOM      6  C   UNL     1      -2.284   5.309   0.051  0.00  0.00    +0.191 A 
ATOM      7  N   UNL     1      -2.412   3.934   0.045  0.00  0.00    -0.321 N 
ATOM      8  C   UNL     1      -1.276   3.138   0.030  0.00  0.00    +0.057 A 
ATOM      9  C   UNL     1      -1.220   1.734   0.017  0.00  0.00    +0.027 A 
ATOM     10  C   UNL     1      -0.013   1.076   0.008  0.00  0.00    +0.002 A 
ATOM     11  C   UNL     1       1.184   1.771   0.000  0.00  0.00    +0.001 A 
ATOM     12  C   UNL     1       1.158   3.156   0.007  0.00  0.00    +0.017 A 
ATOM     13  C   UNL     1      -0.049   3.814   0.022  0.00  0.00    +0.039 A 
ATOM     14  S   UNL     1      -0.513   5.529   0.035  0.00  0.00    -0.048 S 
ATOM     15  C   UNL     1      -3.741   3.318   0.055  0.00  0.00    +0.151 C 
ENDBRANCH   3   5
BRANCH   1  16
ATOM     16  C   UNL     1      -3.478   9.974   0.085  0.00  0.00    +0.102 C 
BRANCH  16  17
ATOM     17  C   UNL     1      -4.753  10.820   0.101  0.00  0.00    +0.051 C 
BRANCH  17  20
ATOM     18  C   UNL     1      -4.620  12.290  -2.361  0.00  0.00    +0.064 C 
ATOM     19  C   UNL     1      -4.323  12.975  -1.052  0.00  0.00    +0.026 A 
ATOM     20  C   UNL     1      -4.386  12.282   0.105  0.00  0.00    +0.036 A 
ATOM     21  C   UNL     1      -4.096  12.945   1.322  0.00  0.00    +0.257 A 
ATOM     22  O   UNL     1      -4.142  12.341   2.378  0.00  0.00    -0.267 OA
ATOM     23  N   UNL     1      -3.770  14.254   1.301  0.00  0.00    -0.275 N 
ATOM     24  H   UNL     1      -3.544  14.779   2.240  0.00  0.00    +0.173 HD
ATOM     25  C   UNL     1      -3.720  14.921   0.133  0.00  0.00    +0.327 A 
ATOM     26  O   UNL     1      -3.424  16.101   0.129  0.00  0.00    -0.247 OA
ATOM     27  N   UNL     1      -3.992  14.302  -1.030  0.00  0.00    -0.311 N 
ATOM     28  H   UNL     1      -3.947  14.873  -1.969  0.00  0.00    +0.170 HD
ENDBRANCH  17  20
ENDBRANCH  16  17
ENDBRANCH   1  16
TORSDOF 4
