REMARK  Name = ZINC05055658
REMARK  7 active torsions:
REMARK  status: ('A' for Active; 'I' for Inactive)
REMARK    1  A    between atoms: C_1  and  C_2
REMARK    2  A    between atoms: C_9  and  N_15
REMARK    3  A    between atoms: C_10  and  C_11
REMARK    4  A    between atoms: N_13  and  C_14
REMARK    5  A    between atoms: C_16  and  C_18
REMARK    6  A    between atoms: C_19  and  C_20
REMARK    7  A    between atoms: C_23  and  N_25
REMARK                            x       y       z     vdW  Elec       q    Type
REMARK                         _______ _______ _______ _____ _____    ______ ____
ROOT
ATOM      1  C   UNL     1       4.706   4.392   0.077  0.00  0.00    +0.008 C 
ATOM      2  C   UNL     1       3.898   3.124   0.361  0.00  0.00    -0.009 C 
ATOM      3  C   UNL     1       4.436   1.968  -0.488  0.00  0.00    +0.008 C 
ATOM      4  C   UNL     1       3.805   0.651  -0.033  0.00  0.00    +0.037 C 
ATOM      5  C   UNL     1       2.290   0.813  -0.016  0.00  0.00    -0.023 A 
ATOM      6  C   UNL     1       1.722   2.038  -0.003  0.00  0.00    -0.004 A 
ATOM      7  S   UNL     1      -0.021   1.728   0.011  0.00  0.00    -0.077 S 
ATOM      8  C   UNL     1       0.002  -0.004   0.002  0.00  0.00    +0.085 A 
ATOM      9  C   UNL     1       1.358  -0.302  -0.013  0.00  0.00    +0.069 A 
ATOM     10  C   UNL     1       2.425   3.360  -0.002  0.00  0.00    +0.046 C 
ENDROOT
BRANCH   9  11
ATOM     11  C   UNL     1       1.832  -1.689  -0.024  0.00  0.00    +0.246 C 
ATOM     12  O   UNL     1       2.018  -2.260  -1.083  0.00  0.00    -0.270 OA
ATOM     13  N   UNL     1       2.060  -2.333   1.138  0.00  0.00    -0.314 N 
ATOM     14  C   UNL     1       2.534  -3.719   1.126  0.00  0.00    +0.128 C 
ATOM     15  H   UNL     1       1.912  -1.878   1.981  0.00  0.00    +0.149 HD
ENDBRANCH   9  11
BRANCH   8  16
ATOM     16  N   UNL     1      -1.071  -0.879   0.008  0.00  0.00    -0.276 N 
ATOM     17  C   UNL     1      -2.331  -0.401   0.023  0.00  0.00    +0.241 C 
ATOM     18  O   UNL     1      -2.526   0.802   0.031  0.00  0.00    -0.270 OA
ATOM     19  H   UNL     1      -0.916  -1.837   0.002  0.00  0.00    +0.156 HD
BRANCH  17  20
ATOM     20  C   UNL     1      -3.427  -1.294   0.029  0.00  0.00    +0.068 C 
ATOM     21  C   UNL     1      -4.695  -0.812   0.044  0.00  0.00    +0.020 C 
BRANCH  21  22
ATOM     22  C   UNL     1      -5.792  -1.707   0.050  0.00  0.00    +0.015 A 
ATOM     23  C   UNL     1      -7.153  -1.425   0.065  0.00  0.00    +0.018 A 
ATOM     24  C   UNL     1      -8.011  -2.495   0.068  0.00  0.00    +0.041 A 
ATOM     25  C   UNL     1      -7.502  -3.755   0.057  0.00  0.00    +0.164 A 
ATOM     26  S   UNL     1      -5.789  -3.491   0.033  0.00  0.00    -0.065 S 
BRANCH  25  27
ATOM     27  N   UNL     1      -8.233  -5.042   0.057  0.00  0.00    +0.063 N 
ATOM     28  O   UNL     1      -9.451  -5.051   0.068  0.00  0.00    -0.126 OA
ATOM     29  O   UNL     1      -7.617  -6.093   0.046  0.00  0.00    -0.126 OA
ENDBRANCH  25  27
ENDBRANCH  21  22
ENDBRANCH  17  20
ENDBRANCH   8  16
TORSDOF 5
