REMARK  Name = ZINC39405208
REMARK  7 active torsions:
REMARK  status: ('A' for Active; 'I' for Inactive)
REMARK    1  A    between atoms: C_6  and  C_11
REMARK    2  A    between atoms: C_11  and  N_12
REMARK    3  A    between atoms: C_13  and  C_15
REMARK    4  A    between atoms: C_15  and  C_16
REMARK    5  A    between atoms: C_16  and  C_17
REMARK    6  A    between atoms: C_21  and  C_24
REMARK    7  A    between atoms: C_24  and  C_28
REMARK                            x       y       z     vdW  Elec       q    Type
REMARK                         _______ _______ _______ _____ _____    ______ ____
ROOT
ATOM      1  C   UNL     1     -10.329  -0.046   4.584  0.00  0.00    +0.202 C 
ATOM      2  N   UNL     1     -11.814  -0.058   4.627  0.00  0.00    -0.227 NA
ATOM      3  N   UNL     1     -12.086  -0.791   5.876  0.00  0.00    -0.226 NA
ATOM      4  C   UNL     1     -11.016  -1.814   5.921  0.00  0.00    +0.212 C 
ATOM      5  O   UNL     1      -9.937  -1.330   5.104  0.00  0.00    -0.341 OA
ATOM      6  H   UNL     1     -12.195  -0.546   3.831  0.00  0.00    +0.143 HD
ATOM      7  H   UNL     1     -12.033  -0.177   6.675  0.00  0.00    +0.143 HD
ENDROOT
BRANCH   4   8
ATOM      8  C   UNL     1     -10.537  -2.005   7.361  0.00  0.00    +0.036 C 
ATOM      9  C   UNL     1      -9.505  -0.958   7.811  0.00  0.00    +0.015 C 
ATOM     10  C   UNL     1      -8.771  -2.104   8.527  0.00  0.00    +0.002 C 
ATOM     11  C   UNL     1      -9.421  -3.053   7.506  0.00  0.00    +0.015 C 
BRANCH   8  12
ATOM     12  C   UNL     1     -11.672  -2.193   8.335  0.00  0.00    -0.037 A 
ATOM     13  C   UNL     1     -11.791  -1.356   9.428  0.00  0.00    +0.006 A 
ATOM     14  C   UNL     1     -12.831  -1.528  10.321  0.00  0.00    +0.020 A 
ATOM     15  C   UNL     1     -13.754  -2.539  10.121  0.00  0.00    +0.041 A 
ATOM     16  C   UNL     1     -13.635  -3.377   9.027  0.00  0.00    +0.020 A 
ATOM     17  C   UNL     1     -12.597  -3.200   8.131  0.00  0.00    +0.006 A 
ATOM     18 CL   UNL     1     -15.061  -2.756  11.243  0.00  0.00    -0.084 Cl
ENDBRANCH   8  12
ENDBRANCH   4   8
BRANCH   1  19
ATOM     19  C   UNL     1      -9.838   0.118   3.144  0.00  0.00    +0.058 C 
BRANCH  19  20
ATOM     20  C   UNL     1      -8.310   0.176   3.129  0.00  0.00    +0.099 C 
BRANCH  20  22
ATOM     21  N   UNL     1      -6.506   0.413   1.453  0.00  0.00    -0.310 N 
ATOM     22  C   UNL     1      -7.827   0.338   1.711  0.00  0.00    +0.213 C 
ATOM     23  O   UNL     1      -8.627   0.400   0.801  0.00  0.00    -0.276 OA
ATOM     24  H   UNL     1      -5.866   0.363   2.180  0.00  0.00    +0.149 HD
BRANCH  21  25
ATOM     25  C   UNL     1      -6.037   0.570   0.074  0.00  0.00    +0.157 C 
BRANCH  25  31
ATOM     26  C   UNL     1      -0.004   1.371   0.022  0.00  0.00    +0.001 A 
ATOM     27  C   UNL     1       0.006  -0.017   0.004  0.00  0.00    +0.002 A 
ATOM     28  C   UNL     1      -1.174  -0.728   0.007  0.00  0.00    +0.026 A 
ATOM     29  C   UNL     1      -2.389  -0.051   0.029  0.00  0.00    +0.047 A 
ATOM     30  N   UNL     1      -3.703  -0.462   0.037  0.00  0.00    -0.357 N 
ATOM     31  C   UNL     1      -4.531   0.628   0.059  0.00  0.00    +0.034 A 
ATOM     32  H   UNL     1      -3.998  -1.385   0.027  0.00  0.00    +0.166 HD
ATOM     33  C   UNL     1      -3.803   1.756   0.067  0.00  0.00    +0.032 A 
ATOM     34  C   UNL     1      -2.394   1.356   0.047  0.00  0.00    -0.000 A 
ATOM     35  C   UNL     1      -1.186   2.057   0.049  0.00  0.00    +0.010 A 
ENDBRANCH  25  31
ENDBRANCH  21  25
ENDBRANCH  20  22
ENDBRANCH  19  20
ENDBRANCH   1  19
TORSDOF 7
