REMARK  Name = ZINC06549714
REMARK  10 active torsions:
REMARK  status: ('A' for Active; 'I' for Inactive)
REMARK    1  A    between atoms: C_1  and  C_2
REMARK    2  A    between atoms: C_2  and  N_3
REMARK    3  A    between atoms: C_4  and  N_29
REMARK    4  A    between atoms: C_5  and  C_12
REMARK    5  A    between atoms: C_12  and  C_14
REMARK    6  A    between atoms: C_14  and  N_53
REMARK    7  A    between atoms: C_15  and  C_16
REMARK    8  A    between atoms: C_15  and  N_53
REMARK    9  A    between atoms: C_22  and  C_23
REMARK   10  A    between atoms: C_22  and  N_53
REMARK                            x       y       z     vdW  Elec       q    Type
REMARK                         _______ _______ _______ _____ _____    ______ ____
ROOT
ATOM      1  C   UNL     1      -2.037   0.848   1.454  0.00  0.00    +0.003 C 
ENDROOT
BRANCH   1   2
ATOM      2  C   UNL     1      -2.986   1.677   2.282  0.00  0.00    +0.155 C 
ATOM      3  O   UNL     1      -2.599   2.701   2.807  0.00  0.00    -0.294 OA
BRANCH   2   6
ATOM      4  N   UNL     1      -6.543   1.629   3.246  0.00  0.00    -0.282 N 
ATOM      5  C   UNL     1      -5.259   2.074   3.112  0.00  0.00    +0.116 A 
ATOM      6  C   UNL     1      -4.325   1.262   2.446  0.00  0.00    +0.118 A 
ATOM      7  C   UNL     1      -4.788  -0.030   1.922  0.00  0.00    +0.266 A 
ATOM      8  O   UNL     1      -4.023  -0.771   1.333  0.00  0.00    -0.267 OA
ATOM      9  N   UNL     1      -6.077  -0.379   2.112  0.00  0.00    -0.274 N 
ATOM     10  H   UNL     1      -6.406  -1.259   1.768  0.00  0.00    +0.173 HD
ATOM     11  C   UNL     1      -6.925   0.439   2.756  0.00  0.00    +0.331 A 
ATOM     12  O   UNL     1      -8.079   0.089   2.902  0.00  0.00    -0.246 OA
BRANCH   5  13
ATOM     13  N   UNL     1      -4.890   3.283   3.615  0.00  0.00    -0.344 N 
ATOM     14  H   UNL     1      -4.011   3.643   3.417  0.00  0.00    +0.144 HD
ATOM     15  H   UNL     1      -5.506   3.785   4.171  0.00  0.00    +0.144 HD
ENDBRANCH   5  13
BRANCH   4  17
ATOM     16  C   UNL     1      -8.214   3.386   2.927  0.00  0.00    +0.027 C 
ATOM     17  C   UNL     1      -7.525   2.468   3.938  0.00  0.00    +0.125 C 
ENDBRANCH   4  17
ENDBRANCH   2   6
ENDBRANCH   1   2
BRANCH   1  18
ATOM     18  N   UNL     1      -0.743   1.558   1.364  0.00  0.00    +0.390 N 
ATOM     19  H   UNL     1      -0.920   2.551   1.170  0.00  0.00    -0.080 HD
BRANCH  18  20
ATOM     20  C   UNL     1       0.068   0.992   0.266  0.00  0.00    -0.042 C 
BRANCH  20  21
ATOM     21  C   UNL     1      -0.463   1.512  -1.045  0.00  0.00    -0.064 A 
ATOM     22  C   UNL     1      -1.345   0.748  -1.786  0.00  0.00    +0.002 A 
ATOM     23  C   UNL     1      -1.835   1.227  -2.986  0.00  0.00    +0.000 A 
ATOM     24  C   UNL     1      -1.436   2.467  -3.450  0.00  0.00    +0.000 A 
ATOM     25  C   UNL     1      -0.550   3.228  -2.712  0.00  0.00    +0.000 A 
ATOM     26  C   UNL     1      -0.063   2.751  -1.509  0.00  0.00    +0.002 A 
ENDBRANCH  20  21
ENDBRANCH  18  20
BRANCH  18  27
ATOM     27  C   UNL     1      -0.013   1.442   2.644  0.00  0.00    -0.042 C 
BRANCH  27  28
ATOM     28  C   UNL     1       1.189   2.350   2.602  0.00  0.00    -0.064 A 
ATOM     29  C   UNL     1       2.403   1.869   2.149  0.00  0.00    +0.002 A 
ATOM     30  C   UNL     1       3.505   2.703   2.106  0.00  0.00    +0.000 A 
ATOM     31  C   UNL     1       3.394   4.016   2.525  0.00  0.00    +0.000 A 
ATOM     32  C   UNL     1       2.182   4.495   2.983  0.00  0.00    +0.000 A 
ATOM     33  C   UNL     1       1.079   3.662   3.021  0.00  0.00    +0.002 A 
ENDBRANCH  27  28
ENDBRANCH  18  27
ENDBRANCH   1  18
TORSDOF 9
