REMARK  Name = ZINC00522454
REMARK  5 active torsions:
REMARK  status: ('A' for Active; 'I' for Inactive)
REMARK    1  A    between atoms: C_1  and  C_2
REMARK    2  A    between atoms: C_3  and  N_9
REMARK    3  A    between atoms: C_13  and  N_17
REMARK    4  A    between atoms: N_17  and  C_18
REMARK    5  A    between atoms: N_17  and  O_24
REMARK                            x       y       z     vdW  Elec       q    Type
REMARK                         _______ _______ _______ _____ _____    ______ ____
ROOT
ATOM      1  N   UNL     1       0.246  -0.022  -2.543  0.00  0.00    -0.208 N 
ATOM      2  C   UNL     1       1.228   0.620  -3.188  0.00  0.00    +0.229 C 
ATOM      3  O   UNL     1       2.402   0.589  -2.889  0.00  0.00    -0.275 OA
ATOM      4  C   UNL     1       0.639   1.391  -4.349  0.00  0.00    +0.133 C 
ATOM      5  C   UNL     1      -0.869   1.079  -4.263  0.00  0.00    +0.207 C 
ATOM      6  C   UNL     1      -0.973   0.161  -3.065  0.00  0.00    +0.252 C 
ATOM      7  O   UNL     1      -1.998  -0.330  -2.644  0.00  0.00    -0.272 OA
ENDROOT
BRANCH   1  10
ATOM      8  C   UNL     1       0.129   1.197   0.026  0.00  0.00    +0.047 C 
ATOM      9  C   UNL     1       0.428  -0.270  -0.146  0.00  0.00    -0.010 A 
ATOM     10  C   UNL     1       0.476  -0.825  -1.417  0.00  0.00    +0.048 A 
ATOM     11  C   UNL     1       0.752  -2.177  -1.572  0.00  0.00    +0.024 A 
ATOM     12  C   UNL     1       0.978  -2.966  -0.461  0.00  0.00    +0.003 A 
ATOM     13  C   UNL     1       0.930  -2.412   0.805  0.00  0.00    +0.020 A 
ATOM     14  C   UNL     1       0.660  -1.063   0.962  0.00  0.00    +0.046 A 
ATOM     15 CL   UNL     1       0.608  -0.369   2.553  0.00  0.00    -0.083 Cl
ENDBRANCH   1  10
BRANCH   5  16
ATOM     16  N   UNL     1      -1.324   0.396  -5.476  0.00  0.00    -0.243 N 
BRANCH  16  17
ATOM     17  C   UNL     1      -2.232   1.024  -6.332  0.00  0.00    +0.065 A 
ATOM     18  C   UNL     1      -2.562   2.360  -6.139  0.00  0.00    +0.028 A 
ATOM     19  C   UNL     1      -3.459   2.978  -6.987  0.00  0.00    +0.002 A 
ATOM     20  C   UNL     1      -4.030   2.268  -8.028  0.00  0.00    +0.000 A 
ATOM     21  C   UNL     1      -3.705   0.938  -8.223  0.00  0.00    +0.002 A 
ATOM     22  C   UNL     1      -2.803   0.316  -7.382  0.00  0.00    +0.028 A 
ENDBRANCH  16  17
BRANCH  16  23
ATOM     23  O   UNL     1      -0.844  -0.900  -5.782  0.00  0.00    -0.286 OA
ATOM     24  H   UNL     1      -1.201  -1.269  -6.601  0.00  0.00    +0.244 HD
ENDBRANCH  16  23
ENDBRANCH   5  16
TORSDOF 4
