REMARK  Name = ZINC07719524
REMARK  2 active torsions:
REMARK  status: ('A' for Active; 'I' for Inactive)
REMARK    1  A    between atoms: C_1  and  C_2
REMARK    2  A    between atoms: C_2  and  N_3
REMARK                            x       y       z     vdW  Elec       q    Type
REMARK                         _______ _______ _______ _____ _____    ______ ____
ROOT
ATOM      1  N   UNL     1       0.711  -0.489   1.189  0.00  0.00    -0.268 N 
ATOM      2  C   UNL     1       2.074  -0.724   1.234  0.00  0.00    +0.044 A 
ATOM      3  C   UNL     1       3.034  -0.565   0.234  0.00  0.00    +0.024 A 
ATOM      4  C   UNL     1       4.345  -0.879   0.557  0.00  0.00    +0.002 A 
ATOM      5  C   UNL     1       4.700  -1.330   1.812  0.00  0.00    +0.001 A 
ATOM      6  C   UNL     1       3.753  -1.492   2.818  0.00  0.00    +0.010 A 
ATOM      7  C   UNL     1       2.447  -1.182   2.505  0.00  0.00    +0.027 A 
ATOM      8  C   UNL     1       1.193  -1.231   3.313  0.00  0.00    +0.221 C 
ATOM      9  C   UNL     1       0.112  -0.755   2.370  0.00  0.00    +0.269 C 
ATOM     10  O   UNL     1      -1.068  -0.637   2.624  0.00  0.00    -0.270 OA
ATOM     11  N   UNL     1       1.272  -0.343   4.478  0.00  0.00    -0.283 N 
ATOM     12  C   UNL     1       1.805  -0.809   5.653  0.00  0.00    +0.183 C 
ATOM     13  N   UNL     1       1.744  -2.089   5.975  0.00  0.00    -0.183 NA
ATOM     14  C   UNL     1       1.197  -2.959   5.096  0.00  0.00    +0.237 A 
ATOM     15  N   UNL     1       0.908  -2.582   3.792  0.00  0.00    -0.274 N 
ATOM     16  C   UNL     1       0.365  -3.663   3.166  0.00  0.00    +0.073 A 
ATOM     17  C   UNL     1      -0.116  -3.868   1.879  0.00  0.00    +0.028 A 
ATOM     18  C   UNL     1      -0.608  -5.129   1.580  0.00  0.00    +0.002 A 
ATOM     19  C   UNL     1      -0.625  -6.151   2.514  0.00  0.00    +0.002 A 
ATOM     20  C   UNL     1      -0.151  -5.974   3.801  0.00  0.00    +0.030 A 
ATOM     21  C   UNL     1       0.350  -4.708   4.126  0.00  0.00    +0.091 A 
ATOM     22  N   UNL     1       0.875  -4.219   5.266  0.00  0.00    -0.210 NA
ATOM     23  N   UNL     1       2.413   0.070   6.508  0.00  0.00    -0.331 N 
ATOM     24  H   UNL     1       0.949   0.570   4.418  0.00  0.00    +0.152 HD
ATOM     25  H   UNL     1       2.463   1.011   6.281  0.00  0.00    +0.145 HD
ATOM     26  H   UNL     1       2.793  -0.249   7.341  0.00  0.00    +0.145 HD
ENDROOT
BRANCH   1  28
ATOM     27  C   UNL     1      -0.019   1.526   0.010  0.00  0.00    +0.025 C 
ATOM     28  C   UNL     1       0.002  -0.004   0.002  0.00  0.00    +0.110 C 
ENDBRANCH   1  28
TORSDOF 1
