REMARK  Name = ZINC57929188
REMARK  6 active torsions:
REMARK  status: ('A' for Active; 'I' for Inactive)
REMARK    1  A    between atoms: C_1  and  C_2
REMARK    2  A    between atoms: C_2  and  C_24
REMARK    3  A    between atoms: N_5  and  C_13
REMARK    4  A    between atoms: C_13  and  C_14
REMARK    5  A    between atoms: N_16  and  C_17
REMARK    6  A    between atoms: C_17  and  C_18
REMARK                            x       y       z     vdW  Elec       q    Type
REMARK                         _______ _______ _______ _____ _____    ______ ____
ROOT
ATOM      1  C   UNL     1      -0.019   1.526   0.010  0.00  0.00    +0.041 C 
ATOM      2  C   UNL     1       0.002  -0.004   0.002  0.00  0.00    +0.103 C 
ATOM      3  C   UNL     1       0.718  -0.492  -1.232  0.00  0.00    +0.243 C 
ATOM      4  O   UNL     1       0.086  -0.713  -2.244  0.00  0.00    -0.273 OA
ATOM      5  N   UNL     1       2.049  -0.685  -1.224  0.00  0.00    -0.259 N 
ATOM      6  C   UNL     1       2.783  -0.575  -0.037  0.00  0.00    +0.058 A 
ATOM      7  C   UNL     1       4.169  -0.574  -0.062  0.00  0.00    +0.025 A 
ATOM      8  C   UNL     1       4.879  -0.456   1.118  0.00  0.00    +0.002 A 
ATOM      9  C   UNL     1       4.214  -0.339   2.325  0.00  0.00    +0.002 A 
ATOM     10  C   UNL     1       2.831  -0.344   2.361  0.00  0.00    +0.025 A 
ATOM     11  C   UNL     1       2.115  -0.465   1.183  0.00  0.00    +0.050 A 
ATOM     12  N   UNL     1       0.713  -0.493   1.192  0.00  0.00    -0.329 N 
ATOM     13  C   UNL     1      -1.433  -0.535   0.008  0.00  0.00    +0.041 C 
ATOM     14  H   UNL     1       0.226  -0.826   1.963  0.00  0.00    +0.147 HD
ENDROOT
BRANCH   5  15
ATOM     15  C   UNL     1       2.740  -1.014  -2.473  0.00  0.00    +0.209 C 
BRANCH  15  16
ATOM     16  C   UNL     1       3.178   0.257  -3.155  0.00  0.00    +0.231 C 
ATOM     17  O   UNL     1       2.938   1.331  -2.647  0.00  0.00    -0.274 OA
ATOM     18  N   UNL     1       3.838   0.199  -4.328  0.00  0.00    -0.312 N 
ATOM     19  H   UNL     1       4.030  -0.661  -4.735  0.00  0.00    +0.149 HD
BRANCH  18  20
ATOM     20  C   UNL     1       4.264   1.434  -4.991  0.00  0.00    +0.135 C 
BRANCH  20  21
ATOM     21  C   UNL     1       4.986   1.090  -6.295  0.00  0.00    +0.135 C 
ATOM     22  C   UNL     1       5.476   2.382  -6.995  0.00  0.00    +0.035 C 
ATOM     23  C   UNL     1       6.655   1.829  -7.843  0.00  0.00    +0.031 C 
ATOM     24  C   UNL     1       7.215   0.713  -6.935  0.00  0.00    +0.160 C 
ATOM     25  O   UNL     1       6.176   0.333  -6.023  0.00  0.00    -0.375 OA
ENDBRANCH  20  21
ENDBRANCH  18  20
ENDBRANCH  15  16
ENDBRANCH   5  15
TORSDOF 4
