REMARK  Name = ZINC49236939
REMARK  6 active torsions:
REMARK  status: ('A' for Active; 'I' for Inactive)
REMARK    1  A    between atoms: C_1  and  C_2
REMARK    2  A    between atoms: C_6  and  N_20
REMARK    3  A    between atoms: C_7  and  C_8
REMARK    4  A    between atoms: N_12  and  C_13
REMARK    5  A    between atoms: C_13  and  C_14
REMARK    6  A    between atoms: C_13  and  C_17
REMARK                            x       y       z     vdW  Elec       q    Type
REMARK                         _______ _______ _______ _____ _____    ______ ____
ROOT
ATOM      1  C   UNL     1      -0.018  -0.108   2.392  0.00  0.00    +0.184 A 
ATOM      2  N   UNL     1      -0.099   1.203   2.498  0.00  0.00    -0.108 NA
ATOM      3  N   UNL     1      -0.008   1.561   3.727  0.00  0.00    -0.023 NA
ATOM      4  N   UNL     1       0.136   0.530   4.487  0.00  0.00    -0.043 NA
ATOM      5  N   UNL     1       0.129  -0.599   3.648  0.00  0.00    -0.221 N 
ENDROOT
BRANCH   1  12
ATOM      6  C   UNL     1      -2.315   0.150   0.654  0.00  0.00    +0.044 C 
ATOM      7  C   UNL     1      -1.184  -0.779   0.296  0.00  0.00    -0.038 A 
ATOM      8  C   UNL     1      -1.235  -1.512  -0.872  0.00  0.00    +0.004 A 
ATOM      9  C   UNL     1      -0.199  -2.367  -1.206  0.00  0.00    +0.002 A 
ATOM     10  C   UNL     1       0.896  -2.495  -0.374  0.00  0.00    +0.023 A 
ATOM     11  C   UNL     1       0.964  -1.766   0.804  0.00  0.00    +0.036 A 
ATOM     12  C   UNL     1      -0.081  -0.895   1.142  0.00  0.00    +0.044 A 
BRANCH  11  13
ATOM     13  N   UNL     1       2.067  -1.895   1.645  0.00  0.00    -0.357 N 
ATOM     14  H   UNL     1       2.744  -2.563   1.457  0.00  0.00    +0.142 HD
ATOM     15  H   UNL     1       2.158  -1.315   2.418  0.00  0.00    +0.142 HD
ENDBRANCH  11  13
ENDBRANCH   1  12
BRANCH   5  16
ATOM     16  C   UNL     1       0.257  -2.003   4.045  0.00  0.00    +0.117 C 
BRANCH  16  17
ATOM     17  C   UNL     1       1.502  -2.176   4.917  0.00  0.00    +0.014 C 
ATOM     18  C   UNL     1       2.661  -2.990   4.340  0.00  0.00    +0.006 C 
ATOM     19  C   UNL     1       1.797  -3.576   5.458  0.00  0.00    +0.006 C 
ENDBRANCH  16  17
BRANCH  16  20
ATOM     20  C   UNL     1      -0.983  -2.424   4.837  0.00  0.00    +0.014 C 
ATOM     21  C   UNL     1      -1.709  -3.694   4.391  0.00  0.00    +0.006 C 
ATOM     22  C   UNL     1      -2.338  -2.324   4.134  0.00  0.00    +0.006 C 
ENDBRANCH  16  20
ENDBRANCH   5  16
TORSDOF 5
