REMARK  Name = ZINC56818728
REMARK  5 active torsions:
REMARK  status: ('A' for Active; 'I' for Inactive)
REMARK    1  A    between atoms: C_1  and  C_2
REMARK    2  A    between atoms: C_5  and  C_8
REMARK    3  A    between atoms: C_8  and  N_9
REMARK    4  A    between atoms: N_12  and  N_13
REMARK    5  A    between atoms: C_14  and  C_16
REMARK                            x       y       z     vdW  Elec       q    Type
REMARK                         _______ _______ _______ _____ _____    ______ ____
ROOT
ATOM      1  N   UNL     1       2.309  -4.548   1.087  0.00  0.00    -0.298 N 
ATOM      2  C   UNL     1       2.470  -5.872   1.280  0.00  0.00    +0.316 C 
ATOM      3  O   UNL     1       1.944  -6.665   0.524  0.00  0.00    -0.251 OA
ATOM      4  N   UNL     1       3.215  -6.316   2.312  0.00  0.00    -0.218 N 
ATOM      5  H   UNL     1       2.729  -3.915   1.690  0.00  0.00    +0.150 HD
ATOM      6  H   UNL     1       3.331  -7.269   2.451  0.00  0.00    +0.174 HD
ENDROOT
BRANCH   4   7
ATOM      7  N   UNL     1       3.822  -5.403   3.183  0.00  0.00    -0.233 N 
ATOM      8  C   UNL     1       4.567  -5.848   4.215  0.00  0.00    +0.234 C 
ATOM      9  O   UNL     1       4.712  -7.039   4.388  0.00  0.00    -0.274 OA
ATOM     10  H   UNL     1       3.706  -4.450   3.044  0.00  0.00    +0.173 HD
BRANCH   8  11
ATOM     11  C   UNL     1       5.219  -4.864   5.152  0.00  0.00    +0.099 C 
ATOM     12  C   UNL     1       4.136  -4.008   5.829  0.00  0.00    +0.037 C 
ATOM     13  C   UNL     1       4.796  -3.233   7.004  0.00  0.00    +0.166 C 
ATOM     14  S   UNL     1       5.897  -4.539   7.694  0.00  0.00    -0.030 S 
ATOM     15  O   UNL     1       5.204  -5.230   8.725  0.00  0.00    -0.174 OA
ATOM     16  O   UNL     1       7.172  -3.974   7.966  0.00  0.00    -0.174 OA
ATOM     17  C   UNL     1       6.027  -5.635   6.224  0.00  0.00    +0.178 C 
ENDBRANCH   8  11
ENDBRANCH   4   7
BRANCH   1  18
ATOM     18  C   UNL     1       1.500  -4.064  -0.034  0.00  0.00    +0.109 C 
BRANCH  18  23
ATOM     19  C   UNL     1      -0.019   1.526   0.010  0.00  0.00    +0.007 C 
ATOM     20  C   UNL     1       0.002  -0.004   0.002  0.00  0.00    -0.014 C 
ATOM     21  C   UNL     1       0.718  -0.497  -1.257  0.00  0.00    +0.003 C 
ATOM     22  C   UNL     1       0.739  -2.027  -1.265  0.00  0.00    +0.005 C 
ATOM     23  C   UNL     1       1.479  -2.534  -0.026  0.00  0.00    +0.006 C 
ATOM     24  C   UNL     1       0.763  -2.041   1.233  0.00  0.00    +0.005 C 
ATOM     25  C   UNL     1       0.742  -0.511   1.242  0.00  0.00    +0.003 C 
ENDBRANCH  18  23
ENDBRANCH   1  18
TORSDOF 4
