REMARK  Name = ZINC02214967
REMARK  5 active torsions:
REMARK  status: ('A' for Active; 'I' for Inactive)
REMARK    1  A    between atoms: C_8  and  C_25
REMARK    2  A    between atoms: C_9  and  N_24
REMARK    3  A    between atoms: C_16  and  C_19
REMARK    4  A    between atoms: N_29  and  C_30
REMARK    5  A    between atoms: C_30  and  O_31
REMARK                            x       y       z     vdW  Elec       q    Type
REMARK                         _______ _______ _______ _____ _____    ______ ____
ROOT
ATOM      1  C   UNL     1      -2.401  -0.929   3.647  0.00  0.00    +0.000 A 
ATOM      2  C   UNL     1      -3.596  -0.257   3.491  0.00  0.00    +0.002 A 
ATOM      3  C   UNL     1      -4.013   0.225   2.260  0.00  0.00    +0.024 A 
ATOM      4  C   UNL     1      -3.170   0.003   1.170  0.00  0.00    +0.043 A 
ATOM      5  C   UNL     1      -1.960  -0.679   1.342  0.00  0.00    -0.001 A 
ATOM      6  C   UNL     1      -1.552  -1.156   2.570  0.00  0.00    +0.007 A 
ATOM      7  C   UNL     1      -1.315  -0.737  -0.007  0.00  0.00    +0.144 C 
ATOM      8  C   UNL     1      -1.127  -2.156  -0.457  0.00  0.00    +0.110 C 
ATOM      9  C   UNL     1       0.107  -2.719  -0.437  0.00  0.00    +0.199 C 
ATOM     10  O   UNL     1       1.180  -2.034  -0.012  0.00  0.00    -0.445 OA
ATOM     11  C   UNL     1       1.162  -0.689   0.004  0.00  0.00    +0.116 C 
ATOM     12  C   UNL     1       0.002  -0.004   0.002  0.00  0.00    +0.058 C 
ATOM     13  C   UNL     1      -0.017   1.403   0.010  0.00  0.00    +0.165 C 
ATOM     14  O   UNL     1      -1.083   1.985   0.018  0.00  0.00    -0.292 OA
ATOM     15  C   UNL     1       1.259   2.201   0.002  0.00  0.00    +0.091 C 
ATOM     16  C   UNL     1       2.351   1.380  -0.692  0.00  0.00    +0.070 C 
ATOM     17  C   UNL     1       2.485   0.039   0.032  0.00  0.00    +0.086 C 
ATOM     18  C   UNL     1      -2.292  -0.025  -0.919  0.00  0.00    +0.242 C 
ATOM     19  O   UNL     1      -2.163   0.158  -2.111  0.00  0.00    -0.273 OA
ATOM     20  N   UNL     1      -3.332   0.368  -0.155  0.00  0.00    -0.246 N 
ENDROOT
BRANCH  16  21
ATOM     21  C   UNL     1       3.661   2.123  -0.628  0.00  0.00    +0.109 A 
ATOM     22  C   UNL     1       4.396   2.514  -1.684  0.00  0.00    +0.045 A 
ATOM     23  C   UNL     1       5.536   3.172  -1.168  0.00  0.00    +0.041 A 
ATOM     24  C   UNL     1       5.429   3.144   0.172  0.00  0.00    +0.195 A 
ATOM     25  O   UNL     1       4.288   2.513   0.494  0.00  0.00    -0.468 OA
ENDBRANCH  16  21
BRANCH   9  26
ATOM     26  N   UNL     1       0.262  -4.016  -0.860  0.00  0.00    -0.328 N 
ATOM     27  H   UNL     1       1.140  -4.428  -0.850  0.00  0.00    +0.145 HD
ATOM     28  H   UNL     1      -0.507  -4.520  -1.169  0.00  0.00    +0.145 HD
ENDBRANCH   9  26
BRANCH   8  29
ATOM     29  C   UNL     1      -2.253  -2.918  -0.909  0.00  0.00    +0.102 C 
ATOM     30  N   UNL     1      -3.146  -3.522  -1.267  0.00  0.00    -0.191 NA
ENDBRANCH   8  29
BRANCH  20  31
ATOM     31  C   UNL     1      -4.495   1.097  -0.667  0.00  0.00    +0.272 C 
BRANCH  31  32
ATOM     32  O   UNL     1      -4.134   2.457  -0.916  0.00  0.00    -0.377 OA
ATOM     33  H   UNL     1      -4.857   2.999  -1.258  0.00  0.00    +0.211 HD
ENDBRANCH  31  32
ENDBRANCH  20  31
TORSDOF 5
