REMARK  Name = ZINC67379581
REMARK  10 active torsions:
REMARK  status: ('A' for Active; 'I' for Inactive)
REMARK    1  A    between atoms: C_1  and  C_2
REMARK    2  A    between atoms: C_2  and  C_3
REMARK    3  A    between atoms: C_2  and  C_4
REMARK    4  A    between atoms: C_2  and  O_5
REMARK    5  A    between atoms: O_5  and  C_6
REMARK    6  A    between atoms: C_12  and  C_15
REMARK    7  A    between atoms: C_15  and  N_16
REMARK    8  A    between atoms: C_20  and  C_23
REMARK    9  A    between atoms: C_23  and  C_24
REMARK   10  A    between atoms: C_24  and  C_25
REMARK                            x       y       z     vdW  Elec       q    Type
REMARK                         _______ _______ _______ _____ _____    ______ ____
ROOT
ATOM      1  C   UNL     1       5.661   0.873  -4.261  0.00  0.00    -0.074 C 
ENDROOT
BRANCH   1   8
ATOM      2  C   UNL     1       1.952  -0.085  -1.337  0.00  0.00    +0.403 C 
ATOM      3  O   UNL     1       2.488   0.619  -0.503  0.00  0.00    -0.226 OA
ATOM      4  N   UNL     1       2.641  -0.485  -2.424  0.00  0.00    -0.267 N 
ATOM      5  C   UNL     1       2.005  -1.331  -3.443  0.00  0.00    +0.111 C 
ATOM      6  C   UNL     1       2.172  -0.664  -4.812  0.00  0.00    +0.019 C 
ATOM      7  C   UNL     1       3.656  -0.387  -5.062  0.00  0.00    +0.005 C 
ATOM      8  C   UNL     1       4.186   0.570  -3.991  0.00  0.00    -0.010 C 
ATOM      9  C   UNL     1       4.040  -0.078  -2.616  0.00  0.00    +0.112 C 
BRANCH   2  10
ATOM     10  O   UNL     1       0.671  -0.465  -1.174  0.00  0.00    -0.445 OA
BRANCH  10  12
ATOM     11  C   UNL     1      -0.019   1.526   0.010  0.00  0.00    +0.055 C 
ATOM     12  C   UNL     1       0.002  -0.004   0.002  0.00  0.00    +0.107 C 
ATOM     13  C   UNL     1       0.742  -0.511   1.242  0.00  0.00    +0.055 C 
ATOM     14  C   UNL     1      -1.433  -0.534   0.013  0.00  0.00    +0.055 C 
ENDBRANCH  10  12
ENDBRANCH   2  10
ENDBRANCH   1   8
BRANCH   1  15
ATOM     15  N   UNL     1       6.136   1.882  -3.305  0.00  0.00    +0.380 N 
ATOM     16  C   UNL     1       5.424   3.144  -3.534  0.00  0.00    -0.079 C 
ATOM     17  C   UNL     1       5.856   4.175  -2.489  0.00  0.00    -0.018 C 
ATOM     18  C   UNL     1       7.365   4.410  -2.607  0.00  0.00    -0.000 C 
ATOM     19  C   UNL     1       8.095   3.074  -2.441  0.00  0.00    -0.027 C 
ATOM     20  C   UNL     1       7.579   2.084  -3.487  0.00  0.00    -0.075 C 
ATOM     21  H   UNL     1       5.958   1.563  -2.365  0.00  0.00    -0.082 HD
BRANCH  19  22
ATOM     22  C   UNL     1       9.598   3.285  -2.633  0.00  0.00    +0.011 C 
BRANCH  22  23
ATOM     23  C   UNL     1      10.134   4.181  -1.514  0.00  0.00    +0.096 C 
BRANCH  23  24
ATOM     24  C   UNL     1      11.615   4.388  -1.703  0.00  0.00    +0.210 C 
ATOM     25  O   UNL     1      12.185   3.872  -2.641  0.00  0.00    -0.276 OA
ATOM     26  N   UNL     1      12.306   5.149  -0.831  0.00  0.00    -0.329 N 
ATOM     27  H   UNL     1      11.850   5.562  -0.081  0.00  0.00    +0.145 HD
ATOM     28  H   UNL     1      13.258   5.283  -0.953  0.00  0.00    +0.145 HD
ENDBRANCH  23  24
ENDBRANCH  22  23
ENDBRANCH  19  22
ENDBRANCH   1  15
TORSDOF 7
