REMARK  Name = ZINC20990040
REMARK  8 active torsions:
REMARK  status: ('A' for Active; 'I' for Inactive)
REMARK    1  A    between atoms: C_1  and  C_2
REMARK    2  A    between atoms: C_8  and  N_10
REMARK    3  A    between atoms: C_11  and  C_13
REMARK    4  A    between atoms: C_13  and  C_15
REMARK    5  A    between atoms: C_13  and  O_16
REMARK    6  A    between atoms: O_16  and  C_17
REMARK    7  A    between atoms: C_17  and  C_19
REMARK    8  A    between atoms: C_21  and  N_27
REMARK                            x       y       z     vdW  Elec       q    Type
REMARK                         _______ _______ _______ _____ _____    ______ ____
ROOT
ATOM      1  O   UNL     1      -3.677   2.332   0.032  0.00  0.00    -0.448 OA
ENDROOT
BRANCH   1   2
ATOM      2  C   UNL     1      -4.887   1.528   0.033  0.00  0.00    +0.259 C 
ATOM      3  C   UNL     1      -5.319   1.254  -1.409  0.00  0.00    +0.062 C 
BRANCH   2   5
ATOM      4  N   UNL     1      -7.173   1.677   0.967  0.00  0.00    -0.309 N 
ATOM      5  C   UNL     1      -5.982   2.272   0.753  0.00  0.00    +0.254 C 
ATOM      6  O   UNL     1      -5.793   3.406   1.139  0.00  0.00    -0.272 OA
ATOM      7  H   UNL     1      -7.344   0.648   0.617  0.00  0.00    +0.149 HD
BRANCH   4  14
ATOM      8  C   UNL     1      -9.781   1.984  -0.254  0.00  0.00    +0.009 C 
ATOM      9  C   UNL     1      -9.596   1.827   1.257  0.00  0.00    +0.006 C 
ATOM     10  C   UNL     1     -10.709   2.582   1.988  0.00  0.00    +0.005 C 
ATOM     11  C   UNL     1     -10.524   2.426   3.498  0.00  0.00    +0.000 C 
ATOM     12  C   UNL     1      -9.165   2.998   3.908  0.00  0.00    +0.002 C 
ATOM     13  C   UNL     1      -8.053   2.243   3.177  0.00  0.00    +0.022 C 
ATOM     14  C   UNL     1      -8.238   2.399   1.667  0.00  0.00    +0.076 C 
ENDBRANCH   4  14
ENDBRANCH   2   5
ENDBRANCH   1   2
BRANCH   1  15
ATOM     15  C   UNL     1      -2.504   1.670   0.023  0.00  0.00    +0.360 C 
ATOM     16  O   UNL     1      -2.492   0.455   0.016  0.00  0.00    -0.243 OA
BRANCH  15  17
ATOM     17  C   UNL     1      -1.230   2.422   0.021  0.00  0.00    +0.169 A 
ATOM     18  C   UNL     1      -0.021   1.732   0.012  0.00  0.00    +0.095 A 
ATOM     19  C   UNL     1       1.171   2.457   0.004  0.00  0.00    +0.067 A 
ATOM     20  C   UNL     1       1.099   3.848   0.012  0.00  0.00    +0.100 A 
ATOM     21  C   UNL     1      -0.143   4.463   0.028  0.00  0.00    +0.150 A 
ATOM     22  N   UNL     1      -1.251   3.752   0.034  0.00  0.00    -0.226 NA
ATOM     23 CL   UNL     1      -0.240   6.196   0.038  0.00  0.00    -0.060 Cl
ATOM     24 CL   UNL     1       2.550   4.802   0.003  0.00  0.00    -0.078 Cl
ATOM     25 CL   UNL     1       0.002  -0.004   0.002  0.00  0.00    -0.079 Cl
BRANCH  19  26
ATOM     26  N   UNL     1       2.403   1.805  -0.011  0.00  0.00    -0.356 N 
ATOM     27  H   UNL     1       3.334   2.390  -0.017  0.00  0.00    +0.142 HD
ATOM     28  H   UNL     1       2.443   0.706  -0.017  0.00  0.00    +0.142 HD
ENDBRANCH  19  26
ENDBRANCH  15  17
ENDBRANCH   1  15
TORSDOF 6
