REMARK  Name = ZINC39632023
REMARK  15 active torsions:
REMARK  status: ('A' for Active; 'I' for Inactive)
REMARK    1  A    between atoms: C_1  and  C_2
REMARK    2  A    between atoms: C_2  and  C_3
REMARK    3  A    between atoms: C_3  and  C_5
REMARK    4  A    between atoms: C_3  and  C_6
REMARK    5  A    between atoms: C_6  and  C_7
REMARK    6  A    between atoms: C_11  and  C_20
REMARK    7  A    between atoms: N_22  and  C_23
REMARK    8  A    between atoms: C_23  and  C_25
REMARK    9  A    between atoms: C_23  and  C_26
REMARK   10  A    between atoms: C_26  and  C_27
REMARK   11  A    between atoms: C_27  and  C_28
REMARK   12  A    between atoms: C_28  and  C_29
REMARK   13  A    between atoms: C_29  and  C_30
REMARK   14  A    between atoms: C_29  and  C_31
REMARK   15  A    between atoms: C_29  and  O_32
REMARK                            x       y       z     vdW  Elec       q    Type
REMARK                         _______ _______ _______ _____ _____    ______ ____
ROOT
ATOM      1  C   UNL     1      -2.520  -2.615   0.127  0.00  0.00    +0.216 C 
ATOM      2  O   UNL     1      -3.381  -1.763   0.081  0.00  0.00    -0.276 OA
ATOM      3  N   UNL     1      -2.860  -3.909   0.293  0.00  0.00    -0.300 N 
ATOM      4  C   UNL     1      -1.958  -5.081   0.380  0.00  0.00    +0.121 C 
ATOM      5  C   UNL     1      -2.586  -5.978   1.470  0.00  0.00    +0.100 C 
ATOM      6  C   UNL     1      -4.072  -5.580   1.497  0.00  0.00    -0.004 C 
ATOM      7  C   UNL     1      -4.221  -4.479   0.437  0.00  0.00    +0.115 C 
ATOM      8  C   UNL     1      -4.447  -5.034   2.871  0.00  0.00    -0.010 C 
ATOM      9  C   UNL     1      -5.941  -4.699   2.891  0.00  0.00    -0.082 C 
ATOM     10  N   UNL     1      -6.720  -5.907   2.592  0.00  0.00    +0.379 N 
ATOM     11  C   UNL     1      -6.420  -6.372   1.233  0.00  0.00    -0.082 C 
ATOM     12  C   UNL     1      -4.947  -6.778   1.143  0.00  0.00    -0.010 C 
ATOM     13  H   UNL     1      -6.482  -6.630   3.254  0.00  0.00    -0.086 HD
ATOM     14  H   UNL     1      -7.704  -5.698   2.666  0.00  0.00    -0.086 HD
ENDROOT
BRANCH   5  15
ATOM     15  C   UNL     1      -1.944  -5.707   2.806  0.00  0.00    +0.218 C 
ATOM     16  O   UNL     1      -1.512  -4.603   3.059  0.00  0.00    -0.275 OA
ATOM     17  N   UNL     1      -1.849  -6.693   3.720  0.00  0.00    -0.312 N 
ATOM     18  H   UNL     1      -2.194  -7.577   3.518  0.00  0.00    +0.149 HD
BRANCH  17  19
ATOM     19  C   UNL     1      -1.224  -6.431   5.019  0.00  0.00    +0.070 C 
ATOM     20  C   UNL     1      -2.264  -5.844   5.976  0.00  0.00    +0.028 C 
BRANCH  19  21
ATOM     21  C   UNL     1      -0.680  -7.738   5.597  0.00  0.00    +0.022 C 
BRANCH  21  22
ATOM     22  C   UNL     1       0.447  -8.261   4.704  0.00  0.00    +0.005 C 
BRANCH  22  23
ATOM     23  C   UNL     1       0.991  -9.569   5.282  0.00  0.00    +0.034 C 
BRANCH  23  24
ATOM     24  C   UNL     1       2.118 -10.091   4.390  0.00  0.00    +0.061 C 
ATOM     25  C   UNL     1       2.578 -11.460   4.897  0.00  0.00    +0.041 C 
ATOM     26  C   UNL     1       1.611 -10.224   2.952  0.00  0.00    +0.041 C 
BRANCH  24  27
ATOM     27  O   UNL     1       3.216  -9.177   4.424  0.00  0.00    -0.389 OA
ATOM     28  H   UNL     1       3.589  -9.044   5.306  0.00  0.00    +0.210 HD
ENDBRANCH  24  27
ENDBRANCH  23  24
ENDBRANCH  22  23
ENDBRANCH  21  22
ENDBRANCH  19  21
ENDBRANCH  17  19
ENDBRANCH   5  15
BRANCH   1  29
ATOM     29  C   UNL     1      -1.069  -2.228  -0.001  0.00  0.00    +0.099 C 
BRANCH  29  30
ATOM     30  C   UNL     1      -0.959  -0.712  -0.179  0.00  0.00    -0.006 C 
ATOM     31  C   UNL     1      -1.605  -0.306  -1.505  0.00  0.00    +0.008 C 
BRANCH  30  33
ATOM     32  C   UNL     1       0.623   1.221  -0.236  0.00  0.00    +0.004 C 
ATOM     33  C   UNL     1       0.515  -0.305  -0.184  0.00  0.00    +0.000 C 
ENDBRANCH  30  33
ENDBRANCH  29  30
ENDBRANCH   1  29
TORSDOF 10
