REMARK  Name = ZINC66740078
REMARK  2 active torsions:
REMARK  status: ('A' for Active; 'I' for Inactive)
REMARK    1  A    between atoms: C_1  and  C_2
REMARK    2  A    between atoms: C_15  and  C_23
REMARK                            x       y       z     vdW  Elec       q    Type
REMARK                         _______ _______ _______ _____ _____    ______ ____
ROOT
ATOM      1  C   UNL     1      -0.018   1.503   0.010  0.00  0.00    +0.044 C 
ATOM      2  C   UNL     1       0.002  -0.004   0.002  0.00  0.00    -0.047 A 
ATOM      3  C   UNL     1       0.005  -0.678  -1.215  0.00  0.00    +0.013 A 
ATOM      4  C   UNL     1       0.025  -2.055  -1.167  0.00  0.00    +0.027 A 
ATOM      5  C   UNL     1       0.041  -2.760   0.041  0.00  0.00    +0.076 A 
ATOM      6  C   UNL     1       0.037  -2.073   1.258  0.00  0.00    +0.145 A 
ATOM      7  C   UNL     1       0.023  -0.685   1.202  0.00  0.00    +0.043 A 
ATOM      8  F   UNL     1       0.052  -2.729   2.438  0.00  0.00    -0.204 F 
ATOM      9  N   UNL     1       0.062  -4.124  -0.198  0.00  0.00    -0.279 N 
ATOM     10  C   UNL     1       0.061  -4.407  -1.516  0.00  0.00    +0.264 C 
ATOM     11  O   UNL     1       0.079  -5.512  -2.015  0.00  0.00    -0.271 OA
ATOM     12  C   UNL     1       0.035  -3.084  -2.257  0.00  0.00    +0.206 C 
ATOM     13  N   UNL     1      -1.206  -3.002  -3.042  0.00  0.00    -0.309 N 
ATOM     14  C   UNL     1      -1.228  -2.080  -4.098  0.00  0.00    +0.082 A 
ATOM     15  C   UNL     1      -2.195  -1.429  -4.752  0.00  0.00    +0.055 A 
ATOM     16  N   UNL     1      -1.581  -0.651  -5.692  0.00  0.00    -0.279 N 
ATOM     17  H   UNL     1      -2.041  -0.066  -6.314  0.00  0.00    +0.189 HD
ATOM     18  N   UNL     1      -0.300  -0.807  -5.634  0.00  0.00    -0.167 NA
ATOM     19  C   UNL     1       0.003  -1.658  -4.699  0.00  0.00    +0.168 A 
ATOM     20  C   UNL     1       1.280  -2.213  -4.211  0.00  0.00    +0.268 C 
ATOM     21  O   UNL     1       2.327  -2.013  -4.796  0.00  0.00    -0.268 OA
ATOM     22  N   UNL     1       1.231  -2.957  -3.080  0.00  0.00    -0.278 N 
ATOM     23  C   UNL     1      -3.677  -1.534  -4.502  0.00  0.00    +0.067 C 
ATOM     24  H   UNL     1       0.075  -4.797   0.501  0.00  0.00    +0.155 HD
ATOM     25  H   UNL     1      -1.973  -3.559  -2.839  0.00  0.00    +0.149 HD
ATOM     26  H   UNL     1       2.032  -3.428  -2.803  0.00  0.00    +0.152 HD
ENDROOT
TORSDOF 0
