REMARK  Name = ZINC14471786
REMARK  8 active torsions:
REMARK  status: ('A' for Active; 'I' for Inactive)
REMARK    1  A    between atoms: C_1  and  C_2
REMARK    2  A    between atoms: C_2  and  C_3
REMARK    3  A    between atoms: C_2  and  C_4
REMARK    4  A    between atoms: C_2  and  N_5
REMARK    5  A    between atoms: N_5  and  S_6
REMARK    6  A    between atoms: S_6  and  C_9
REMARK    7  A    between atoms: C_22  and  C_25
REMARK    8  A    between atoms: C_29  and  N_31
REMARK                            x       y       z     vdW  Elec       q    Type
REMARK                         _______ _______ _______ _____ _____    ______ ____
ROOT
ATOM      1  C   UNL     1      -8.597   4.253   1.316  0.00  0.00    +0.106 A 
ATOM      2  C   UNL     1      -8.556   4.519  -0.041  0.00  0.00    +0.030 A 
ATOM      3  C   UNL     1      -8.030   3.589  -0.914  0.00  0.00    +0.025 A 
ATOM      4  C   UNL     1      -7.536   2.381  -0.438  0.00  0.00    +0.031 A 
ATOM      5  C   UNL     1      -7.567   2.125   0.938  0.00  0.00    -0.018 A 
ATOM      6  C   UNL     1      -8.103   3.057   1.800  0.00  0.00    +0.034 A 
ATOM      7  C   UNL     1      -6.989   0.847   1.407  0.00  0.00    +0.049 C 
ATOM      8  C   UNL     1      -7.449   0.190   2.658  0.00  0.00    -0.023 C 
ATOM      9  C   UNL     1      -7.323  -1.124   2.516  0.00  0.00    -0.030 C 
ATOM     10  C   UNL     1      -6.792  -1.452   1.119  0.00  0.00    +0.033 C 
ATOM     11  C   UNL     1      -7.285  -0.241   0.328  0.00  0.00    +0.029 C 
ATOM     12  C   UNL     1      -6.458   0.159  -0.881  0.00  0.00    +0.105 C 
ATOM     13  N   UNL     1      -7.021   1.446  -1.345  0.00  0.00    -0.336 N 
ATOM     14  H   UNL     1      -7.034   1.647  -2.294  0.00  0.00    +0.147 HD
ENDROOT
BRANCH  12  15
ATOM     15  C   UNL     1      -5.014   0.333  -0.490  0.00  0.00    -0.025 A 
ATOM     16  C   UNL     1      -4.170  -0.762  -0.455  0.00  0.00    +0.005 A 
ATOM     17  C   UNL     1      -2.845  -0.603  -0.096  0.00  0.00    +0.003 A 
ATOM     18  C   UNL     1      -2.362   0.653   0.223  0.00  0.00    +0.033 A 
ATOM     19  C   UNL     1      -3.206   1.747   0.192  0.00  0.00    +0.127 A 
ATOM     20  C   UNL     1      -4.531   1.587  -0.167  0.00  0.00    +0.038 A 
BRANCH  19  21
ATOM     21  N   UNL     1      -2.689   3.090   0.538  0.00  0.00    +0.056 N 
ATOM     22  O   UNL     1      -3.432   4.055   0.506  0.00  0.00    -0.126 OA
ATOM     23  O   UNL     1      -1.523   3.230   0.860  0.00  0.00    -0.126 OA
ENDBRANCH  19  21
ENDBRANCH  12  15
BRANCH   1  24
ATOM     24  S   UNL     1      -9.278   5.440   2.426  0.00  0.00    +0.059 S 
ATOM     25  O   UNL     1      -8.545   5.330   3.638  0.00  0.00    -0.153 OA
ATOM     26  O   UNL     1      -9.380   6.660   1.705  0.00  0.00    -0.153 OA
BRANCH  24  27
ATOM     27  N   UNL     1     -10.827   4.961   2.765  0.00  0.00    -0.185 NA
ATOM     28  H   UNL     1     -11.057   4.661   3.659  0.00  0.00    +0.149 HD
BRANCH  27  30
ATOM     29  C   UNL     1     -11.357   4.196   0.503  0.00  0.00    +0.029 C 
ATOM     30  C   UNL     1     -11.849   4.989   1.716  0.00  0.00    +0.032 C 
ATOM     31  C   UNL     1     -13.141   4.363   2.245  0.00  0.00    +0.029 C 
ATOM     32  C   UNL     1     -12.116   6.438   1.303  0.00  0.00    +0.029 C 
ENDBRANCH  27  30
ENDBRANCH  24  27
ENDBRANCH   1  24
TORSDOF 5
