REMARK  Name = ZINC21883532
REMARK  6 active torsions:
REMARK  status: ('A' for Active; 'I' for Inactive)
REMARK    1  A    between atoms: C_1  and  C_2
REMARK    2  A    between atoms: C_2  and  C_29
REMARK    3  A    between atoms: C_5  and  S_21
REMARK    4  A    between atoms: N_9  and  C_12
REMARK    5  A    between atoms: C_12  and  C_13
REMARK    6  A    between atoms: S_21  and  N_24
REMARK                            x       y       z     vdW  Elec       q    Type
REMARK                         _______ _______ _______ _____ _____    ______ ____
ROOT
ATOM      1  C   UNL     1       8.581   2.419   1.116  0.00  0.00    +0.025 C 
ATOM      2  C   UNL     1       8.122   3.794   0.624  0.00  0.00    +0.069 C 
ATOM      3  C   UNL     1       8.038   3.815  -0.885  0.00  0.00    -0.010 A 
ATOM      4  C   UNL     1       8.974   3.633  -1.878  0.00  0.00    +0.035 A 
ATOM      5  C   UNL     1       8.596   3.712  -3.207  0.00  0.00    +0.106 A 
ATOM      6  C   UNL     1       7.277   3.974  -3.532  0.00  0.00    +0.030 A 
ATOM      7  C   UNL     1       6.337   4.157  -2.539  0.00  0.00    +0.026 A 
ATOM      8  C   UNL     1       6.711   4.079  -1.199  0.00  0.00    +0.041 A 
ATOM      9  N   UNL     1       5.959   4.223  -0.032  0.00  0.00    -0.262 N 
ATOM     10  C   UNL     1       6.705   4.078   1.076  0.00  0.00    +0.230 C 
ATOM     11  O   UNL     1       6.316   4.156   2.222  0.00  0.00    -0.274 OA
ATOM     12  C   UNL     1       9.069   4.887   1.124  0.00  0.00    +0.025 C 
ENDROOT
BRANCH   5  13
ATOM     13  S   UNL     1       9.790   3.481  -4.481  0.00  0.00    +0.061 S 
ATOM     14  O   UNL     1       9.290   4.145  -5.633  0.00  0.00    -0.153 OA
ATOM     15  O   UNL     1      11.055   3.791  -3.912  0.00  0.00    -0.153 OA
BRANCH  13  16
ATOM     16  N   UNL     1       9.816   1.865  -4.840  0.00  0.00    -0.177 NA
ATOM     17  C   UNL     1      10.681   0.860  -4.205  0.00  0.00    +0.109 C 
ATOM     18  C   UNL     1      10.375  -0.497  -4.874  0.00  0.00    +0.018 C 
ATOM     19  C   UNL     1       9.769  -0.079  -6.240  0.00  0.00    +0.018 C 
ATOM     20  C   UNL     1       8.980   1.196  -5.854  0.00  0.00    +0.109 C 
ENDBRANCH  13  16
ENDBRANCH   5  13
BRANCH   9  21
ATOM     21  C   UNL     1       4.522   4.508  -0.017  0.00  0.00    +0.209 C 
BRANCH  21  22
ATOM     22  C   UNL     1       3.753   3.212  -0.017  0.00  0.00    +0.236 C 
ATOM     23  O   UNL     1       4.347   2.154  -0.028  0.00  0.00    -0.274 OA
ATOM     24  N   UNL     1       2.405   3.228  -0.004  0.00  0.00    -0.263 N 
ATOM     25  C   UNL     1       1.696   2.032  -0.003  0.00  0.00    +0.164 A 
ATOM     26  N   UNL     1       2.156   0.796  -0.014  0.00  0.00    -0.233 NA
ATOM     27  C   UNL     1       1.337  -0.238  -0.012  0.00  0.00    +0.120 A 
ATOM     28  C   UNL     1       0.002  -0.004   0.002  0.00  0.00    +0.068 A 
ATOM     29  S   UNL     1      -0.022   1.783   0.012  0.00  0.00    -0.061 S 
ATOM     30  H   UNL     1       1.867   4.186   0.007  0.00  0.00    +0.157 HD
ENDBRANCH  21  22
ENDBRANCH   9  21
TORSDOF 4
