REMARK  Name = ZINC49181136
REMARK  13 active torsions:
REMARK  status: ('A' for Active; 'I' for Inactive)
REMARK    1  A    between atoms: C_3  and  O_46
REMARK    2  A    between atoms: C_10  and  O_18
REMARK    3  A    between atoms: C_14  and  C_15
REMARK    4  A    between atoms: O_18  and  C_19
REMARK    5  A    between atoms: C_21  and  O_34
REMARK    6  A    between atoms: C_23  and  O_33
REMARK    7  A    between atoms: C_25  and  O_32
REMARK    8  A    between atoms: C_27  and  C_30
REMARK    9  A    between atoms: C_30  and  O_31
REMARK   10  A    between atoms: O_34  and  C_35
REMARK   11  A    between atoms: C_35  and  C_37
REMARK   12  A    between atoms: C_38  and  C_39
REMARK   13  A    between atoms: C_42  and  O_45
REMARK                            x       y       z     vdW  Elec       q    Type
REMARK                         _______ _______ _______ _____ _____    ______ ____
ROOT
ATOM      1  C   UNL     1       4.067   1.371   0.698  0.00  0.00    +0.298 C 
ATOM      2  C   UNL     1       4.312   2.773   0.135  0.00  0.00    +0.263 C 
ATOM      3  C   UNL     1       5.566   3.364   0.786  0.00  0.00    +0.191 C 
ATOM      4  C   UNL     1       6.749   2.422   0.538  0.00  0.00    +0.178 C 
ATOM      5  C   UNL     1       6.409   1.034   1.085  0.00  0.00    +0.178 C 
ATOM      6  O   UNL     1       5.216   0.556   0.460  0.00  0.00    -0.339 OA
ENDROOT
BRANCH   4   7
ATOM      7  O   UNL     1       7.003   2.335  -0.866  0.00  0.00    -0.386 OA
ATOM      8  H   UNL     1       7.741   1.754  -1.096  0.00  0.00    +0.210 HD
ENDBRANCH   4   7
BRANCH   3   9
ATOM      9  O   UNL     1       5.844   4.644   0.215  0.00  0.00    -0.385 OA
ATOM     10  H   UNL     1       6.627   5.077   0.582  0.00  0.00    +0.210 HD
ENDBRANCH   3   9
BRANCH   1  11
ATOM     11  O   UNL     1       2.930   0.791   0.053  0.00  0.00    -0.308 OA
BRANCH  11  18
ATOM     12  C   UNL     1      -0.016   1.306   0.009  0.00  0.00    +0.011 C 
ATOM     13  C   UNL     1       0.002  -0.004   0.002  0.00  0.00    -0.039 C 
ATOM     14  C   UNL     1      -1.202  -0.945   0.002  0.00  0.00    +0.141 C 
ATOM     15  C   UNL     1      -0.636  -2.389   0.120  0.00  0.00    +0.045 C 
ATOM     16  C   UNL     1       0.726  -2.150   0.773  0.00  0.00    +0.045 C 
ATOM     17  C   UNL     1       1.204  -0.891  -0.014  0.00  0.00    +0.093 C 
ATOM     18  C   UNL     1       2.476  -0.422   0.657  0.00  0.00    +0.317 C 
ATOM     19  O   UNL     1       3.446  -1.468   0.460  0.00  0.00    -0.470 OA
ATOM     20  C   UNL     1       3.065  -2.752   0.448  0.00  0.00    +0.201 C 
ATOM     21  C   UNL     1       1.778  -3.191   0.592  0.00  0.00    +0.079 C 
BRANCH  21  22
ATOM     22  C   UNL     1       1.451  -4.563   0.541  0.00  0.00    +0.386 C 
ATOM     23  O   UNL     1       2.334  -5.398   0.391  0.00  0.00    -0.241 OA
ATOM     24  O   UNL     1       0.283  -4.918   0.647  0.00  0.00    -0.241 OA
ENDBRANCH  21  22
BRANCH  14  25
ATOM     25  O   UNL     1      -2.049  -0.656   1.116  0.00  0.00    -0.387 OA
ATOM     26  H   UNL     1      -2.416   0.238   1.111  0.00  0.00    +0.210 HD
ENDBRANCH  14  25
ENDBRANCH  11  18
ENDBRANCH   1  11
BRANCH   5  27
ATOM     27  C   UNL     1       7.561   0.072   0.787  0.00  0.00    +0.190 C 
BRANCH  27  28
ATOM     28  O   UNL     1       7.297  -1.192   1.398  0.00  0.00    -0.392 OA
ATOM     29  H   UNL     1       7.987  -1.853   1.250  0.00  0.00    +0.210 HD
ENDBRANCH  27  28
ENDBRANCH   5  27
BRANCH   2  30
ATOM     30  O   UNL     1       4.499   2.694  -1.280  0.00  0.00    -0.450 OA
BRANCH  30  31
ATOM     31  C   UNL     1       3.397   2.802  -2.050  0.00  0.00    +0.332 C 
ATOM     32  O   UNL     1       2.307   2.958  -1.534  0.00  0.00    -0.246 OA
BRANCH  31  33
ATOM     33  C   UNL     1       3.510   2.732  -3.462  0.00  0.00    +0.092 C 
ATOM     34  C   UNL     1       2.406   2.840  -4.234  0.00  0.00    +0.015 C 
BRANCH  34  35
ATOM     35  C   UNL     1       2.523   2.768  -5.697  0.00  0.00    -0.025 A 
ATOM     36  C   UNL     1       3.776   2.582  -6.293  0.00  0.00    +0.011 A 
ATOM     37  C   UNL     1       3.880   2.515  -7.664  0.00  0.00    +0.046 A 
ATOM     38  C   UNL     1       2.743   2.632  -8.456  0.00  0.00    +0.117 A 
ATOM     39  C   UNL     1       1.496   2.817  -7.869  0.00  0.00    +0.046 A 
ATOM     40  C   UNL     1       1.381   2.879  -6.499  0.00  0.00    +0.011 A 
BRANCH  38  41
ATOM     41  O   UNL     1       2.851   2.567  -9.808  0.00  0.00    -0.507 OA
ATOM     42  H   UNL     1       2.768   1.672 -10.166  0.00  0.00    +0.292 HD
ENDBRANCH  38  41
ENDBRANCH  34  35
ENDBRANCH  31  33
ENDBRANCH  30  31
ENDBRANCH   2  30
TORSDOF 13
