REMARK  Name = ZINC39674090
REMARK  7 active torsions:
REMARK  status: ('A' for Active; 'I' for Inactive)
REMARK    1  A    between atoms: C_1  and  C_2
REMARK    2  A    between atoms: C_4  and  C_12
REMARK    3  A    between atoms: C_12  and  C_13
REMARK    4  A    between atoms: C_13  and  N_14
REMARK    5  A    between atoms: C_15  and  C_17
REMARK    6  A    between atoms: C_28  and  C_30
REMARK    7  A    between atoms: C_33  and  C_35
REMARK                            x       y       z     vdW  Elec       q    Type
REMARK                         _______ _______ _______ _____ _____    ______ ____
ROOT
ATOM      1  C   UNL     1      -5.411   3.612   3.667  0.00  0.00    +0.100 C 
ATOM      2  C   UNL     1      -6.835   3.450   3.090  0.00  0.00    +0.121 C 
ATOM      3  N   UNL     1      -7.710   4.173   4.043  0.00  0.00    -0.294 N 
ATOM      4  C   UNL     1      -6.932   5.379   4.416  0.00  0.00    +0.115 C 
ATOM      5  C   UNL     1      -5.478   4.879   4.536  0.00  0.00    -0.004 C 
ATOM      6  C   UNL     1      -4.512   5.934   4.007  0.00  0.00    -0.010 C 
ATOM      7  C   UNL     1      -4.554   7.162   4.921  0.00  0.00    -0.082 C 
ATOM      8  N   UNL     1      -4.183   6.771   6.286  0.00  0.00    +0.379 N 
ATOM      9  C   UNL     1      -5.170   5.825   6.822  0.00  0.00    -0.082 C 
ATOM     10  C   UNL     1      -5.154   4.541   5.988  0.00  0.00    -0.010 C 
ATOM     11  C   UNL     1      -8.935   3.815   4.474  0.00  0.00    +0.282 C 
ATOM     12  O   UNL     1      -9.533   4.521   5.266  0.00  0.00    -0.267 OA
ATOM     13  H   UNL     1      -3.273   6.335   6.274  0.00  0.00    -0.086 HD
ATOM     14  H   UNL     1      -4.152   7.591   6.873  0.00  0.00    -0.086 HD
ENDROOT
BRANCH  11  15
ATOM     15  C   UNL     1      -9.549   2.575   3.991  0.00  0.00    +0.190 A 
ATOM     16  C   UNL     1     -10.791   2.096   4.344  0.00  0.00    +0.055 A 
ATOM     17  C   UNL     1     -10.972   0.894   3.652  0.00  0.00    +0.050 A 
ATOM     18  C   UNL     1      -9.845   0.685   2.910  0.00  0.00    +0.136 A 
ATOM     19  O   UNL     1      -8.998   1.707   3.117  0.00  0.00    -0.450 OA
BRANCH  18  20
ATOM     20  C   UNL     1      -9.601  -0.470   2.022  0.00  0.00    +0.017 A 
ATOM     21  C   UNL     1     -10.571  -1.465   1.883  0.00  0.00    +0.011 A 
ATOM     22  C   UNL     1     -10.337  -2.541   1.052  0.00  0.00    +0.001 A 
ATOM     23  C   UNL     1      -9.144  -2.635   0.356  0.00  0.00    +0.000 A 
ATOM     24  C   UNL     1      -8.179  -1.652   0.490  0.00  0.00    +0.001 A 
ATOM     25  C   UNL     1      -8.402  -0.568   1.313  0.00  0.00    +0.011 A 
ENDBRANCH  18  20
ENDBRANCH  11  15
BRANCH   1  27
ATOM     26  N   UNL     1      -3.136   3.388   2.723  0.00  0.00    -0.315 N 
ATOM     27  C   UNL     1      -4.411   3.791   2.554  0.00  0.00    +0.218 C 
ATOM     28  O   UNL     1      -4.754   4.298   1.507  0.00  0.00    -0.275 OA
ATOM     29  H   UNL     1      -2.862   2.983   3.560  0.00  0.00    +0.149 HD
BRANCH  26  30
ATOM     30  C   UNL     1      -2.164   3.563   1.641  0.00  0.00    +0.109 C 
BRANCH  30  31
ATOM     31  C   UNL     1      -0.802   3.027   2.087  0.00  0.00    +0.056 C 
BRANCH  31  35
ATOM     32  C   UNL     1       1.008   5.508   1.638  0.00  0.00    +0.063 C 
ATOM     33  C   UNL     1       0.985   4.275   0.772  0.00  0.00    +0.017 A 
ATOM     34  H   UNL     1       2.403   4.717  -0.687  0.00  0.00    +0.166 HD
ATOM     35  C   UNL     1       0.198   3.206   0.974  0.00  0.00    -0.018 A 
ATOM     36  C   UNL     1       0.497   2.247  -0.092  0.00  0.00    +0.003 A 
ATOM     37  C   UNL     1       0.017   0.977  -0.418  0.00  0.00    +0.010 A 
ATOM     38  C   UNL     1       0.514   0.323  -1.510  0.00  0.00    +0.001 A 
ATOM     39  C   UNL     1       1.492   0.912  -2.299  0.00  0.00    +0.002 A 
ATOM     40  C   UNL     1       1.980   2.164  -1.996  0.00  0.00    +0.026 A 
ATOM     41  C   UNL     1       1.489   2.848  -0.889  0.00  0.00    +0.047 A 
ATOM     42  N   UNL     1       1.759   4.081  -0.339  0.00  0.00    -0.358 N 
ENDBRANCH  31  35
ENDBRANCH  30  31
ENDBRANCH  26  30
ENDBRANCH   1  27
TORSDOF 6
