REMARK  Name = ZINC47527565
REMARK  5 active torsions:
REMARK  status: ('A' for Active; 'I' for Inactive)
REMARK    1  A    between atoms: C_1  and  C_2
REMARK    2  A    between atoms: C_5  and  N_9
REMARK    3  A    between atoms: C_6  and  O_8
REMARK    4  A    between atoms: C_10  and  C_12
REMARK    5  A    between atoms: C_12  and  N_13
REMARK                            x       y       z     vdW  Elec       q    Type
REMARK                         _______ _______ _______ _____ _____    ______ ____
ROOT
ATOM      1  N   UNL     1       0.057  -4.175  -0.031  0.00  0.00    -0.281 N 
ATOM      2  C   UNL     1      -0.042  -4.841  -1.198  0.00  0.00    +0.237 C 
ATOM      3  O   UNL     1      -0.055  -4.229  -2.246  0.00  0.00    -0.274 OA
ATOM      4  H   UNL     1       0.149  -4.665   0.801  0.00  0.00    +0.155 HD
ENDROOT
BRANCH   1   9
ATOM      5  C   UNL     1      -0.066   1.502   0.017  0.00  0.00    +0.044 C 
ATOM      6  C   UNL     1      -0.032  -0.005   0.006  0.00  0.00    -0.047 A 
ATOM      7  C   UNL     1      -0.621  -0.701  -1.033  0.00  0.00    +0.005 A 
ATOM      8  C   UNL     1      -0.593  -2.082  -1.048  0.00  0.00    +0.027 A 
ATOM      9  C   UNL     1       0.028  -2.774  -0.018  0.00  0.00    +0.075 A 
ATOM     10  C   UNL     1       0.622  -2.072   1.028  0.00  0.00    +0.138 A 
ATOM     11  C   UNL     1       0.594  -0.687   1.032  0.00  0.00    +0.050 A 
BRANCH  10  12
ATOM     12  O   UNL     1       1.233  -2.745   2.040  0.00  0.00    -0.505 OA
ATOM     13  H   UNL     1       2.171  -2.920   1.886  0.00  0.00    +0.292 HD
ENDBRANCH  10  12
ENDBRANCH   1   9
BRANCH   2  14
ATOM     14  C   UNL     1      -0.136  -6.345  -1.203  0.00  0.00    +0.220 C 
BRANCH  14  15
ATOM     15  N   UNL     1      -0.234  -6.824  -2.583  0.00  0.00    -0.305 N 
ATOM     16  C   UNL     1      -1.455  -6.965  -3.160  0.00  0.00    +0.105 A 
ATOM     17  C   UNL     1      -1.571  -7.406  -4.435  0.00  0.00    +0.034 A 
ATOM     18  C   UNL     1      -0.421  -7.722  -5.173  0.00  0.00    +0.022 A 
ATOM     19  C   UNL     1       0.804  -7.580  -4.592  0.00  0.00    +0.071 A 
ATOM     20  C   UNL     1       0.888  -7.115  -3.268  0.00  0.00    +0.252 A 
ATOM     21  O   UNL     1       1.979  -6.978  -2.738  0.00  0.00    -0.268 OA
ATOM     22 BR   UNL     1      -3.281  -7.596  -5.220  0.00  0.00    -0.049 Br
ENDBRANCH  14  15
ENDBRANCH   2  14
TORSDOF 4
