REMARK  Name = ZINC27788522
REMARK  7 active torsions:
REMARK  status: ('A' for Active; 'I' for Inactive)
REMARK    1  A    between atoms: C_1  and  C_2
REMARK    2  A    between atoms: C_2  and  C_15
REMARK    3  A    between atoms: C_4  and  C_11
REMARK    4  A    between atoms: C_6  and  C_9
REMARK    5  A    between atoms: C_6  and  C_10
REMARK    6  A    between atoms: N_7  and  O_8
REMARK    7  A    between atoms: N_13  and  N_14
REMARK                            x       y       z     vdW  Elec       q    Type
REMARK                         _______ _______ _______ _____ _____    ______ ____
ROOT
ATOM      1  C   UNL     1       3.388  -1.585  -0.465  0.00  0.00    +0.030 C 
ATOM      2  C   UNL     1       3.026  -0.269  -1.155  0.00  0.00    +0.043 C 
ATOM      3  C   UNL     1       1.790   0.358  -0.476  0.00  0.00    +0.038 C 
ATOM      4  C   UNL     1       2.414   1.386   0.504  0.00  0.00    +0.100 C 
ATOM      5  C   UNL     1       3.636   1.888  -0.305  0.00  0.00    +0.053 C 
ATOM      6  N   UNL     1       4.136   0.692  -1.016  0.00  0.00    -0.179 NA
ATOM      7  C   UNL     1       3.207   2.962  -1.307  0.00  0.00    +0.031 C 
ATOM      8  C   UNL     1       4.710   2.436   0.636  0.00  0.00    +0.031 C 
ATOM      9  C   UNL     1       2.734  -0.521  -2.636  0.00  0.00    +0.030 C 
ENDROOT
BRANCH   4  10
ATOM     10  C   UNL     1       1.454   2.513   0.787  0.00  0.00    +0.231 C 
ATOM     11  O   UNL     1       1.875   3.634   0.983  0.00  0.00    -0.274 OA
ATOM     12  N   UNL     1       0.128   2.276   0.823  0.00  0.00    -0.253 N 
ATOM     13  H   UNL     1      -0.253   1.259   0.650  0.00  0.00    +0.169 HD
BRANCH  12  14
ATOM     14  N   UNL     1      -0.742   3.298   1.075  0.00  0.00    -0.254 NA
ATOM     15  H   UNL     1      -1.772   2.913   1.064  0.00  0.00    +0.140 HD
ATOM     16  H   UNL     1      -0.523   3.732   2.061  0.00  0.00    +0.140 HD
ENDBRANCH  12  14
ENDBRANCH   4  10
BRANCH   6  17
ATOM     17  O   UNL     1       4.686   1.050  -2.323  0.00  0.00    -0.311 OA
ATOM     18  H   UNL     1       5.524   1.760  -2.391  0.00  0.00    +0.237 HD
ENDBRANCH   6  17
TORSDOF 3
