REMARK  Name = ZINC06529623
REMARK  18 active torsions:
REMARK  status: ('A' for Active; 'I' for Inactive)
REMARK    1  A    between atoms: C_1  and  C_2
REMARK    2  A    between atoms: C_4  and  O_34
REMARK    3  A    between atoms: C_7  and  C_8
REMARK    4  A    between atoms: C_8  and  C_10
REMARK    5  A    between atoms: C_11  and  O_33
REMARK    6  A    between atoms: N_14  and  C_29
REMARK    7  A    between atoms: C_15  and  C_17
REMARK    8  A    between atoms: C_19  and  O_27
REMARK    9  A    between atoms: C_20  and  O_25
REMARK   10  A    between atoms: C_21  and  O_23
REMARK   11  A    between atoms: O_23  and  C_24
REMARK   12  A    between atoms: O_25  and  C_26
REMARK   13  A    between atoms: O_27  and  C_28
REMARK   14  A    between atoms: C_29  and  C_30
REMARK   15  A    between atoms: C_30  and  N_67
REMARK   16  A    between atoms: C_31  and  N_67
REMARK   17  A    between atoms: C_32  and  N_67
REMARK   18  A    between atoms: O_34  and  C_35
REMARK                            x       y       z     vdW  Elec       q    Type
REMARK                         _______ _______ _______ _____ _____    ______ ____
ROOT
ATOM      1  C   UNL     1      -7.287  -1.276   0.819  0.00  0.00    +0.071 C 
ATOM      2  C   UNL     1      -8.552  -1.736   0.686  0.00  0.00    +0.188 C 
ATOM      3  C   UNL     1      -8.683  -2.428  -0.614  0.00  0.00    +0.282 C 
ATOM      4  O   UNL     1      -9.700  -2.948  -1.028  0.00  0.00    -0.267 OA
ATOM      5  N   UNL     1      -7.509  -2.400  -1.269  0.00  0.00    -0.285 N 
ATOM      6  C   UNL     1      -6.542  -1.681  -0.431  0.00  0.00    +0.145 C 
ENDROOT
BRANCH   6   7
ATOM      7  C   UNL     1      -5.389  -2.585  -0.078  0.00  0.00    -0.015 A 
ATOM      8  C   UNL     1      -5.633  -3.873   0.362  0.00  0.00    +0.055 A 
ATOM      9  C   UNL     1      -4.575  -4.710   0.683  0.00  0.00    +0.165 A 
ATOM     10  C   UNL     1      -3.268  -4.249   0.571  0.00  0.00    +0.204 A 
ATOM     11  C   UNL     1      -3.028  -2.952   0.134  0.00  0.00    +0.165 A 
ATOM     12  C   UNL     1      -4.091  -2.123  -0.190  0.00  0.00    +0.055 A 
BRANCH  11  13
ATOM     13  O   UNL     1      -1.751  -2.497   0.024  0.00  0.00    -0.491 OA
ATOM     14  C   UNL     1      -1.581  -1.121  -0.325  0.00  0.00    +0.277 C 
ENDBRANCH  11  13
BRANCH  10  15
ATOM     15  O   UNL     1      -2.227  -5.066   0.890  0.00  0.00    -0.488 OA
ATOM     16  C   UNL     1      -1.774  -5.042   2.245  0.00  0.00    +0.277 C 
ENDBRANCH  10  15
BRANCH   9  17
ATOM     17  O   UNL     1      -4.816  -5.979   1.110  0.00  0.00    -0.491 OA
ATOM     18  C   UNL     1      -6.183  -6.384   1.200  0.00  0.00    +0.277 C 
ENDBRANCH   9  17
ENDBRANCH   6   7
BRANCH   1  19
ATOM     19  C   UNL     1      -6.742  -0.534   1.960  0.00  0.00    +0.195 C 
ATOM     20  O   UNL     1      -5.611  -0.086   1.911  0.00  0.00    -0.287 OA
BRANCH  19  27
ATOM     21  C   UNL     1      -7.131  -2.726   3.807  0.00  0.00    +0.044 C 
ATOM     22  C   UNL     1      -7.760  -1.382   4.069  0.00  0.00    -0.036 A 
ATOM     23  C   UNL     1      -8.528  -1.188   5.195  0.00  0.00    +0.049 A 
ATOM     24  C   UNL     1      -9.108   0.052   5.438  0.00  0.00    +0.120 A 
ATOM     25  C   UNL     1      -8.921   1.099   4.542  0.00  0.00    +0.046 A 
ATOM     26  C   UNL     1      -8.150   0.915   3.417  0.00  0.00    +0.015 A 
ATOM     27  C   UNL     1      -7.564  -0.330   3.169  0.00  0.00    +0.025 A 
BRANCH  24  28
ATOM     28  O   UNL     1      -9.865   0.239   6.548  0.00  0.00    -0.495 OA
ATOM     29  C   UNL     1     -10.525   1.500   6.679  0.00  0.00    +0.277 C 
ENDBRANCH  24  28
ENDBRANCH  19  27
ENDBRANCH   1  19
BRANCH   2  30
ATOM     30  O   UNL     1      -9.541  -1.585   1.596  0.00  0.00    -0.502 OA
ATOM     31  H   UNL     1     -10.377  -2.016   1.256  0.00  0.00    +0.292 HD
ENDBRANCH   2  30
BRANCH   5  32
ATOM     32  C   UNL     1      -7.242  -2.984  -2.586  0.00  0.00    +0.090 C 
BRANCH  32  33
ATOM     33  C   UNL     1      -6.770  -4.430  -2.417  0.00  0.00    -0.060 C 
BRANCH  33  36
ATOM     34  C   UNL     1      -5.825  -6.313  -3.610  0.00  0.00    -0.097 C 
ATOM     35  C   UNL     1      -7.740  -5.142  -4.517  0.00  0.00    -0.097 C 
ATOM     36  N   UNL     1      -6.485  -4.998  -3.751  0.00  0.00    +0.377 N 
ATOM     37  H   UNL     1      -5.856  -4.362  -4.256  0.00  0.00    -0.083 HD
ENDBRANCH  33  36
ENDBRANCH  32  33
ENDBRANCH   5  32
TORSDOF 11
