REMARK  Name = ZINC16695495
REMARK  10 active torsions:
REMARK  status: ('A' for Active; 'I' for Inactive)
REMARK    1  A    between atoms: C_1  and  C_2
REMARK    2  A    between atoms: C_5  and  O_8
REMARK    3  A    between atoms: O_8  and  C_9
REMARK    4  A    between atoms: C_9  and  C_10
REMARK    5  A    between atoms: C_10  and  N_46
REMARK    6  A    between atoms: C_11  and  C_12
REMARK    7  A    between atoms: C_11  and  N_46
REMARK    8  A    between atoms: N_14  and  C_15
REMARK    9  A    between atoms: C_15  and  C_17
REMARK   10  A    between atoms: C_15  and  C_18
REMARK                            x       y       z     vdW  Elec       q    Type
REMARK                         _______ _______ _______ _____ _____    ______ ____
ROOT
ATOM      1  C   UNL     1       3.732   1.454  -0.695  0.00  0.00    +0.015 C 
ENDROOT
BRANCH   1   2
ATOM      2  C   UNL     1       2.318   0.933  -0.685  0.00  0.00    +0.196 C 
ATOM      3  O   UNL     1       2.042  -0.081  -1.290  0.00  0.00    -0.278 OA
ATOM      4  N   UNL     1       1.362   1.593  -0.002  0.00  0.00    -0.310 N 
ATOM      5  H   UNL     1       1.583   2.404   0.482  0.00  0.00    +0.149 HD
BRANCH   4   6
ATOM      6  C   UNL     1      -0.013   1.086   0.008  0.00  0.00    +0.101 C 
ATOM      7  C   UNL     1      -0.753   1.593  -1.232  0.00  0.00    +0.033 C 
BRANCH   6   8
ATOM      8  C   UNL     1      -0.718   1.572   1.248  0.00  0.00    -0.014 A 
ATOM      9  C   UNL     1      -0.292   2.726   1.878  0.00  0.00    +0.006 A 
ATOM     10  C   UNL     1      -0.942   3.174   3.013  0.00  0.00    +0.000 A 
ATOM     11  C   UNL     1      -2.012   2.463   3.524  0.00  0.00    +0.001 A 
ATOM     12  C   UNL     1      -2.435   1.306   2.897  0.00  0.00    +0.015 A 
ATOM     13  C   UNL     1      -1.788   0.860   1.759  0.00  0.00    +0.023 A 
ATOM     14 BR   UNL     1      -2.367  -0.723   0.902  0.00  0.00    -0.050 Br
ENDBRANCH   6   8
ENDBRANCH   4   6
ENDBRANCH   1   2
BRANCH   1  15
ATOM     15  N   UNL     1       4.573   0.555  -1.508  0.00  0.00    +0.387 N 
ATOM     16  H   UNL     1       4.552  -0.388  -1.101  0.00  0.00    -0.085 HD
ATOM     17  H   UNL     1       4.206   0.522  -2.466  0.00  0.00    -0.085 HD
BRANCH  15  18
ATOM     18  C   UNL     1       5.965   1.042  -1.536  0.00  0.00    -0.040 C 
BRANCH  18  19
ATOM     19  C   UNL     1       6.812   0.091  -2.384  0.00  0.00    +0.210 C 
BRANCH  19  20
ATOM     20  O   UNL     1       6.364   0.136  -3.740  0.00  0.00    -0.494 OA
BRANCH  20  25
ATOM     21  C   UNL     1       9.065  -3.149  -7.434  0.00  0.00    +0.044 C 
ATOM     22  C   UNL     1       8.343  -2.270  -6.446  0.00  0.00    -0.050 A 
ATOM     23  C   UNL     1       7.298  -1.470  -6.869  0.00  0.00    +0.007 A 
ATOM     24  C   UNL     1       6.634  -0.663  -5.965  0.00  0.00    +0.046 A 
ATOM     25  C   UNL     1       7.016  -0.657  -4.631  0.00  0.00    +0.120 A 
ATOM     26  C   UNL     1       8.069  -1.456  -4.210  0.00  0.00    +0.046 A 
ATOM     27  C   UNL     1       8.725  -2.266  -5.117  0.00  0.00    +0.007 A 
ENDBRANCH  20  25
ENDBRANCH  19  20
ENDBRANCH  18  19
ENDBRANCH  15  18
ENDBRANCH   1  15
TORSDOF 8
