REMARK  Name = ZINC55107590
REMARK  9 active torsions:
REMARK  status: ('A' for Active; 'I' for Inactive)
REMARK    1  A    between atoms: C_1  and  C_2
REMARK    2  A    between atoms: C_5  and  C_7
REMARK    3  A    between atoms: C_7  and  N_8
REMARK    4  A    between atoms: C_14  and  C_16
REMARK    5  A    between atoms: C_16  and  C_17
REMARK    6  A    between atoms: N_19  and  C_20
REMARK    7  A    between atoms: C_20  and  C_21
REMARK    8  A    between atoms: C_21  and  C_22
REMARK    9  A    between atoms: N_30  and  C_31
REMARK                            x       y       z     vdW  Elec       q    Type
REMARK                         _______ _______ _______ _____ _____    ______ ____
ROOT
ATOM      1  C   UNL     1       4.411  -3.963  -0.771  0.00  0.00    +0.124 C 
ENDROOT
BRANCH   1   8
ATOM      2  N   UNL     1       2.845  -5.844  -0.728  0.00  0.00    -0.282 NA
ATOM      3  C   UNL     1       1.512  -6.322  -1.126  0.00  0.00    +0.104 C 
ATOM      4  C   UNL     1       0.455  -5.407  -0.504  0.00  0.00    +0.119 C 
ATOM      5  N   UNL     1       0.777  -4.010  -0.784  0.00  0.00    -0.313 N 
ATOM      6  C   UNL     1       1.993  -3.606  -1.164  0.00  0.00    +0.231 C 
ATOM      7  O   UNL     1       2.182  -2.422  -1.345  0.00  0.00    -0.274 OA
ATOM      8  C   UNL     1       3.137  -4.558  -1.375  0.00  0.00    +0.152 C 
ATOM      9  H   UNL     1       0.076  -3.346  -0.690  0.00  0.00    +0.149 HD
BRANCH   2  10
ATOM     10  C   UNL     1       3.878  -6.839  -1.045  0.00  0.00    +0.159 C 
BRANCH  10  15
ATOM     11  C   UNL     1       4.595  -9.742   3.017  0.00  0.00    +0.086 C 
ATOM     12  C   UNL     1       4.088  -9.257   1.683  0.00  0.00    +0.102 A 
ATOM     13  C   UNL     1       3.231  -9.914   0.881  0.00  0.00    +0.044 A 
ATOM     14  C   UNL     1       3.030  -9.100  -0.257  0.00  0.00    +0.046 A 
ATOM     15  C   UNL     1       3.776  -7.994  -0.083  0.00  0.00    +0.119 A 
ATOM     16  O   UNL     1       4.410  -8.092   1.097  0.00  0.00    -0.464 OA
ENDBRANCH  10  15
ENDBRANCH   2  10
ENDBRANCH   1   8
BRANCH   1  17
ATOM     17  C   UNL     1       4.233  -3.799   0.716  0.00  0.00    +0.215 C 
ATOM     18  O   UNL     1       3.229  -4.213   1.256  0.00  0.00    -0.276 OA
ATOM     19  N   UNL     1       5.191  -3.194   1.447  0.00  0.00    -0.315 N 
ATOM     20  H   UNL     1       5.994  -2.864   1.015  0.00  0.00    +0.149 HD
BRANCH  19  21
ATOM     21  C   UNL     1       5.018  -3.035   2.893  0.00  0.00    +0.112 C 
BRANCH  21  22
ATOM     22  C   UNL     1       6.239  -2.322   3.477  0.00  0.00    +0.093 C 
BRANCH  22  23
ATOM     23  C   UNL     1       6.062  -2.159   4.964  0.00  0.00    +0.112 A 
ATOM     24  N   UNL     1       5.496  -1.139   5.540  0.00  0.00    -0.232 NA
ATOM     25  C   UNL     1       5.502  -1.312   6.886  0.00  0.00    +0.089 A 
ATOM     26  C   UNL     1       5.038  -0.547   7.959  0.00  0.00    +0.030 A 
ATOM     27  C   UNL     1       5.195  -1.001   9.238  0.00  0.00    +0.002 A 
ATOM     28  C   UNL     1       5.813  -2.219   9.486  0.00  0.00    +0.002 A 
ATOM     29  C   UNL     1       6.279  -2.991   8.443  0.00  0.00    +0.028 A 
ATOM     30  C   UNL     1       6.128  -2.545   7.137  0.00  0.00    +0.069 A 
ATOM     31  N   UNL     1       6.465  -3.059   5.901  0.00  0.00    -0.331 N 
ATOM     32  C   UNL     1       7.136  -4.336   5.645  0.00  0.00    +0.150 C 
ENDBRANCH  22  23
ENDBRANCH  21  22
ENDBRANCH  19  21
ENDBRANCH   1  17
TORSDOF 7
