REMARK  Name = ZINC09823528
REMARK  5 active torsions:
REMARK  status: ('A' for Active; 'I' for Inactive)
REMARK    1  A    between atoms: C_1  and  C_2
REMARK    2  A    between atoms: C_5  and  N_9
REMARK    3  A    between atoms: C_7  and  C_8
REMARK    4  A    between atoms: C_20  and  C_22
REMARK    5  A    between atoms: N_24  and  C_25
REMARK                            x       y       z     vdW  Elec       q    Type
REMARK                         _______ _______ _______ _____ _____    ______ ____
ROOT
ATOM      1  N   UNL     1      -0.016  -4.162  -2.351  0.00  0.00    -0.269 N 
ATOM      2  C   UNL     1       0.158  -4.836  -1.197  0.00  0.00    +0.311 C 
ATOM      3  O   UNL     1       0.207  -4.233  -0.142  0.00  0.00    -0.252 OA
ATOM      4  N   UNL     1       0.277  -6.178  -1.212  0.00  0.00    -0.243 N 
ATOM      5  C   UNL     1       0.309  -6.993  -0.076  0.00  0.00    +0.042 A 
ATOM      6  C   UNL     1       0.229  -6.636   1.272  0.00  0.00    +0.024 A 
ATOM      7  C   UNL     1       0.280  -7.605   2.251  0.00  0.00    +0.002 A 
ATOM      8  C   UNL     1       0.410  -8.938   1.907  0.00  0.00    +0.000 A 
ATOM      9  C   UNL     1       0.489  -9.299   0.575  0.00  0.00    +0.005 A 
ATOM     10  C   UNL     1       0.439  -8.331  -0.411  0.00  0.00    -0.024 A 
ATOM     11  C   UNL     1       0.503  -8.446  -1.917  0.00  0.00    +0.069 C 
ATOM     12  C   UNL     1       0.386  -6.999  -2.421  0.00  0.00    +0.173 C 
ATOM     13  H   UNL     1      -0.188  -4.646  -3.174  0.00  0.00    +0.156 HD
ENDROOT
BRANCH   1  18
ATOM     14  C   UNL     1       0.255   1.504  -2.395  0.00  0.00    +0.044 C 
ATOM     15  C   UNL     1       0.183  -0.001  -2.383  0.00  0.00    -0.047 A 
ATOM     16  C   UNL     1      -0.193  -0.665  -1.230  0.00  0.00    +0.005 A 
ATOM     17  C   UNL     1      -0.266  -2.044  -1.218  0.00  0.00    +0.023 A 
ATOM     18  C   UNL     1       0.051  -2.764  -2.362  0.00  0.00    +0.035 A 
ATOM     19  C   UNL     1       0.433  -2.095  -3.517  0.00  0.00    +0.027 A 
ATOM     20  C   UNL     1       0.499  -0.715  -3.524  0.00  0.00    -0.046 A 
ATOM     21  C   UNL     1       0.914   0.012  -4.777  0.00  0.00    +0.044 C 
ENDBRANCH   1  18
BRANCH  12  22
ATOM     22  C   UNL     1       1.619  -6.619  -3.201  0.00  0.00    +0.234 C 
ATOM     23  O   UNL     1       2.514  -6.006  -2.659  0.00  0.00    -0.274 OA
ATOM     24  N   UNL     1       1.726  -6.961  -4.500  0.00  0.00    -0.317 N 
ATOM     25  C   UNL     1       2.924  -6.592  -5.258  0.00  0.00    +0.128 C 
ATOM     26  H   UNL     1       1.010  -7.451  -4.934  0.00  0.00    +0.148 HD
ENDBRANCH  12  22
TORSDOF 2
