REMARK  Name = ZINC55169614
REMARK  2 active torsions:
REMARK  status: ('A' for Active; 'I' for Inactive)
REMARK    1  A    between atoms: C_4  and  C_6
REMARK    2  A    between atoms: C_12  and  C_14
REMARK                            x       y       z     vdW  Elec       q    Type
REMARK                         _______ _______ _______ _____ _____    ______ ____
ROOT
ATOM      1  C   UNL     1       1.122  -1.237  -1.867  0.00  0.00    +0.080 C 
ATOM      2  C   UNL     1       0.476  -2.594  -1.514  0.00  0.00    +0.024 C 
ATOM      3  C   UNL     1      -0.519  -2.820  -2.682  0.00  0.00    +0.021 C 
ATOM      4  C   UNL     1      -0.999  -1.375  -2.966  0.00  0.00    +0.108 C 
ATOM      5  N   UNL     1       0.199  -0.532  -2.769  0.00  0.00    -0.292 N 
ATOM      6  C   UNL     1       0.411   0.679  -3.320  0.00  0.00    +0.286 C 
ATOM      7  O   UNL     1       1.478   1.239  -3.164  0.00  0.00    -0.267 OA
ENDROOT
BRANCH   6   8
ATOM      8  C   UNL     1      -0.655   1.327  -4.113  0.00  0.00    +0.238 A 
ATOM      9  N   UNL     1      -0.564   2.525  -4.714  0.00  0.00    -0.190 NA
ATOM     10  C   UNL     1      -1.690   2.796  -5.332  0.00  0.00    +0.209 A 
ATOM     11  N   UNL     1      -2.538   1.760  -5.135  0.00  0.00    -0.246 N 
ATOM     12  H   UNL     1      -3.443   1.679  -5.473  0.00  0.00    +0.192 HD
ATOM     13  N   UNL     1      -1.847   0.823  -4.351  0.00  0.00    -0.146 NA
ATOM     14  N   UNL     1      -1.962   3.941  -6.058  0.00  0.00    -0.328 N 
ATOM     15  H   UNL     1      -1.288   4.633  -6.143  0.00  0.00    +0.145 HD
ATOM     16  H   UNL     1      -2.828   4.053  -6.481  0.00  0.00    +0.145 HD
ENDBRANCH   6   8
BRANCH   1  20
ATOM     17  C   UNL     1       1.394  -1.406   1.667  0.00  0.00    +0.000 C 
ATOM     18  C   UNL     1       0.338  -0.274   1.626  0.00  0.00    +0.000 C 
ATOM     19  C   UNL     1      -0.011  -0.187   0.120  0.00  0.00    +0.005 C 
ATOM     20  C   UNL     1       1.336  -0.415  -0.595  0.00  0.00    +0.010 C 
ATOM     21  C   UNL     1       2.230  -1.190   0.389  0.00  0.00    +0.005 C 
ENDBRANCH   1  20
TORSDOF 2
