REMARK  Name = ZINC63686460
REMARK  5 active torsions:
REMARK  status: ('A' for Active; 'I' for Inactive)
REMARK    1  A    between atoms: C_1  and  N_2
REMARK    2  A    between atoms: C_3  and  C_23
REMARK    3  A    between atoms: C_7  and  S_9
REMARK    4  A    between atoms: S_9  and  C_10
REMARK    5  A    between atoms: C_10  and  C_11
REMARK                            x       y       z     vdW  Elec       q    Type
REMARK                         _______ _______ _______ _____ _____    ______ ____
ROOT
ATOM      1  S   UNL     1      -0.266  -1.033   2.500  0.00  0.00    -0.119 S 
ENDROOT
BRANCH   1   7
ATOM      2  C   UNL     1      -0.032   1.452   0.023  0.00  0.00    +0.109 C 
ATOM      3  N   UNL     1      -0.001  -0.017   0.006  0.00  0.00    -0.260 NA
ATOM      4  C   UNL     1       0.691  -0.521  -1.210  0.00  0.00    +0.171 C 
ATOM      5  N   UNL     1       1.137  -1.877  -0.798  0.00  0.00    -0.233 NA
ATOM      6  N   UNL     1       1.533  -1.722   0.604  0.00  0.00    -0.229 NA
ATOM      7  C   UNL     1       0.812  -0.544   1.126  0.00  0.00    +0.200 C 
ATOM      8  H   UNL     1       0.388  -2.548  -0.890  0.00  0.00    +0.143 HD
ATOM      9  H   UNL     1       2.532  -1.601   0.686  0.00  0.00    +0.143 HD
BRANCH   4  10
ATOM     10  C   UNL     1      -0.264  -0.600  -2.374  0.00  0.00    -0.015 A 
ATOM     11  C   UNL     1       0.042   0.034  -3.563  0.00  0.00    +0.006 A 
ATOM     12  C   UNL     1      -0.834  -0.038  -4.630  0.00  0.00    +0.000 A 
ATOM     13  C   UNL     1      -2.016  -0.745  -4.508  0.00  0.00    +0.000 A 
ATOM     14  C   UNL     1      -2.321  -1.379  -3.318  0.00  0.00    +0.000 A 
ATOM     15  C   UNL     1      -1.444  -1.311  -2.253  0.00  0.00    +0.006 A 
ENDBRANCH   4  10
ENDBRANCH   1   7
BRANCH   1  16
ATOM     16  C   UNL     1      -1.339  -2.309   1.784  0.00  0.00    +0.125 C 
BRANCH  16  17
ATOM     17  C   UNL     1      -2.296  -2.808   2.835  0.00  0.00    +0.030 A 
ATOM     18  N   UNL     1      -1.829  -3.633   3.803  0.00  0.00    -0.356 N 
ATOM     19  C   UNL     1      -2.652  -4.124   4.792  0.00  0.00    +0.069 A 
ATOM     20  C   UNL     1      -4.011  -3.765   4.805  0.00  0.00    +0.046 A 
ATOM     21  C   UNL     1      -4.855  -4.256   5.800  0.00  0.00    +0.014 A 
ATOM     22  C   UNL     1      -4.355  -5.088   6.763  0.00  0.00    +0.002 A 
ATOM     23  C   UNL     1      -3.014  -5.447   6.757  0.00  0.00    +0.022 A 
ATOM     24  C   UNL     1      -2.163  -4.973   5.782  0.00  0.00    +0.065 A 
ATOM     25 CL   UNL     1      -0.488  -5.431   5.788  0.00  0.00    -0.081 Cl
ATOM     26  C   UNL     1      -4.510  -2.866   3.748  0.00  0.00    +0.190 A 
ATOM     27  O   UNL     1      -5.680  -2.523   3.713  0.00  0.00    -0.287 OA
ATOM     28  C   UNL     1      -3.585  -2.411   2.780  0.00  0.00    +0.073 A 
ATOM     29  H   UNL     1      -0.892  -3.884   3.799  0.00  0.00    +0.166 HD
ENDBRANCH  16  17
ENDBRANCH   1  16
TORSDOF 4
