REMARK  Name = ZINC38556628
REMARK  3 active torsions:
REMARK  status: ('A' for Active; 'I' for Inactive)
REMARK    1  A    between atoms: C_6  and  N_7
REMARK    2  A    between atoms: N_7  and  S_8
REMARK    3  A    between atoms: S_8  and  C_11
REMARK                            x       y       z     vdW  Elec       q    Type
REMARK                         _______ _______ _______ _____ _____    ______ ____
ROOT
ATOM      1  C   UNL     1      -2.849  -2.922   0.015  0.00  0.00    +0.112 A 
ATOM      2  C   UNL     1      -3.488  -3.135   1.252  0.00  0.00    +0.031 A 
ATOM      3  C   UNL     1      -4.772  -3.554   1.331  0.00  0.00    +0.027 A 
ATOM      4  C   UNL     1      -5.507  -3.789   0.140  0.00  0.00    +0.055 A 
ATOM      5  N   UNL     1      -6.758  -4.196   0.186  0.00  0.00    -0.276 N 
ATOM      6  C   UNL     1      -7.436  -4.412  -0.960  0.00  0.00    +0.304 C 
ATOM      7  O   UNL     1      -8.590  -4.788  -0.925  0.00  0.00    -0.265 OA
ATOM      8  C   UNL     1      -6.757  -4.186  -2.273  0.00  0.00    +0.304 C 
ATOM      9  O   UNL     1      -7.356  -4.377  -3.312  0.00  0.00    -0.265 OA
ATOM     10  N   UNL     1      -5.474  -3.768  -2.296  0.00  0.00    -0.276 N 
ATOM     11  C   UNL     1      -4.832  -3.564  -1.165  0.00  0.00    +0.057 A 
ATOM     12  C   UNL     1      -3.484  -3.119  -1.162  0.00  0.00    +0.054 A 
ATOM     13  H   UNL     1      -5.027  -3.619  -3.143  0.00  0.00    +0.155 HD
ATOM     14  H   UNL     1      -7.190  -4.341   1.042  0.00  0.00    +0.155 HD
ENDROOT
BRANCH   1  15
ATOM     15  S   UNL     1      -1.173  -2.376   0.001  0.00  0.00    +0.092 S 
ATOM     16  O   UNL     1      -0.629  -2.768  -1.252  0.00  0.00    -0.148 OA
ATOM     17  O   UNL     1      -0.604  -2.781   1.239  0.00  0.00    -0.148 OA
BRANCH  15  18
ATOM     18  N   UNL     1      -1.198  -0.720   0.010  0.00  0.00    -0.098 NA
BRANCH  18  24
ATOM     19  C   UNL     1      -0.017   1.385   0.010  0.00  0.00    +0.028 A 
ATOM     20  C   UNL     1       1.171   2.090   0.002  0.00  0.00    +0.017 A 
ATOM     21  C   UNL     1       2.378   1.415  -0.013  0.00  0.00    +0.018 A 
ATOM     22  C   UNL     1       2.400   0.031  -0.021  0.00  0.00    +0.017 A 
ATOM     23  C   UNL     1       1.216  -0.679  -0.014  0.00  0.00    +0.028 A 
ATOM     24  C   UNL     1       0.002  -0.004   0.002  0.00  0.00    +0.074 A 
ATOM     25 BR   UNL     1       4.002   2.384  -0.025  0.00  0.00    -0.050 Br
ENDBRANCH  18  24
ENDBRANCH  15  18
ENDBRANCH   1  15
TORSDOF 3
