REMARK  Name = ZINC52588225
REMARK  9 active torsions:
REMARK  status: ('A' for Active; 'I' for Inactive)
REMARK    1  A    between atoms: C_1  and  C_2
REMARK    2  A    between atoms: C_7  and  C_9
REMARK    3  A    between atoms: C_7  and  N_26
REMARK    4  A    between atoms: C_9  and  N_10
REMARK    5  A    between atoms: N_13  and  N_14
REMARK    6  A    between atoms: C_15  and  C_17
REMARK    7  A    between atoms: C_21  and  N_23
REMARK    8  A    between atoms: N_26  and  C_27
REMARK    9  A    between atoms: N_26  and  C_28
REMARK                            x       y       z     vdW  Elec       q    Type
REMARK                         _______ _______ _______ _____ _____    ______ ____
ROOT
ATOM      1  N   UNL     1       2.821  -1.812  -0.209  0.00  0.00    -0.300 N 
ATOM      2  C   UNL     1       3.509  -1.953  -1.359  0.00  0.00    +0.316 C 
ATOM      3  O   UNL     1       2.942  -2.340  -2.363  0.00  0.00    -0.251 OA
ATOM      4  N   UNL     1       4.825  -1.667  -1.397  0.00  0.00    -0.218 N 
ATOM      5  H   UNL     1       3.273  -1.504   0.592  0.00  0.00    +0.150 HD
ATOM      6  H   UNL     1       5.320  -1.768  -2.225  0.00  0.00    +0.174 HD
ENDROOT
BRANCH   4   7
ATOM      7  N   UNL     1       5.479  -1.222  -0.240  0.00  0.00    -0.229 N 
ATOM      8  C   UNL     1       6.795  -0.935  -0.278  0.00  0.00    +0.260 C 
ATOM      9  O   UNL     1       7.415  -1.062  -1.315  0.00  0.00    -0.269 OA
ATOM     10  H   UNL     1       4.983  -1.120   0.588  0.00  0.00    +0.173 HD
BRANCH   8  11
ATOM     11  C   UNL     1       7.484  -0.465   0.943  0.00  0.00    +0.040 A 
ATOM     12  C   UNL     1       6.776  -0.323   2.138  0.00  0.00    +0.013 A 
ATOM     13  C   UNL     1       7.425   0.115   3.273  0.00  0.00    +0.003 A 
ATOM     14  C   UNL     1       8.776   0.414   3.230  0.00  0.00    +0.033 A 
ATOM     15  C   UNL     1       9.483   0.276   2.049  0.00  0.00    +0.127 A 
ATOM     16  C   UNL     1       8.847  -0.167   0.908  0.00  0.00    +0.045 A 
BRANCH  15  17
ATOM     17  N   UNL     1      10.928   0.598   2.012  0.00  0.00    +0.056 N 
ATOM     18  O   UNL     1      11.487   0.981   3.013  0.00  0.00    -0.126 OA
ATOM     19  O   UNL     1      11.547   0.478   0.981  0.00  0.00    -0.126 OA
ENDBRANCH  15  17
ENDBRANCH   8  11
ENDBRANCH   4   7
BRANCH   1  20
ATOM     20  C   UNL     1       1.390  -2.124  -0.168  0.00  0.00    +0.094 C 
BRANCH  20  26
ATOM     21  C   UNL     1       0.315   1.904   0.992  0.00  0.00    +0.007 C 
ATOM     22  C   UNL     1       0.182   0.424   0.627  0.00  0.00    -0.015 C 
ATOM     23  C   UNL     1      -1.290   0.013   0.691  0.00  0.00    +0.003 C 
ATOM     24  C   UNL     1      -1.422  -1.467   0.326  0.00  0.00    -0.001 C 
ATOM     25  C   UNL     1      -0.613  -2.310   1.314  0.00  0.00    -0.010 C 
ATOM     26  C   UNL     1       0.859  -1.899   1.249  0.00  0.00    -0.050 C 
ATOM     27  C   UNL     1       0.992  -0.419   1.614  0.00  0.00    -0.007 C 
BRANCH  26  28
ATOM     28  N   UNL     1       1.636  -2.708   2.197  0.00  0.00    +0.381 N 
ATOM     29  C   UNL     1       1.078  -2.551   3.547  0.00  0.00    -0.096 C 
ATOM     30  C   UNL     1       1.572  -4.122   1.802  0.00  0.00    -0.096 C 
ATOM     31  H   UNL     1       2.597  -2.401   2.193  0.00  0.00    -0.082 HD
ENDBRANCH  26  28
ENDBRANCH  20  26
ENDBRANCH   1  20
TORSDOF 6
