REMARK  Name = ZINC08254758
REMARK  7 active torsions:
REMARK  status: ('A' for Active; 'I' for Inactive)
REMARK    1  A    between atoms: C_4  and  C_7
REMARK    2  A    between atoms: C_7  and  N_8
REMARK    3  A    between atoms: C_9  and  C_11
REMARK    4  A    between atoms: C_14  and  O_35
REMARK    5  A    between atoms: C_16  and  O_34
REMARK    6  A    between atoms: N_22  and  C_26
REMARK    7  A    between atoms: C_30  and  C_32
REMARK                            x       y       z     vdW  Elec       q    Type
REMARK                         _______ _______ _______ _____ _____    ______ ____
ROOT
ATOM      1  C   UNL     1       1.675  -0.154  -1.380  0.00  0.00    +0.100 C 
ATOM      2  C   UNL     1       0.254  -0.516  -1.745  0.00  0.00    +0.048 C 
ATOM      3  C   UNL     1      -0.727  -0.117  -0.662  0.00  0.00    +0.146 C 
ATOM      4  C   UNL     1      -0.639   1.348  -0.318  0.00  0.00    +0.165 C 
ATOM      5  C   UNL     1       0.753   1.858  -0.032  0.00  0.00    +0.124 C 
ATOM      6  C   UNL     1       1.868   1.210  -0.820  0.00  0.00    +0.115 C 
ATOM      7  N   UNL     1       2.296   2.217  -1.791  0.00  0.00    -0.277 N 
ATOM      8  C   UNL     1       1.680   3.373  -1.489  0.00  0.00    +0.138 C 
ATOM      9  S   UNL     1       1.968   4.835  -2.333  0.00  0.00    -0.018 S 
ATOM     10  N   UNL     1       0.820   3.275  -0.465  0.00  0.00    -0.319 N 
ATOM     11  H   UNL     1       0.323   4.010  -0.072  0.00  0.00    +0.148 HD
ENDROOT
BRANCH   7  12
ATOM     12  C   UNL     1       3.189   2.013  -2.849  0.00  0.00    +0.037 A 
ATOM     13  C   UNL     1       4.510   1.668  -2.586  0.00  0.00    +0.023 A 
ATOM     14  C   UNL     1       5.396   1.464  -3.627  0.00  0.00    +0.003 A 
ATOM     15  C   UNL     1       4.977   1.603  -4.934  0.00  0.00    +0.019 A 
ATOM     16  C   UNL     1       3.652   1.950  -5.209  0.00  0.00    +0.054 A 
ATOM     17  C   UNL     1       2.756   2.150  -4.158  0.00  0.00    +0.042 A 
BRANCH  16  18
ATOM     18  C   UNL     1       3.213   2.094  -6.565  0.00  0.00    +0.099 C 
ATOM     19  N   UNL     1       2.866   2.209  -7.640  0.00  0.00    -0.191 NA
ENDBRANCH  16  18
ENDBRANCH   7  12
BRANCH   1  21
ATOM     20  N   UNL     1       3.724  -0.898  -2.549  0.00  0.00    -0.311 N 
ATOM     21  C   UNL     1       2.527  -0.282  -2.616  0.00  0.00    +0.218 C 
ATOM     22  O   UNL     1       2.135   0.169  -3.672  0.00  0.00    -0.275 OA
ATOM     23  H   UNL     1       4.075  -1.183  -1.691  0.00  0.00    +0.149 HD
BRANCH  20  24
ATOM     24  C   UNL     1       4.494  -1.138  -3.772  0.00  0.00    +0.139 C 
BRANCH  24  28
ATOM     25  C   UNL     1       7.888  -3.567  -2.865  0.00  0.00    +0.000 A 
ATOM     26  C   UNL     1       6.692  -4.159  -3.225  0.00  0.00    +0.000 A 
ATOM     27  C   UNL     1       5.593  -3.372  -3.519  0.00  0.00    +0.005 A 
ATOM     28  C   UNL     1       5.691  -1.995  -3.452  0.00  0.00    -0.030 A 
ATOM     29  C   UNL     1       6.889  -1.404  -3.096  0.00  0.00    +0.005 A 
ATOM     30  C   UNL     1       7.986  -2.190  -2.797  0.00  0.00    +0.000 A 
ENDBRANCH  24  28
ENDBRANCH  20  24
ENDBRANCH   1  21
BRANCH   4  31
ATOM     31  O   UNL     1      -1.179   2.099  -1.407  0.00  0.00    -0.387 OA
ATOM     32  H   UNL     1      -2.103   1.897  -1.605  0.00  0.00    +0.210 HD
ENDBRANCH   4  31
BRANCH   3  33
ATOM     33  O   UNL     1      -0.455  -0.885   0.511  0.00  0.00    -0.389 OA
ATOM     34  H   UNL     1      -0.491  -1.841   0.373  0.00  0.00    +0.210 HD
ENDBRANCH   3  33
TORSDOF 7
