REMARK  Name = ZINC01065329
REMARK  7 active torsions:
REMARK  status: ('A' for Active; 'I' for Inactive)
REMARK    1  A    between atoms: C_1  and  C_2
REMARK    2  A    between atoms: C_9  and  N_30
REMARK    3  A    between atoms: C_10  and  C_28
REMARK    4  A    between atoms: C_11  and  C_13
REMARK    5  A    between atoms: C_18  and  O_19
REMARK    6  A    between atoms: O_19  and  C_20
REMARK    7  A    between atoms: C_20  and  C_21
REMARK                            x       y       z     vdW  Elec       q    Type
REMARK                         _______ _______ _______ _____ _____    ______ ____
ROOT
ATOM      1  C   UNL     1       0.459  -1.985  -3.098  0.00  0.00    +0.068 C 
ATOM      2  C   UNL     1       0.230  -3.375  -2.564  0.00  0.00    +0.068 A 
ATOM      3  C   UNL     1       0.043  -3.716  -1.231  0.00  0.00    +0.049 A 
ATOM      4  C   UNL     1      -0.131  -5.071  -1.161  0.00  0.00    +0.222 A 
ATOM      5  N   UNL     1      -0.055  -5.555  -2.411  0.00  0.00    -0.246 N 
ATOM      6  H   UNL     1      -0.144  -6.515  -2.677  0.00  0.00    +0.192 HD
ATOM      7  N   UNL     1       0.172  -4.475  -3.278  0.00  0.00    -0.176 NA
ATOM      8  O   UNL     1      -0.337  -5.722   0.011  0.00  0.00    -0.423 OA
ATOM      9  C   UNL     1      -0.095  -5.046   1.152  0.00  0.00    +0.200 C 
ATOM     10  C   UNL     1       0.081  -3.707   1.211  0.00  0.00    +0.098 C 
ATOM     11  C   UNL     1       0.018  -2.829  -0.014  0.00  0.00    +0.105 C 
ENDROOT
BRANCH  11  12
ATOM     12  C   UNL     1      -1.255  -2.023   0.003  0.00  0.00    +0.007 A 
ATOM     13  C   UNL     1      -2.479  -2.665   0.011  0.00  0.00    +0.008 A 
ATOM     14  C   UNL     1      -3.648  -1.927   0.026  0.00  0.00    +0.001 A 
ATOM     15  C   UNL     1      -3.595  -0.545   0.034  0.00  0.00    +0.004 A 
ATOM     16  C   UNL     1      -2.375   0.101   0.031  0.00  0.00    +0.046 A 
ATOM     17  C   UNL     1      -1.200  -0.637   0.010  0.00  0.00    +0.125 A 
BRANCH  17  18
ATOM     18  O   UNL     1       0.002  -0.004   0.002  0.00  0.00    -0.487 OA
BRANCH  18  19
ATOM     19  C   UNL     1      -0.017   1.425   0.010  0.00  0.00    +0.264 C 
BRANCH  19  20
ATOM     20  C   UNL     1       1.397   1.946  -0.001  0.00  0.00    -0.009 A 
ATOM     21  C   UNL     1       2.034   2.192  -1.203  0.00  0.00    +0.007 A 
ATOM     22  C   UNL     1       3.330   2.671  -1.214  0.00  0.00    +0.001 A 
ATOM     23  C   UNL     1       3.991   2.904  -0.022  0.00  0.00    +0.015 A 
ATOM     24  C   UNL     1       3.354   2.659   1.181  0.00  0.00    +0.018 A 
ATOM     25  C   UNL     1       2.054   2.184   1.191  0.00  0.00    +0.022 A 
ATOM     26 BR   UNL     1       4.256   2.978   2.812  0.00  0.00    -0.050 Br
ENDBRANCH  19  20
ENDBRANCH  18  19
ENDBRANCH  17  18
ENDBRANCH  11  12
BRANCH   9  27
ATOM     27  N   UNL     1      -0.025  -5.759   2.323  0.00  0.00    -0.328 N 
ATOM     28  H   UNL     1       0.147  -5.301   3.160  0.00  0.00    +0.145 HD
ATOM     29  H   UNL     1      -0.147  -6.721   2.313  0.00  0.00    +0.145 HD
ENDBRANCH   9  27
BRANCH  10  30
ATOM     30  C   UNL     1       0.337  -3.101   2.482  0.00  0.00    +0.101 C 
ATOM     31  N   UNL     1       0.539  -2.619   3.491  0.00  0.00    -0.191 NA
ENDBRANCH  10  30
TORSDOF 6
