REMARK  Name = ZINC39467580
REMARK  6 active torsions:
REMARK  status: ('A' for Active; 'I' for Inactive)
REMARK    1  A    between atoms: C_1  and  N_2
REMARK    2  A    between atoms: N_2  and  C_3
REMARK    3  A    between atoms: C_3  and  C_4
REMARK    4  A    between atoms: C_14  and  C_16
REMARK    5  A    between atoms: C_16  and  C_17
REMARK    6  A    between atoms: N_24  and  C_25
REMARK                            x       y       z     vdW  Elec       q    Type
REMARK                         _______ _______ _______ _____ _____    ______ ____
ROOT
ATOM      1  C   UNL     1      -0.506  -1.327  -3.471  0.00  0.00    +0.028 C 
ATOM      2  C   UNL     1      -0.207  -0.740  -4.822  0.00  0.00    +0.200 C 
ATOM      3  O   UNL     1       0.787  -0.058  -4.952  0.00  0.00    -0.278 OA
ATOM      4  N   UNL     1      -0.993  -0.940  -5.886  0.00  0.00    -0.318 N 
ATOM      5  C   UNL     1      -2.224  -1.723  -5.819  0.00  0.00    +0.085 C 
ATOM      6  C   UNL     1      -2.223  -2.588  -4.557  0.00  0.00    -0.058 C 
ATOM      7  N   UNL     1      -1.914  -1.734  -3.401  0.00  0.00    +0.391 N 
ATOM      8  H   UNL     1      -0.735  -0.549  -6.735  0.00  0.00    +0.149 HD
ATOM      9  H   UNL     1      -2.504  -0.915  -3.417  0.00  0.00    -0.080 HD
ENDROOT
BRANCH   7  10
ATOM     10  C   UNL     1      -2.147  -2.487  -2.161  0.00  0.00    -0.059 C 
ATOM     11  C   UNL     1      -3.609  -2.976  -2.082  0.00  0.00    +0.020 C 
ATOM     12  C   UNL     1      -3.976  -2.893  -0.616  0.00  0.00    -0.046 A 
ATOM     13  C   UNL     1      -5.016  -3.482   0.083  0.00  0.00    +0.004 A 
ATOM     14  C   UNL     1      -5.156  -3.261   1.439  0.00  0.00    +0.000 A 
ATOM     15  C   UNL     1      -4.254  -2.448   2.102  0.00  0.00    +0.000 A 
ATOM     16  C   UNL     1      -3.216  -1.860   1.406  0.00  0.00    +0.004 A 
ATOM     17  C   UNL     1      -3.075  -2.081   0.046  0.00  0.00    -0.046 A 
ATOM     18  C   UNL     1      -2.041  -1.562  -0.929  0.00  0.00    +0.020 C 
ENDBRANCH   7  10
BRANCH   1  19
ATOM     19  C   UNL     1      -0.225  -0.281  -2.390  0.00  0.00    +0.090 C 
BRANCH  19  22
ATOM     20  C   UNL     1      -0.246   1.856  -0.525  0.00  0.00    +0.132 C 
ATOM     21  N   UNL     1      -1.207   1.859  -1.631  0.00  0.00    -0.302 N 
ATOM     22  C   UNL     1      -1.174   0.879  -2.556  0.00  0.00    +0.214 C 
ATOM     23  O   UNL     1      -1.907   0.930  -3.520  0.00  0.00    -0.276 OA
BRANCH  21  24
ATOM     24  C   UNL     1      -2.204   2.927  -1.732  0.00  0.00    +0.140 C 
BRANCH  24  25
ATOM     25  C   UNL     1      -1.597   4.125  -2.466  0.00  0.00    +0.173 C 
ATOM     26  C   UNL     1      -2.483   5.337  -2.337  0.00  0.00    -0.019 C 
ATOM     27  C   UNL     1      -1.738   6.241  -1.694  0.00  0.00    +0.065 C 
ATOM     28  C   UNL     1      -2.240   7.626  -1.349  0.00  0.00    +0.057 C 
ATOM     29  C   UNL     1      -3.475   7.924  -2.206  0.00  0.00    +0.006 C 
ATOM     30  C   UNL     1      -4.471   6.767  -2.095  0.00  0.00    +0.005 C 
ATOM     31  C   UNL     1      -3.894   5.535  -2.807  0.00  0.00    +0.035 C 
ATOM     32  N   UNL     1      -0.519   5.726  -1.420  0.00  0.00    -0.158 NA
ATOM     33  N   UNL     1      -0.349   4.562  -1.811  0.00  0.00    -0.178 NA
ENDBRANCH  24  25
ENDBRANCH  21  24
ENDBRANCH  19  22
ENDBRANCH   1  19
TORSDOF 5
