REMARK  Name = ZINC08568976
REMARK  8 active torsions:
REMARK  status: ('A' for Active; 'I' for Inactive)
REMARK    1  A    between atoms: C_1  and  C_2
REMARK    2  A    between atoms: C_2  and  C_3
REMARK    3  A    between atoms: C_2  and  O_25
REMARK    4  A    between atoms: C_8  and  O_12
REMARK    5  A    between atoms: O_12  and  C_13
REMARK    6  A    between atoms: C_20  and  C_22
REMARK    7  A    between atoms: C_22  and  C_23
REMARK    8  A    between atoms: C_22  and  O_24
REMARK                            x       y       z     vdW  Elec       q    Type
REMARK                         _______ _______ _______ _____ _____    ______ ____
ROOT
ATOM      1  O   UNL     1       2.485  -3.091   6.140  0.00  0.00    -0.456 OA
ENDROOT
BRANCH   1   7
ATOM      2  C   UNL     1       4.026  -0.835   0.994  0.00  0.00    +0.137 A 
ATOM      3  N   UNL     1       2.753  -1.091   1.063  0.00  0.00    -0.230 NA
ATOM      4  C   UNL     1       2.458  -1.613   2.282  0.00  0.00    +0.089 A 
ATOM      5  C   UNL     1       1.273  -2.055   2.878  0.00  0.00    +0.033 A 
ATOM      6  C   UNL     1       1.292  -2.542   4.154  0.00  0.00    +0.048 A 
ATOM      7  C   UNL     1       2.484  -2.604   4.871  0.00  0.00    +0.131 A 
ATOM      8  C   UNL     1       3.667  -2.172   4.299  0.00  0.00    +0.074 A 
ATOM      9  C   UNL     1       3.662  -1.675   3.004  0.00  0.00    +0.070 A 
ATOM     10  N   UNL     1       4.637  -1.181   2.160  0.00  0.00    -0.340 N 
ATOM     11  H   UNL     1       5.582  -1.095   2.362  0.00  0.00    +0.167 HD
BRANCH   2  13
ATOM     12  C   UNL     1       4.430  -1.105  -1.438  0.00  0.00    +0.046 C 
ATOM     13  C   UNL     1       4.725  -0.248  -0.205  0.00  0.00    +0.177 C 
BRANCH  13  14
ATOM     14  O   UNL     1       6.134  -0.221   0.030  0.00  0.00    -0.384 OA
ATOM     15  H   UNL     1       6.523  -1.092   0.189  0.00  0.00    +0.210 HD
ENDBRANCH  13  14
ENDBRANCH   2  13
ENDBRANCH   1   7
BRANCH   1  16
ATOM     16  C   UNL     1       3.667  -3.124   6.811  0.00  0.00    +0.131 A 
ATOM     17  C   UNL     1       4.482  -4.250   6.723  0.00  0.00    +0.048 A 
ATOM     18  C   UNL     1       5.672  -4.300   7.390  0.00  0.00    +0.033 A 
ATOM     19  C   UNL     1       6.082  -3.214   8.169  0.00  0.00    +0.089 A 
ATOM     20  C   UNL     1       5.262  -2.077   8.259  0.00  0.00    +0.070 A 
ATOM     21  C   UNL     1       4.057  -2.037   7.572  0.00  0.00    +0.074 A 
ATOM     22  N   UNL     1       5.926  -1.192   9.085  0.00  0.00    -0.340 N 
ATOM     23  C   UNL     1       7.090  -1.788   9.464  0.00  0.00    +0.137 A 
ATOM     24  N   UNL     1       7.182  -2.970   8.929  0.00  0.00    -0.230 NA
ATOM     25  H   UNL     1       5.621  -0.309   9.346  0.00  0.00    +0.167 HD
BRANCH  23  26
ATOM     26  C   UNL     1       8.122  -1.169  10.370  0.00  0.00    +0.177 C 
ATOM     27  C   UNL     1       8.394  -2.106  11.549  0.00  0.00    +0.046 C 
BRANCH  26  28
ATOM     28  O   UNL     1       9.333  -0.958   9.641  0.00  0.00    -0.384 OA
ATOM     29  H   UNL     1       9.720  -1.768   9.279  0.00  0.00    +0.210 HD
ENDBRANCH  26  28
ENDBRANCH  23  26
ENDBRANCH   1  16
TORSDOF 6
