REMARK  Name = ZINC39631816
REMARK  13 active torsions:
REMARK  status: ('A' for Active; 'I' for Inactive)
REMARK    1  A    between atoms: C_1  and  C_2
REMARK    2  A    between atoms: C_5  and  C_9
REMARK    3  A    between atoms: C_7  and  C_8
REMARK    4  A    between atoms: C_13  and  C_22
REMARK    5  A    between atoms: N_24  and  C_25
REMARK    6  A    between atoms: C_25  and  C_27
REMARK    7  A    between atoms: C_25  and  C_28
REMARK    8  A    between atoms: C_28  and  C_29
REMARK    9  A    between atoms: C_29  and  C_30
REMARK   10  A    between atoms: C_30  and  C_31
REMARK   11  A    between atoms: C_31  and  C_32
REMARK   12  A    between atoms: C_31  and  C_33
REMARK   13  A    between atoms: C_31  and  O_34
REMARK                            x       y       z     vdW  Elec       q    Type
REMARK                         _______ _______ _______ _____ _____    ______ ____
ROOT
ATOM      1  C   UNL     1       0.061  -4.249  -0.022  0.00  0.00    +0.247 C 
ATOM      2  O   UNL     1       0.183  -4.860   1.021  0.00  0.00    -0.270 OA
ATOM      3  N   UNL     1      -0.038  -4.918  -1.188  0.00  0.00    -0.296 N 
ATOM      4  C   UNL     1      -0.063  -4.356  -2.558  0.00  0.00    +0.121 C 
ATOM      5  C   UNL     1       0.782  -5.339  -3.399  0.00  0.00    +0.100 C 
ATOM      6  C   UNL     1       0.722  -6.668  -2.627  0.00  0.00    -0.004 C 
ATOM      7  C   UNL     1      -0.140  -6.384  -1.388  0.00  0.00    +0.115 C 
ATOM      8  C   UNL     1       0.074  -7.749  -3.486  0.00  0.00    -0.010 C 
ATOM      9  C   UNL     1       0.078  -9.075  -2.719  0.00  0.00    -0.082 C 
ATOM     10  N   UNL     1       1.459  -9.446  -2.388  0.00  0.00    +0.379 N 
ATOM     11  C   UNL     1       2.044  -8.447  -1.486  0.00  0.00    -0.082 C 
ATOM     12  C   UNL     1       2.123  -7.095  -2.201  0.00  0.00    -0.010 C 
ATOM     13  H   UNL     1       1.464 -10.349  -1.936  0.00  0.00    -0.086 HD
ATOM     14  H   UNL     1       2.005  -9.494  -3.235  0.00  0.00    -0.086 HD
ENDROOT
BRANCH   1  19
ATOM     15  C   UNL     1      -0.093   1.504   0.015  0.00  0.00    +0.044 C 
ATOM     16  C   UNL     1      -0.052  -0.003   0.005  0.00  0.00    -0.047 A 
ATOM     17  C   UNL     1      -0.639  -0.701  -1.035  0.00  0.00    +0.004 A 
ATOM     18  C   UNL     1      -0.606  -2.080  -1.050  0.00  0.00    +0.013 A 
ATOM     19  C   UNL     1       0.022  -2.771  -0.013  0.00  0.00    +0.037 A 
ATOM     20  C   UNL     1       0.612  -2.061   1.034  0.00  0.00    +0.016 A 
ATOM     21  C   UNL     1       0.576  -0.681   1.034  0.00  0.00    -0.047 A 
ATOM     22  C   UNL     1       1.218   0.087   2.160  0.00  0.00    +0.044 C 
ENDBRANCH   1  19
BRANCH   5  23
ATOM     23  C   UNL     1       0.186  -5.501  -4.774  0.00  0.00    +0.218 C 
ATOM     24  O   UNL     1      -0.996  -5.297  -4.950  0.00  0.00    -0.275 OA
ATOM     25  N   UNL     1       0.967  -5.872  -5.808  0.00  0.00    -0.312 N 
ATOM     26  H   UNL     1       1.913  -6.035  -5.667  0.00  0.00    +0.149 HD
BRANCH  25  27
ATOM     27  C   UNL     1       0.388  -6.029  -7.144  0.00  0.00    +0.070 C 
ATOM     28  C   UNL     1      -0.207  -7.432  -7.280  0.00  0.00    +0.028 C 
BRANCH  27  29
ATOM     29  C   UNL     1       1.478  -5.833  -8.199  0.00  0.00    +0.022 C 
BRANCH  29  30
ATOM     30  C   UNL     1       1.986  -4.391  -8.145  0.00  0.00    +0.005 C 
BRANCH  30  31
ATOM     31  C   UNL     1       3.077  -4.194  -9.200  0.00  0.00    +0.034 C 
BRANCH  31  32
ATOM     32  C   UNL     1       3.585  -2.752  -9.146  0.00  0.00    +0.061 C 
ATOM     33  C   UNL     1       4.584  -2.521 -10.281  0.00  0.00    +0.041 C 
ATOM     34  C   UNL     1       2.405  -1.790  -9.302  0.00  0.00    +0.041 C 
BRANCH  32  35
ATOM     35  O   UNL     1       4.227  -2.520  -7.891  0.00  0.00    -0.389 OA
ATOM     36  H   UNL     1       4.574  -1.623  -7.787  0.00  0.00    +0.210 HD
ENDBRANCH  32  35
ENDBRANCH  31  32
ENDBRANCH  30  31
ENDBRANCH  29  30
ENDBRANCH  27  29
ENDBRANCH  25  27
ENDBRANCH   5  23
TORSDOF 8
