REMARK  Name = ZINC20166114
REMARK  5 active torsions:
REMARK  status: ('A' for Active; 'I' for Inactive)
REMARK    1  A    between atoms: C_8  and  N_10
REMARK    2  A    between atoms: C_16  and  C_18
REMARK    3  A    between atoms: C_18  and  C_19
REMARK    4  A    between atoms: N_21  and  C_22
REMARK    5  A    between atoms: C_22  and  C_23
REMARK                            x       y       z     vdW  Elec       q    Type
REMARK                         _______ _______ _______ _____ _____    ______ ____
ROOT
ATOM      1  N   UNL     1       9.495   4.456  -2.716  0.00  0.00    +0.391 N 
ATOM      2  C   UNL     1      10.790   5.138  -2.862  0.00  0.00    -0.058 C 
ATOM      3  C   UNL     1      10.856   5.770  -4.254  0.00  0.00    +0.085 C 
ATOM      4  N   UNL     1      10.501   4.783  -5.269  0.00  0.00    -0.318 N 
ATOM      5  C   UNL     1       9.844   3.653  -4.986  0.00  0.00    +0.200 C 
ATOM      6  O   UNL     1       9.562   2.902  -5.895  0.00  0.00    -0.278 OA
ATOM      7  C   UNL     1       9.442   3.275  -3.588  0.00  0.00    +0.028 C 
ATOM      8  H   UNL     1      10.774   4.953  -6.321  0.00  0.00    +0.149 HD
ATOM      9  H   UNL     1       8.697   5.149  -3.022  0.00  0.00    -0.080 HD
ENDROOT
BRANCH   1  17
ATOM     10  C   UNL     1       7.617   5.576   2.894  0.00  0.00    +0.000 A 
ATOM     11  C   UNL     1       6.522   4.827   2.507  0.00  0.00    +0.000 A 
ATOM     12  C   UNL     1       6.484   4.261   1.248  0.00  0.00    +0.004 A 
ATOM     13  C   UNL     1       7.541   4.442   0.371  0.00  0.00    -0.046 A 
ATOM     14  C   UNL     1       8.636   5.191   0.758  0.00  0.00    -0.046 A 
ATOM     15  C   UNL     1       8.672   5.757   2.021  0.00  0.00    +0.004 A 
ATOM     16  C   UNL     1       9.646   5.240  -0.368  0.00  0.00    +0.020 C 
ATOM     17  C   UNL     1       9.251   4.087  -1.315  0.00  0.00    -0.059 C 
ATOM     18  C   UNL     1       7.740   3.932  -1.044  0.00  0.00    +0.020 C 
ENDBRANCH   1  17
BRANCH   7  19
ATOM     19  C   UNL     1       8.018   2.717  -3.603  0.00  0.00    +0.089 C 
BRANCH  19  20
ATOM     20  C   UNL     1       7.059   3.798  -4.033  0.00  0.00    +0.212 C 
ATOM     21  O   UNL     1       7.483   4.878  -4.386  0.00  0.00    -0.276 OA
ATOM     22  N   UNL     1       5.732   3.564  -4.025  0.00  0.00    -0.311 N 
ATOM     23  H   UNL     1       5.343   2.615  -3.627  0.00  0.00    +0.149 HD
BRANCH  22  24
ATOM     24  C   UNL     1       4.807   4.574  -4.546  0.00  0.00    +0.139 C 
BRANCH  24  25
ATOM     25  C   UNL     1       3.405   4.023  -4.537  0.00  0.00    -0.027 A 
ATOM     26  C   UNL     1       2.923   3.345  -5.641  0.00  0.00    +0.009 A 
ATOM     27  C   UNL     1       1.637   2.837  -5.637  0.00  0.00    +0.050 A 
ATOM     28  C   UNL     1       0.828   3.006  -4.525  0.00  0.00    +0.166 A 
ATOM     29  C   UNL     1       1.313   3.690  -3.413  0.00  0.00    +0.167 A 
ATOM     30  C   UNL     1       2.603   4.196  -3.424  0.00  0.00    +0.054 A 
ATOM     31  O   UNL     1       0.336   3.722  -2.461  0.00  0.00    -0.453 OA
ATOM     32  C   UNL     1      -0.887   3.411  -3.153  0.00  0.00    +0.466 C 
ATOM     33  O   UNL     1      -0.453   2.611  -4.270  0.00  0.00    -0.453 OA
ENDBRANCH  24  25
ENDBRANCH  22  24
ENDBRANCH  19  20
ENDBRANCH   7  19
TORSDOF 5
