REMARK  Name = ZINC67622813
REMARK  9 active torsions:
REMARK  status: ('A' for Active; 'I' for Inactive)
REMARK    1  A    between atoms: C_1  and  C_2
REMARK    2  A    between atoms: C_2  and  C_3
REMARK    3  A    between atoms: C_2  and  C_4
REMARK    4  A    between atoms: C_4  and  C_6
REMARK    5  A    between atoms: C_4  and  N_22
REMARK    6  A    between atoms: C_6  and  N_7
REMARK    7  A    between atoms: N_10  and  C_11
REMARK    8  A    between atoms: N_16  and  S_18
REMARK    9  A    between atoms: S_18  and  C_21
REMARK                            x       y       z     vdW  Elec       q    Type
REMARK                         _______ _______ _______ _____ _____    ______ ____
ROOT
ATOM      1  N   UNL     1      -3.417  -0.678  -1.340  0.00  0.00    -0.301 N 
ATOM      2  C   UNL     1      -4.130  -0.601  -2.481  0.00  0.00    +0.300 C 
ATOM      3  O   UNL     1      -3.628  -0.125  -3.480  0.00  0.00    -0.253 OA
ATOM      4  N   UNL     1      -5.400  -1.053  -2.514  0.00  0.00    -0.295 N 
ATOM      5  H   UNL     1      -3.818  -1.058  -0.542  0.00  0.00    +0.150 HD
ATOM      6  H   UNL     1      -5.800  -1.433  -1.716  0.00  0.00    +0.151 HD
ENDROOT
BRANCH   4   7
ATOM      7  C   UNL     1      -6.175  -0.969  -3.754  0.00  0.00    +0.090 C 
ATOM      8  C   UNL     1      -5.875  -2.190  -4.627  0.00  0.00    +0.025 C 
ATOM      9  C   UNL     1      -6.659  -2.087  -5.938  0.00  0.00    +0.019 C 
ATOM     10  C   UNL     1      -8.159  -2.069  -5.630  0.00  0.00    +0.109 C 
ATOM     11  N   UNL     1      -8.434  -0.986  -4.676  0.00  0.00    -0.180 NA
ATOM     12  C   UNL     1      -7.670  -0.938  -3.422  0.00  0.00    +0.131 C 
BRANCH  11  13
ATOM     13  S   UNL     1      -9.583   0.160  -5.008  0.00  0.00    +0.029 S 
ATOM     14  O   UNL     1      -9.177   1.304  -4.270  0.00  0.00    -0.158 OA
ATOM     15  O   UNL     1      -9.655   0.200  -6.426  0.00  0.00    -0.158 OA
ATOM     16  C   UNL     1     -11.122  -0.512  -4.323  0.00  0.00    +0.215 C 
ENDBRANCH  11  13
ENDBRANCH   4   7
BRANCH   1  17
ATOM     17  C   UNL     1      -2.037  -0.188  -1.304  0.00  0.00    +0.091 C 
BRANCH  17  18
ATOM     18  C   UNL     1      -1.406  -0.538   0.046  0.00  0.00    -0.048 C 
BRANCH  18  19
ATOM     19  N   UNL     1      -1.176  -1.987   0.117  0.00  0.00    +0.383 N 
ATOM     20  C   UNL     1      -0.324  -2.387  -1.020  0.00  0.00    -0.078 C 
ATOM     21  C   UNL     1       0.396  -3.660  -0.648  0.00  0.00    -0.019 C 
ATOM     22  C   UNL     1      -0.345  -4.901  -1.179  0.00  0.00    -0.002 C 
ATOM     23  C   UNL     1      -1.873  -4.769  -1.017  0.00  0.00    -0.002 C 
ATOM     24  C   UNL     1      -2.260  -4.163   0.308  0.00  0.00    -0.019 C 
ATOM     25  C   UNL     1      -2.411  -2.637   0.138  0.00  0.00    -0.078 C 
ATOM     26  H   UNL     1      -0.686  -2.195   0.974  0.00  0.00    -0.081 HD
ENDBRANCH  18  19
BRANCH  18  28
ATOM     27  C   UNL     1      -0.327   1.706   0.251  0.00  0.00    +0.005 C 
ATOM     28  C   UNL     1      -0.073   0.198   0.192  0.00  0.00    -0.029 C 
ATOM     29  C   UNL     1       0.620  -0.253   1.479  0.00  0.00    +0.005 C 
ENDBRANCH  18  28
ENDBRANCH  17  18
ENDBRANCH   1  17
TORSDOF 6
