REMARK  Name = ZINC03347943
REMARK  5 active torsions:
REMARK  status: ('A' for Active; 'I' for Inactive)
REMARK    1  A    between atoms: C_1  and  C_2
REMARK    2  A    between atoms: C_5  and  C_14
REMARK    3  A    between atoms: C_12  and  C_13
REMARK    4  A    between atoms: C_14  and  S_15
REMARK    5  A    between atoms: S_15  and  C_16
REMARK                            x       y       z     vdW  Elec       q    Type
REMARK                         _______ _______ _______ _____ _____    ______ ____
ROOT
ATOM      1  C   UNL     1      -4.191   2.156   5.023  0.00  0.00    +0.044 C 
ATOM      2  C   UNL     1      -4.784   2.553   3.696  0.00  0.00    -0.047 A 
ATOM      3  C   UNL     1      -4.170   2.162   2.527  0.00  0.00    +0.015 A 
ATOM      4  C   UNL     1      -4.724   2.532   1.298  0.00  0.00    +0.022 A 
ATOM      5  C   UNL     1      -4.097   2.132   0.035  0.00  0.00    -0.020 A 
ATOM      6  C   UNL     1      -4.687   2.519  -1.124  0.00  0.00    +0.097 A 
ATOM      7  C   UNL     1      -5.870   3.289  -1.087  0.00  0.00    +0.338 A 
ATOM      8  O   UNL     1      -6.389   3.630  -2.134  0.00  0.00    -0.245 OA
ATOM      9  O   UNL     1      -6.435   3.655   0.074  0.00  0.00    -0.422 OA
ATOM     10  C   UNL     1      -5.899   3.304   1.262  0.00  0.00    +0.140 A 
ATOM     11  C   UNL     1      -6.498   3.692   2.453  0.00  0.00    +0.050 A 
ATOM     12  C   UNL     1      -5.946   3.310   3.658  0.00  0.00    -0.044 A 
ATOM     13  C   UNL     1      -6.604   3.730   4.947  0.00  0.00    +0.044 C 
ENDROOT
BRANCH   5  14
ATOM     14  C   UNL     1      -2.834   1.310   0.024  0.00  0.00    +0.112 C 
BRANCH  14  15
ATOM     15  S   UNL     1      -1.394   2.413   0.022  0.00  0.00    -0.092 S 
BRANCH  15  16
ATOM     16  C   UNL     1      -0.016   1.315   0.009  0.00  0.00    +0.160 A 
ATOM     17  N   UNL     1       0.002  -0.004   0.002  0.00  0.00    -0.133 NA
ATOM     18  N   UNL     1       1.205  -0.672  -0.013  0.00  0.00    -0.125 NA
ATOM     19  C   UNL     1       2.334   0.009  -0.020  0.00  0.00    +0.180 A 
ATOM     20  S   UNL     1       1.730   1.690  -0.005  0.00  0.00    -0.025 S 
ATOM     21  N   UNL     1       3.643  -0.457  -0.035  0.00  0.00    -0.336 N 
ATOM     22  H   UNL     1       3.819  -1.411  -0.041  0.00  0.00    +0.144 HD
ATOM     23  H   UNL     1       4.382   0.172  -0.039  0.00  0.00    +0.144 HD
ENDBRANCH  15  16
ENDBRANCH  14  15
ENDBRANCH   5  14
TORSDOF 3
