REMARK  Name = ZINC50661722
REMARK  5 active torsions:
REMARK  status: ('A' for Active; 'I' for Inactive)
REMARK    1  A    between atoms: C_3  and  N_22
REMARK    2  A    between atoms: C_4  and  S_10
REMARK    3  A    between atoms: C_6  and  N_7
REMARK    4  A    between atoms: S_10  and  N_13
REMARK    5  A    between atoms: N_13  and  C_14
REMARK                            x       y       z     vdW  Elec       q    Type
REMARK                         _______ _______ _______ _____ _____    ______ ____
ROOT
ATOM      1  S   UNL     1       4.537  -1.264   0.324  0.00  0.00    +0.061 S 
ATOM      2  O   UNL     1       5.729  -1.054   1.067  0.00  0.00    -0.153 OA
ATOM      3  O   UNL     1       3.892  -2.529   0.259  0.00  0.00    -0.153 OA
ENDROOT
BRANCH   1   7
ATOM      4  C   UNL     1       1.477   1.669   1.926  0.00  0.00    +0.034 A 
ATOM      5  C   UNL     1       1.137   0.822   0.889  0.00  0.00    +0.027 A 
ATOM      6  C   UNL     1       2.072  -0.078   0.395  0.00  0.00    +0.051 A 
ATOM      7  C   UNL     1       3.347  -0.124   0.946  0.00  0.00    +0.128 A 
ATOM      8  C   UNL     1       3.680   0.725   1.983  0.00  0.00    +0.063 A 
ATOM      9  C   UNL     1       2.746   1.621   2.473  0.00  0.00    +0.128 A 
BRANCH   9  10
ATOM     10  N   UNL     1       3.106   2.529   3.584  0.00  0.00    +0.056 N 
ATOM     11  O   UNL     1       2.291   3.312   4.013  0.00  0.00    -0.126 OA
ATOM     12  O   UNL     1       4.215   2.488   4.063  0.00  0.00    -0.126 OA
ENDBRANCH   9  10
BRANCH   6  13
ATOM     13  N   UNL     1       1.732  -0.935  -0.654  0.00  0.00    -0.356 N 
ATOM     14  H   UNL     1       0.804  -1.036  -0.916  0.00  0.00    +0.142 HD
ATOM     15  H   UNL     1       2.425  -1.430  -1.120  0.00  0.00    +0.142 HD
ENDBRANCH   6  13
ENDBRANCH   1   7
BRANCH   1  16
ATOM     16  N   UNL     1       4.869  -0.822  -1.238  0.00  0.00    -0.178 NA
ATOM     17  H   UNL     1       4.632  -1.413  -1.970  0.00  0.00    +0.149 HD
BRANCH  16  18
ATOM     18  C   UNL     1       5.520   0.461  -1.513  0.00  0.00    +0.162 C 
ATOM     19  C   UNL     1       6.919   0.209  -2.082  0.00  0.00    +0.031 C 
ATOM     20  C   UNL     1       7.470   1.537  -2.616  0.00  0.00    +0.021 C 
ATOM     21  C   UNL     1       6.645   1.956  -3.833  0.00  0.00    +0.104 C 
ATOM     22  N   UNL     1       5.222   1.916  -3.523  0.00  0.00    -0.314 N 
ATOM     23  C   UNL     1       4.699   1.235  -2.504  0.00  0.00    +0.232 C 
ATOM     24  O   UNL     1       3.493   1.242  -2.369  0.00  0.00    -0.274 OA
ATOM     25  H   UNL     1       4.617   2.416  -4.094  0.00  0.00    +0.149 HD
ENDBRANCH  16  18
ENDBRANCH   1  16
TORSDOF 5
