REMARK  Name = ZINC66487976
REMARK  5 active torsions:
REMARK  status: ('A' for Active; 'I' for Inactive)
REMARK    1  A    between atoms: C_1  and  O_2
REMARK    2  A    between atoms: O_2  and  C_3
REMARK    3  A    between atoms: N_5  and  C_6
REMARK    4  A    between atoms: C_8  and  N_13
REMARK    5  A    between atoms: C_14  and  C_16
REMARK                            x       y       z     vdW  Elec       q    Type
REMARK                         _______ _______ _______ _____ _____    ______ ____
ROOT
ATOM      1  N   UNL     1      -6.010  -1.900   0.265  0.00  0.00    -0.282 N 
ATOM      2  C   UNL     1      -7.164  -2.564   0.474  0.00  0.00    +0.259 C 
ATOM      3  O   UNL     1      -7.163  -3.775   0.542  0.00  0.00    -0.271 OA
ATOM      4  H   UNL     1      -6.021  -0.940   0.126  0.00  0.00    +0.155 HD
ENDROOT
BRANCH   2   5
ATOM      5  C   UNL     1      -8.456  -1.802   0.623  0.00  0.00    +0.269 C 
ATOM      6  C   UNL     1      -8.403  -0.945   1.898  0.00  0.00    +0.128 C 
ATOM      7  S   UNL     1      -9.908   0.079   1.913  0.00  0.00    -0.117 S 
ATOM      8  C   UNL     1     -11.159  -1.068   1.425  0.00  0.00    +0.050 A 
ATOM      9  C   UNL     1     -12.494  -0.723   1.591  0.00  0.00    +0.018 A 
ATOM     10  C   UNL     1     -13.491  -1.600   1.209  0.00  0.00    +0.001 A 
ATOM     11  C   UNL     1     -13.155  -2.823   0.659  0.00  0.00    +0.004 A 
ATOM     12  C   UNL     1     -11.830  -3.172   0.494  0.00  0.00    +0.047 A 
ATOM     13  C   UNL     1     -10.814  -2.300   0.881  0.00  0.00    +0.135 A 
ATOM     14  O   UNL     1      -9.537  -2.716   0.721  0.00  0.00    -0.478 OA
ENDBRANCH   2   5
BRANCH   1  17
ATOM     15  C   UNL     1      -2.514  -2.784  -0.478  0.00  0.00    +0.073 A 
ATOM     16  C   UNL     1      -3.716  -2.092  -0.464  0.00  0.00    +0.049 A 
ATOM     17  C   UNL     1      -4.795  -2.596   0.249  0.00  0.00    +0.035 A 
ATOM     18  C   UNL     1      -4.668  -3.790   0.947  0.00  0.00    +0.026 A 
ATOM     19  C   UNL     1      -3.470  -4.477   0.933  0.00  0.00    +0.042 A 
ATOM     20  C   UNL     1      -2.394  -3.981   0.218  0.00  0.00    +0.145 A 
ATOM     21  F   UNL     1      -1.225  -4.658   0.201  0.00  0.00    -0.204 F 
BRANCH  15  24
ATOM     22  C   UNL     1      -1.227  -0.948  -1.278  0.00  0.00    +0.404 C 
ATOM     23  O   UNL     1      -2.042  -0.183  -0.800  0.00  0.00    -0.226 OA
ATOM     24  N   UNL     1      -1.423  -2.279  -1.197  0.00  0.00    -0.248 N 
ATOM     25  H   UNL     1      -0.808  -2.887  -1.637  0.00  0.00    +0.158 HD
BRANCH  22  27
ATOM     26  C   UNL     1       0.015   0.956  -1.939  0.00  0.00    +0.282 C 
ATOM     27  O   UNL     1      -0.129  -0.465  -1.889  0.00  0.00    -0.453 OA
ENDBRANCH  22  27
ENDBRANCH  15  24
ENDBRANCH   1  17
TORSDOF 4
