REMARK  Name = ZINC39760437
REMARK  7 active torsions:
REMARK  status: ('A' for Active; 'I' for Inactive)
REMARK    1  A    between atoms: C_1  and  C_2
REMARK    2  A    between atoms: C_2  and  N_3
REMARK    3  A    between atoms: C_7  and  C_9
REMARK    4  A    between atoms: C_9  and  S_10
REMARK    5  A    between atoms: S_10  and  C_11
REMARK    6  A    between atoms: C_15  and  C_20
REMARK    7  A    between atoms: N_16  and  C_17
REMARK                            x       y       z     vdW  Elec       q    Type
REMARK                         _______ _______ _______ _____ _____    ______ ____
ROOT
ATOM      1  C   UNL     1       3.155  -6.215  -5.508  0.00  0.00    +0.237 C 
ATOM      2  N   UNL     1       4.421  -5.467  -5.434  0.00  0.00    -0.237 N 
ATOM      3  N   UNL     1       4.526  -4.744  -6.628  0.00  0.00    -0.169 NA
ATOM      4  C   UNL     1       3.497  -4.958  -7.404  0.00  0.00    +0.147 C 
ATOM      5  N   UNL     1       2.590  -5.848  -6.817  0.00  0.00    -0.282 N 
ATOM      6  H   UNL     1       5.057  -5.474  -4.701  0.00  0.00    +0.171 HD
ENDROOT
BRANCH   4   7
ATOM      7  C   UNL     1       3.324  -4.370  -8.667  0.00  0.00    +0.022 C 
ATOM      8  C   UNL     1       4.229  -3.558  -9.351  0.00  0.00    +0.006 A 
ATOM      9  C   UNL     1       5.521  -3.091  -9.031  0.00  0.00    +0.010 A 
ATOM     10  C   UNL     1       6.186  -2.296  -9.908  0.00  0.00    +0.001 A 
ATOM     11  C   UNL     1       5.622  -1.922 -11.129  0.00  0.00    +0.002 A 
ATOM     12  C   UNL     1       4.385  -2.334 -11.502  0.00  0.00    +0.026 A 
ATOM     13  C   UNL     1       3.629  -3.168 -10.637  0.00  0.00    +0.043 A 
ATOM     14  N   UNL     1       2.427  -3.694 -10.765  0.00  0.00    -0.380 N 
ATOM     15  C   UNL     1       2.118  -4.490  -9.573  0.00  0.00    +0.152 C 
ATOM     16  H   UNL     1       1.841  -3.576 -11.529  0.00  0.00    +0.160 HD
ENDBRANCH   4   7
BRANCH   5  17
ATOM     17  C   UNL     1       1.327  -6.321  -7.390  0.00  0.00    +0.078 C 
ATOM     18  C   UNL     1       0.454  -7.229  -6.521  0.00  0.00    +0.024 C 
ATOM     19  C   UNL     1       1.214  -7.812  -7.715  0.00  0.00    +0.024 C 
ENDBRANCH   5  17
BRANCH   1  20
ATOM     20  S   UNL     1       2.039  -5.707  -4.171  0.00  0.00    -0.109 S 
BRANCH  20  21
ATOM     21  C   UNL     1       1.867  -3.916  -4.399  0.00  0.00    +0.168 C 
BRANCH  21  26
ATOM     22  N   UNL     1      -0.419  -0.225  -2.334  0.00  0.00    -0.299 N 
ATOM     23  C   UNL     1      -0.143  -1.544  -2.362  0.00  0.00    +0.306 C 
ATOM     24  O   UNL     1      -0.631  -2.285  -1.532  0.00  0.00    -0.252 OA
ATOM     25  N   UNL     1       0.675  -2.041  -3.311  0.00  0.00    -0.240 N 
ATOM     26  C   UNL     1       0.952  -3.360  -3.338  0.00  0.00    +0.230 C 
ATOM     27  O   UNL     1       0.464  -4.099  -2.510  0.00  0.00    -0.274 OA
ATOM     28  H   UNL     1      -0.029   0.366  -2.997  0.00  0.00    +0.150 HD
ATOM     29  H   UNL     1       1.065  -1.450  -3.973  0.00  0.00    +0.159 HD
BRANCH  22  31
ATOM     30  C   UNL     1      -1.454   1.826  -1.496  0.00  0.00    +0.024 C 
ATOM     31  C   UNL     1      -1.308   0.316  -1.303  0.00  0.00    +0.102 C 
ENDBRANCH  22  31
ENDBRANCH  21  26
ENDBRANCH  20  21
ENDBRANCH   1  20
TORSDOF 6
