REMARK  Name = ZINC54103813
REMARK  6 active torsions:
REMARK  status: ('A' for Active; 'I' for Inactive)
REMARK    1  A    between atoms: C_9  and  N_11
REMARK    2  A    between atoms: N_14  and  C_15
REMARK    3  A    between atoms: C_15  and  C_16
REMARK    4  A    between atoms: C_16  and  N_17
REMARK    5  A    between atoms: N_17  and  C_18
REMARK    6  A    between atoms: C_21  and  N_24
REMARK                            x       y       z     vdW  Elec       q    Type
REMARK                         _______ _______ _______ _____ _____    ______ ____
ROOT
ATOM      1  N   UNL     1       4.147  -1.058   1.302  0.00  0.00    -0.293 N 
ATOM      2  C   UNL     1       5.090  -0.183   1.704  0.00  0.00    +0.300 C 
ATOM      3  O   UNL     1       5.457   0.702   0.956  0.00  0.00    -0.253 OA
ATOM      4  N   UNL     1       5.626  -0.289   2.936  0.00  0.00    -0.298 N 
ATOM      5  H   UNL     1       3.854  -1.764   1.899  0.00  0.00    +0.151 HD
ATOM      6  H   UNL     1       5.333  -0.996   3.533  0.00  0.00    +0.150 HD
ENDROOT
BRANCH   1  15
ATOM      7  C   UNL     1      -0.017   1.377   0.010  0.00  0.00    +0.000 A 
ATOM      8  C   UNL     1       1.172   2.083   0.002  0.00  0.00    +0.000 A 
ATOM      9  C   UNL     1       2.376   1.406  -0.013  0.00  0.00    +0.006 A 
ATOM     10  C   UNL     1       2.396   0.021  -0.021  0.00  0.00    -0.024 A 
ATOM     11  C   UNL     1       1.208  -0.685  -0.013  0.00  0.00    -0.042 A 
ATOM     12  C   UNL     1       0.002  -0.004   0.002  0.00  0.00    +0.004 A 
ATOM     13  C   UNL     1       1.496  -2.171  -0.025  0.00  0.00    +0.037 C 
ATOM     14  C   UNL     1       2.966  -2.294  -0.480  0.00  0.00    +0.032 C 
ATOM     15  C   UNL     1       3.564  -0.942  -0.037  0.00  0.00    +0.105 C 
ENDBRANCH   1  15
BRANCH   4  16
ATOM     16  C   UNL     1       6.651   0.662   3.373  0.00  0.00    +0.124 C 
BRANCH  16  17
ATOM     17  C   UNL     1       7.088   0.321   4.800  0.00  0.00    +0.120 C 
BRANCH  17  18
ATOM     18  N   UNL     1       8.113   1.272   5.237  0.00  0.00    -0.342 N 
ATOM     19  H   UNL     1       8.405   1.978   4.640  0.00  0.00    +0.146 HD
BRANCH  18  20
ATOM     20  C   UNL     1       8.668   1.161   6.514  0.00  0.00    +0.027 A 
ATOM     21  C   UNL     1       8.254   0.147   7.368  0.00  0.00    +0.025 A 
ATOM     22  C   UNL     1       8.806   0.041   8.629  0.00  0.00    +0.034 A 
ATOM     23  C   UNL     1       9.770   0.942   9.043  0.00  0.00    +0.126 A 
ATOM     24  C   UNL     1      10.184   1.953   8.195  0.00  0.00    +0.034 A 
ATOM     25  C   UNL     1       9.640   2.062   6.930  0.00  0.00    +0.025 A 
BRANCH  23  26
ATOM     26  N   UNL     1      10.358   0.825  10.396  0.00  0.00    +0.056 N 
ATOM     27  O   UNL     1       9.997  -0.058  11.138  0.00  0.00    -0.126 OA
ATOM     28  O   UNL     1      11.201   1.613  10.758  0.00  0.00    -0.126 OA
ENDBRANCH  23  26
ENDBRANCH  18  20
ENDBRANCH  17  18
ENDBRANCH  16  17
ENDBRANCH   4  16
TORSDOF 6
