REMARK  Name = ZINC36195362
REMARK  5 active torsions:
REMARK  status: ('A' for Active; 'I' for Inactive)
REMARK    1  A    between atoms: C_1  and  C_2
REMARK    2  A    between atoms: C_2  and  N_3
REMARK    3  A    between atoms: N_3  and  C_4
REMARK    4  A    between atoms: C_9  and  S_15
REMARK    5  A    between atoms: S_15  and  C_16
REMARK                            x       y       z     vdW  Elec       q    Type
REMARK                         _______ _______ _______ _____ _____    ______ ____
ROOT
ATOM      1  C   UNL     1       0.701  -1.942  -1.224  0.00  0.00    +0.049 C 
ATOM      2  C   UNL     1       1.338  -2.458  -2.494  0.00  0.00    -0.031 A 
ATOM      3  C   UNL     1       1.006  -2.333  -3.825  0.00  0.00    +0.005 A 
ATOM      4  C   UNL     1       1.794  -2.926  -4.793  0.00  0.00    +0.015 A 
ATOM      5  C   UNL     1       2.921  -3.649  -4.417  0.00  0.00    +0.017 A 
ATOM      6  C   UNL     1       3.254  -3.776  -3.078  0.00  0.00    +0.038 A 
ATOM      7  C   UNL     1       2.461  -3.177  -2.102  0.00  0.00    +0.036 A 
ATOM      8  N   UNL     1       2.585  -3.160  -0.712  0.00  0.00    -0.286 N 
ATOM      9  C   UNL     1       1.597  -2.462  -0.120  0.00  0.00    +0.208 C 
ATOM     10  O   UNL     1       1.452  -2.281   1.070  0.00  0.00    -0.277 OA
ATOM     11  H   UNL     1       3.300  -3.601  -0.228  0.00  0.00    +0.155 HD
ENDROOT
BRANCH   1  12
ATOM     12  N   UNL     1       0.678  -0.473  -1.220  0.00  0.00    +0.389 N 
ATOM     13  H   UNL     1       0.190  -0.142  -2.038  0.00  0.00    -0.084 HD
ATOM     14  H   UNL     1       1.624  -0.122  -1.227  0.00  0.00    -0.084 HD
BRANCH  12  16
ATOM     15  C   UNL     1      -0.036   1.532  -0.008  0.00  0.00    -0.017 C 
ATOM     16  C   UNL     1      -0.012   0.003  -0.013  0.00  0.00    -0.085 C 
ENDBRANCH  12  16
ENDBRANCH   1  12
BRANCH   5  17
ATOM     17  S   UNL     1       3.928  -4.408  -5.648  0.00  0.00    -0.052 S 
BRANCH  17  18
ATOM     18  C   UNL     1       5.025  -3.125  -6.152  0.00  0.00    +0.174 A 
ATOM     19  N   UNL     1       5.000  -1.967  -5.522  0.00  0.00    -0.231 NA
ATOM     20  C   UNL     1       5.812  -0.972  -5.871  0.00  0.00    +0.119 A 
ATOM     21  C   UNL     1       6.696  -1.137  -6.898  0.00  0.00    +0.090 A 
ATOM     22  C   UNL     1       6.730  -2.369  -7.575  0.00  0.00    +0.252 A 
ATOM     23  N   UNL     1       5.889  -3.349  -7.181  0.00  0.00    -0.302 N 
ATOM     24  O   UNL     1       7.507  -2.550  -8.498  0.00  0.00    -0.268 OA
ATOM     25  H   UNL     1       5.898  -4.208  -7.631  0.00  0.00    +0.171 HD
ENDBRANCH  17  18
ENDBRANCH   5  17
TORSDOF 4
