REMARK  Name = ZINC39529946
REMARK  7 active torsions:
REMARK  status: ('A' for Active; 'I' for Inactive)
REMARK    1  A    between atoms: C_1  and  O_2
REMARK    2  A    between atoms: O_2  and  C_3
REMARK    3  A    between atoms: N_6  and  C_10
REMARK    4  A    between atoms: C_13  and  S_23
REMARK    5  A    between atoms: C_15  and  C_16
REMARK    6  A    between atoms: C_21  and  O_22
REMARK    7  A    between atoms: S_23  and  C_24
REMARK                            x       y       z     vdW  Elec       q    Type
REMARK                         _______ _______ _______ _____ _____    ______ ____
ROOT
ATOM      1  C   UNL     1       2.508  -3.469  -2.098  0.00  0.00    +0.038 A 
ATOM      2  C   UNL     1       2.384  -4.825  -1.834  0.00  0.00    +0.025 A 
ATOM      3  C   UNL     1       3.497  -5.642  -1.861  0.00  0.00    +0.016 A 
ATOM      4  C   UNL     1       4.748  -5.111  -2.153  0.00  0.00    +0.008 A 
ATOM      5  C   UNL     1       4.885  -3.756  -2.418  0.00  0.00    +0.025 A 
ATOM      6  C   UNL     1       3.764  -2.929  -2.398  0.00  0.00    +0.008 A 
ENDROOT
BRANCH   1   9
ATOM      7  C   UNL     1      -0.823  -2.593  -3.114  0.00  0.00    +0.203 C 
ATOM      8  C   UNL     1       0.668  -2.296  -3.308  0.00  0.00    +0.152 C 
ATOM      9  N   UNL     1       1.380  -2.644  -2.070  0.00  0.00    -0.324 N 
ATOM     10  C   UNL     1       0.873  -2.101  -0.800  0.00  0.00    +0.120 C 
ATOM     11  C   UNL     1      -0.626  -2.406  -0.704  0.00  0.00    +0.102 C 
ATOM     12  N   UNL     1      -1.303  -1.905  -1.907  0.00  0.00    -0.289 NA
ATOM     13  H   UNL     1      -1.194  -0.906  -1.993  0.00  0.00    +0.124 HD
BRANCH   7  15
ATOM     14  C   UNL     1      -2.919  -2.553  -4.276  0.00  0.00    +0.196 C 
ATOM     15  O   UNL     1      -1.554  -2.129  -4.250  0.00  0.00    -0.363 OA
ENDBRANCH   7  15
ENDBRANCH   1   9
BRANCH   6  16
ATOM     16  C   UNL     1       3.902  -1.482  -2.687  0.00  0.00    +0.025 A 
ATOM     17  C   UNL     1       4.239  -1.054  -3.969  0.00  0.00    +0.012 A 
ATOM     18  C   UNL     1       4.366   0.295  -4.234  0.00  0.00    +0.001 A 
ATOM     19  C   UNL     1       4.160   1.224  -3.229  0.00  0.00    +0.004 A 
ATOM     20  C   UNL     1       3.825   0.810  -1.954  0.00  0.00    +0.046 A 
ATOM     21  C   UNL     1       3.688  -0.540  -1.676  0.00  0.00    +0.125 A 
BRANCH  21  22
ATOM     22  O   UNL     1       3.354  -0.948  -0.424  0.00  0.00    -0.506 OA
ATOM     23  H   UNL     1       4.112  -1.105   0.155  0.00  0.00    +0.292 HD
ENDBRANCH  21  22
ENDBRANCH   6  16
BRANCH   4  24
ATOM     24  S   UNL     1       6.164  -6.160  -2.185  0.00  0.00    -0.129 S 
ATOM     25  C   UNL     1       5.502  -7.801  -1.785  0.00  0.00    +0.090 C 
ENDBRANCH   4  24
TORSDOF 5
