REMARK  Name = ZINC35667393
REMARK  10 active torsions:
REMARK  status: ('A' for Active; 'I' for Inactive)
REMARK    1  A    between atoms: C_1  and  C_2
REMARK    2  A    between atoms: C_2  and  O_3
REMARK    3  A    between atoms: O_3  and  C_4
REMARK    4  A    between atoms: C_6  and  C_20
REMARK    5  A    between atoms: C_9  and  O_10
REMARK    6  A    between atoms: O_10  and  C_11
REMARK    7  A    between atoms: C_11  and  C_12
REMARK    8  A    between atoms: CA_21  and  C_22
REMARK    9  A    between atoms: CA_21  and  N_25
REMARK   10  A    between atoms: C_26  and  C_28
REMARK                            x       y       z     vdW  Elec       q    Type
REMARK                         _______ _______ _______ _____ _____    ______ ____
ROOT
ATOM      1  C   UNL     1       0.539  -1.796  -1.433  0.00  0.00    +0.164 A 
ATOM      2  C   UNL     1       0.003  -2.652  -0.491  0.00  0.00    +0.057 A 
ATOM      3  C   UNL     1       0.274  -4.024  -0.561  0.00  0.00    -0.018 A 
ATOM      4  C   UNL     1       1.087  -4.521  -1.588  0.00  0.00    +0.027 A 
ATOM      5  C   UNL     1       1.617  -3.659  -2.524  0.00  0.00    +0.064 A 
ATOM      6  C   UNL     1       1.342  -2.299  -2.455  0.00  0.00    +0.176 A 
ATOM      7 BR   UNL     1       2.715  -4.331  -3.909  0.00  0.00    -0.046 Br
ENDROOT
BRANCH   3   8
ATOM      8  C   UNL     1      -0.292  -4.939   0.438  0.00  0.00    +0.038 C 
ATOM      9  CA  UNL     1      -0.742  -6.162   0.060  0.00  0.00    +0.123 C 
BRANCH   9  10
ATOM     10  N   UNL     1      -1.315  -7.021   1.008  0.00  0.00    -0.280 N 
ATOM     11  C   UNL     1      -1.869  -8.185   0.614  0.00  0.00    +0.214 C 
ATOM     12  O   UNL     1      -1.806  -8.524  -0.549  0.00  0.00    -0.276 OA
ATOM     13  C   UNL     1      -2.567  -9.065   1.618  0.00  0.00    +0.109 C 
ATOM     14  H   UNL     1      -1.313  -6.778   1.947  0.00  0.00    +0.155 HD
ENDBRANCH   9  10
BRANCH   9  15
ATOM     15  C   UNL     1      -0.630  -6.583  -1.336  0.00  0.00    +0.400 C 
ATOM     16  O   UNL     1       0.289  -7.315  -1.683  0.00  0.00    -0.239 OA
ATOM     17  OXT UNL     1      -1.454  -6.205  -2.159  0.00  0.00    -0.239 OA
ENDBRANCH   9  15
ENDBRANCH   3   8
BRANCH   1  18
ATOM     18  O   UNL     1       0.277  -0.463  -1.367  0.00  0.00    -0.489 OA
BRANCH  18  20
ATOM     19  C   UNL     1      -0.734   1.499  -0.385  0.00  0.00    +0.048 C 
ATOM     20  C   UNL     1      -0.554  -0.017  -0.294  0.00  0.00    +0.226 C 
ENDBRANCH  18  20
ENDBRANCH   1  18
BRANCH   6  21
ATOM     21  O   UNL     1       1.863  -1.455  -3.384  0.00  0.00    -0.483 OA
BRANCH  21  22
ATOM     22  C   UNL     1       3.143  -0.887  -3.099  0.00  0.00    +0.265 C 
BRANCH  22  23
ATOM     23  C   UNL     1       3.556   0.015  -4.234  0.00  0.00    +0.004 A 
ATOM     24  C   UNL     1       2.722   0.181  -5.324  0.00  0.00    +0.008 A 
ATOM     25  C   UNL     1       3.100   1.009  -6.364  0.00  0.00    +0.000 A 
ATOM     26  C   UNL     1       4.313   1.671  -6.315  0.00  0.00    +0.001 A 
ATOM     27  C   UNL     1       5.147   1.506  -5.226  0.00  0.00    +0.015 A 
ATOM     28  C   UNL     1       4.767   0.681  -4.182  0.00  0.00    +0.024 A 
ATOM     29 BR   UNL     1       5.905   0.460  -2.688  0.00  0.00    -0.050 Br
ENDBRANCH  22  23
ENDBRANCH  21  22
ENDBRANCH   6  21
TORSDOF 8
