REMARK  Name = ZINC01588542
REMARK  4 active torsions:
REMARK  status: ('A' for Active; 'I' for Inactive)
REMARK    1  A    between atoms: C_1  and  C_2
REMARK    2  A    between atoms: C_6  and  C_17
REMARK    3  A    between atoms: C_7  and  N_8
REMARK    4  A    between atoms: N_15  and  C_16
REMARK                            x       y       z     vdW  Elec       q    Type
REMARK                         _______ _______ _______ _____ _____    ______ ____
ROOT
ATOM      1  N   UNL     1       0.026  -0.014   2.418  0.00  0.00    -0.251 N 
ATOM      2  C   UNL     1       1.201   0.334   3.005  0.00  0.00    +0.212 A 
ATOM      3  N   UNL     1       1.196   0.986   4.141  0.00  0.00    -0.204 NA
ATOM      4  C   UNL     1       0.037   1.303   4.737  0.00  0.00    +0.221 A 
ATOM      5  N   UNL     1      -1.119   0.966   4.182  0.00  0.00    -0.159 NA
ATOM      6  C   UNL     1      -1.138   0.307   3.021  0.00  0.00    +0.357 A 
ATOM      7  O   UNL     1      -2.200  -0.004   2.509  0.00  0.00    -0.244 OA
ATOM      8  N   UNL     1       0.048   1.980   5.931  0.00  0.00    -0.316 N 
ATOM      9  C   UNL     1       1.323   2.355   6.548  0.00  0.00    +0.128 C 
ATOM     10  H   UNL     1      -0.788   2.211   6.365  0.00  0.00    +0.149 HD
ENDROOT
BRANCH   1  17
ATOM     11  C   UNL     1      -0.018   1.503   0.010  0.00  0.00    +0.046 C 
ATOM     12  C   UNL     1       0.002  -0.004   0.002  0.00  0.00    -0.026 A 
ATOM     13  C   UNL     1      -0.006  -0.689  -1.197  0.00  0.00    +0.005 A 
ATOM     14  C   UNL     1       0.018  -2.071  -1.206  0.00  0.00    +0.001 A 
ATOM     15  C   UNL     1       0.039  -2.773  -0.014  0.00  0.00    +0.005 A 
ATOM     16  C   UNL     1       0.041  -2.094   1.188  0.00  0.00    -0.026 A 
ATOM     17  C   UNL     1       0.023  -0.706   1.200  0.00  0.00    +0.058 A 
ATOM     18  C   UNL     1       0.064  -2.859   2.487  0.00  0.00    +0.046 C 
ENDBRANCH   1  17
TORSDOF 1
