REMARK  Name = ZINC02749260
REMARK  4 active torsions:
REMARK  status: ('A' for Active; 'I' for Inactive)
REMARK    1  A    between atoms: C_1  and  C_2
REMARK    2  A    between atoms: C_8  and  C_10
REMARK    3  A    between atoms: C_15  and  C_24
REMARK    4  A    between atoms: C_18  and  C_21
REMARK                            x       y       z     vdW  Elec       q    Type
REMARK                         _______ _______ _______ _____ _____    ______ ____
ROOT
ATOM      1  C   UNL     1      -3.628  -4.364  -0.004  0.00  0.00    +0.149 A 
ATOM      2  C   UNL     1      -5.041  -4.379  -0.002  0.00  0.00    +0.078 A 
ATOM      3  C   UNL     1      -5.434  -5.667  -0.006  0.00  0.00    +0.119 A 
ATOM      4  N   UNL     1      -4.317  -6.454  -0.007  0.00  0.00    -0.238 N 
ATOM      5  N   UNL     1      -3.203  -5.615  -0.013  0.00  0.00    -0.164 NA
ATOM      6  C   UNL     1      -4.354  -7.919  -0.006  0.00  0.00    +0.214 C 
ATOM      7  C   UNL     1      -5.734  -8.380   0.476  0.00  0.00    +0.058 C 
ATOM      8  C   UNL     1      -6.831  -7.644  -0.301  0.00  0.00    +0.077 C 
ATOM      9  N   UNL     1      -6.726  -6.201  -0.009  0.00  0.00    -0.326 N 
ATOM     10  H   UNL     1      -7.508  -5.655   0.171  0.00  0.00    +0.148 HD
ENDROOT
BRANCH   1  18
ATOM     11  C   UNL     1      -0.018   1.503   0.010  0.00  0.00    +0.089 C 
ATOM     12  C   UNL     1       0.002  -0.004   0.002  0.00  0.00    +0.136 A 
ATOM     13  C   UNL     1      -1.076  -0.807   0.003  0.00  0.00    +0.091 A 
ATOM     14  C   UNL     1      -0.625  -2.147  -0.007  0.00  0.00    +0.168 A 
ATOM     15  N   UNL     1       0.683  -2.130  -0.013  0.00  0.00    -0.063 NA
ATOM     16  O   UNL     1       1.100  -0.776  -0.013  0.00  0.00    -0.358 OA
ATOM     17  N   UNL     1      -1.432  -3.284  -0.009  0.00  0.00    -0.262 N 
ATOM     18  C   UNL     1      -2.773  -3.159  -0.002  0.00  0.00    +0.270 C 
ATOM     19  O   UNL     1      -3.281  -2.054   0.007  0.00  0.00    -0.268 OA
ATOM     20  H   UNL     1      -1.027  -4.165  -0.015  0.00  0.00    +0.157 HD
ENDBRANCH   1  18
BRANCH   6  21
ATOM     21  C   UNL     1      -3.274  -8.458   0.934  0.00  0.00    +0.412 C 
ATOM     22  F   UNL     1      -3.506  -7.986   2.230  0.00  0.00    -0.168 F 
ATOM     23  F   UNL     1      -3.311  -9.856   0.933  0.00  0.00    -0.168 F 
ATOM     24  F   UNL     1      -2.017  -8.024   0.497  0.00  0.00    -0.168 F 
ENDBRANCH   6  21
BRANCH   8  25
ATOM     25  C   UNL     1      -8.204  -8.162   0.133  0.00  0.00    +0.009 C 
ATOM     26  C   UNL     1      -9.008  -8.972  -0.886  0.00  0.00    +0.005 C 
ATOM     27  C   UNL     1      -9.435  -7.546  -0.535  0.00  0.00    +0.005 C 
ENDBRANCH   8  25
TORSDOF 3
