REMARK  Name = ZINC59086957
REMARK  8 active torsions:
REMARK  status: ('A' for Active; 'I' for Inactive)
REMARK    1  A    between atoms: C_1  and  C_2
REMARK    2  A    between atoms: C_2  and  C_3
REMARK    3  A    between atoms: C_3  and  C_31
REMARK    4  A    between atoms: C_8  and  C_11
REMARK    5  A    between atoms: C_16  and  O_17
REMARK    6  A    between atoms: N_20  and  C_23
REMARK    7  A    between atoms: C_26  and  O_29
REMARK    8  A    between atoms: O_29  and  C_30
REMARK                            x       y       z     vdW  Elec       q    Type
REMARK                         _______ _______ _______ _____ _____    ______ ____
ROOT
ATOM      1  C   UNL     1      -1.278  -0.598  -0.236  0.00  0.00    +0.048 C 
ATOM      2  C   UNL     1      -1.488  -2.075   0.157  0.00  0.00    +0.086 C 
ATOM      3  C   UNL     1      -1.783  -2.043   1.681  0.00  0.00    +0.077 C 
ATOM      4  C   UNL     1      -1.708  -0.551   2.067  0.00  0.00    -0.023 C 
ATOM      5  N   UNL     1      -2.008   0.176   0.800  0.00  0.00    +0.396 N 
ATOM      6  C   UNL     1      -3.214  -2.523   1.769  0.00  0.00    +0.229 C 
ATOM      7  O   UNL     1      -3.849  -2.650   2.795  0.00  0.00    -0.275 OA
ATOM      8  N   UNL     1      -3.671  -2.786   0.539  0.00  0.00    -0.210 N 
ATOM      9  C   UNL     1      -2.778  -2.575  -0.454  0.00  0.00    +0.229 C 
ATOM     10  O   UNL     1      -2.970  -2.750  -1.638  0.00  0.00    -0.275 OA
ATOM     11  H   UNL     1      -1.656   1.120   0.848  0.00  0.00    -0.083 HD
ATOM     12  H   UNL     1      -2.998   0.175   0.608  0.00  0.00    -0.083 HD
ENDROOT
BRANCH   4  13
ATOM     13  C   UNL     1      -2.751  -0.225   3.104  0.00  0.00    -0.019 A 
ATOM     14  C   UNL     1      -3.978   0.279   2.716  0.00  0.00    +0.005 A 
ATOM     15  C   UNL     1      -4.935   0.579   3.667  0.00  0.00    +0.000 A 
ATOM     16  C   UNL     1      -4.668   0.377   5.009  0.00  0.00    +0.004 A 
ATOM     17  C   UNL     1      -3.443  -0.127   5.402  0.00  0.00    +0.045 A 
ATOM     18  C   UNL     1      -2.482  -0.434   4.449  0.00  0.00    +0.118 A 
BRANCH  18  19
ATOM     19  O   UNL     1      -1.279  -0.934   4.833  0.00  0.00    -0.507 OA
ATOM     20  H   UNL     1      -0.609  -0.259   5.008  0.00  0.00    +0.292 HD
ENDBRANCH  18  19
ENDBRANCH   4  13
BRANCH   8  21
ATOM     21  C   UNL     1      -4.973  -3.251   0.297  0.00  0.00    +0.044 A 
ATOM     22  C   UNL     1      -5.883  -2.449  -0.379  0.00  0.00    +0.027 A 
ATOM     23  C   UNL     1      -7.163  -2.908  -0.618  0.00  0.00    +0.047 A 
ATOM     24  C   UNL     1      -7.540  -4.170  -0.182  0.00  0.00    +0.120 A 
ATOM     25  C   UNL     1      -6.632  -4.971   0.493  0.00  0.00    +0.047 A 
ATOM     26  C   UNL     1      -5.350  -4.516   0.728  0.00  0.00    +0.027 A 
BRANCH  24  27
ATOM     27  O   UNL     1      -8.801  -4.621  -0.418  0.00  0.00    -0.495 OA
ATOM     28  C   UNL     1      -9.122  -5.929   0.058  0.00  0.00    +0.277 C 
ENDBRANCH  24  27
ENDBRANCH   8  21
BRANCH   1  29
ATOM     29  C   UNL     1      -1.859  -0.328  -1.600  0.00  0.00    +0.346 C 
ATOM     30  O   UNL     1      -1.425  -0.917  -2.576  0.00  0.00    -0.248 OA
ATOM     31  O   UNL     1      -2.763   0.480  -1.729  0.00  0.00    -0.248 OA
ENDBRANCH   1  29
BRANCH   1  33
ATOM     32  C   UNL     1       0.383   1.261  -0.403  0.00  0.00    +0.003 C 
ATOM     33  C   UNL     1       0.211  -0.247  -0.213  0.00  0.00    -0.004 C 
ENDBRANCH   1  33
TORSDOF 6
