REMARK  Name = ZINC12418205
REMARK  7 active torsions:
REMARK  status: ('A' for Active; 'I' for Inactive)
REMARK    1  A    between atoms: C_1  and  O_2
REMARK    2  A    between atoms: O_2  and  C_3
REMARK    3  A    between atoms: C_5  and  C_13
REMARK    4  A    between atoms: C_6  and  O_11
REMARK    5  A    between atoms: C_8  and  O_9
REMARK    6  A    between atoms: O_9  and  C_10
REMARK    7  A    between atoms: O_11  and  C_12
REMARK                            x       y       z     vdW  Elec       q    Type
REMARK                         _______ _______ _______ _____ _____    ______ ____
ROOT
ATOM      1  C   UNL     1      -2.010   2.474   3.494  0.00  0.00    +0.072 C 
ATOM      2  C   UNL     1      -1.349   2.731   4.856  0.00  0.00    +0.109 C 
ATOM      3  C   UNL     1      -1.927   3.958   5.501  0.00  0.00    +0.219 C 
ATOM      4  O   UNL     1      -1.183   4.690   6.119  0.00  0.00    -0.275 OA
ATOM      5  N   UNL     1      -3.229   4.285   5.428  0.00  0.00    -0.270 N 
ATOM      6  C   UNL     1      -4.064   3.572   4.525  0.00  0.00    +0.138 A 
ATOM      7  C   UNL     1      -3.471   2.725   3.632  0.00  0.00    +0.041 A 
ATOM      8  S   UNL     1      -4.854   2.062   2.751  0.00  0.00    -0.055 S 
ATOM      9  C   UNL     1      -6.091   2.940   3.601  0.00  0.00    +0.158 A 
ATOM     10  N   UNL     1      -5.389   3.648   4.467  0.00  0.00    -0.210 NA
ATOM     11  N   UNL     1      -7.465   2.905   3.418  0.00  0.00    -0.337 N 
ATOM     12  H   UNL     1      -3.593   4.994   5.981  0.00  0.00    +0.156 HD
ATOM     13  H   UNL     1      -7.848   2.331   2.736  0.00  0.00    +0.144 HD
ATOM     14  H   UNL     1      -8.042   3.454   3.970  0.00  0.00    +0.144 HD
ENDROOT
BRANCH   1  17
ATOM     15  C   UNL     1      -1.006   5.635   1.683  0.00  0.00    +0.162 A 
ATOM     16  C   UNL     1      -1.534   4.775   2.633  0.00  0.00    +0.057 A 
ATOM     17  C   UNL     1      -1.430   3.408   2.462  0.00  0.00    +0.006 A 
ATOM     18  C   UNL     1      -0.787   2.893   1.346  0.00  0.00    +0.128 A 
ATOM     19  C   UNL     1      -0.258   3.749   0.393  0.00  0.00    +0.095 A 
ATOM     20  C   UNL     1      -0.366   5.120   0.559  0.00  0.00    +0.165 A 
BRANCH  15  22
ATOM     21  C   UNL     1      -1.783   7.439   3.025  0.00  0.00    +0.277 C 
ATOM     22  O   UNL     1      -1.113   6.981   1.849  0.00  0.00    -0.491 OA
ENDBRANCH  15  22
BRANCH  20  23
ATOM     23  O   UNL     1       0.152   5.963  -0.374  0.00  0.00    -0.491 OA
ATOM     24  C   UNL     1       0.796   5.365  -1.501  0.00  0.00    +0.277 C 
ENDBRANCH  20  23
BRANCH  18  25
ATOM     25  O   UNL     1      -0.682   1.547   1.184  0.00  0.00    -0.495 OA
ATOM     26  C   UNL     1      -0.013   1.086   0.008  0.00  0.00    +0.277 C 
ENDBRANCH  18  25
ENDBRANCH   1  17
TORSDOF 4
