REMARK  Name = ZINC13563864
REMARK  4 active torsions:
REMARK  status: ('A' for Active; 'I' for Inactive)
REMARK    1  A    between atoms: C_9  and  O_27
REMARK    2  A    between atoms: C_10  and  C_11
REMARK    3  A    between atoms: N_12  and  N_13
REMARK    4  A    between atoms: C_14  and  C_16
REMARK                            x       y       z     vdW  Elec       q    Type
REMARK                         _______ _______ _______ _____ _____    ______ ____
ROOT
ATOM      1  C   UNL     1      -0.042   4.300  -0.018  0.00  0.00    +0.142 C 
ATOM      2  N   UNL     1       0.000   5.597  -0.092  0.00  0.00    -0.187 NA
ENDROOT
BRANCH   1  12
ATOM      3  C   UNL     1       4.243   4.221   2.850  0.00  0.00    +0.001 A 
ATOM      4  C   UNL     1       3.074   4.979   2.877  0.00  0.00    +0.001 A 
ATOM      5  C   UNL     1       2.083   4.769   1.965  0.00  0.00    +0.009 A 
ATOM      6  C   UNL     1       2.241   3.781   0.986  0.00  0.00    -0.006 A 
ATOM      7  C   UNL     1       3.429   3.009   0.955  0.00  0.00    -0.017 A 
ATOM      8  C   UNL     1       4.429   3.252   1.912  0.00  0.00    +0.008 A 
ATOM      9  C   UNL     1       3.586   2.018  -0.029  0.00  0.00    +0.012 A 
ATOM     10  C   UNL     1       2.612   1.791  -0.950  0.00  0.00    +0.046 A 
ATOM     11  C   UNL     1       1.427   2.524  -0.961  0.00  0.00    +0.126 A 
ATOM     12  C   UNL     1       1.206   3.524  -0.013  0.00  0.00    +0.044 A 
BRANCH  11  13
ATOM     13  O   UNL     1       0.481   2.264  -1.899  0.00  0.00    -0.506 OA
ATOM     14  H   UNL     1      -0.118   1.542  -1.664  0.00  0.00    +0.292 HD
ENDBRANCH  11  13
ENDBRANCH   1  12
BRANCH   2  15
ATOM     15  N   UNL     1       1.222   6.247  -0.310  0.00  0.00    -0.204 N 
ATOM     16  C   UNL     1       1.253   7.584  -0.480  0.00  0.00    +0.276 C 
ATOM     17  O   UNL     1       0.237   8.235  -0.354  0.00  0.00    -0.270 OA
ATOM     18  H   UNL     1       2.045   5.735  -0.339  0.00  0.00    +0.177 HD
BRANCH  16  19
ATOM     19  C   UNL     1       2.550   8.269  -0.828  0.00  0.00    +0.297 C 
ATOM     20  C   UNL     1       2.960   7.905  -2.261  0.00  0.00    +0.283 C 
ATOM     21  O   UNL     1       4.185   8.582  -2.562  0.00  0.00    -0.484 OA
ATOM     22  C   UNL     1       4.254   9.899  -2.226  0.00  0.00    +0.162 A 
ATOM     23  C   UNL     1       5.238  10.695  -2.794  0.00  0.00    +0.049 A 
ATOM     24  C   UNL     1       5.325  12.033  -2.459  0.00  0.00    +0.004 A 
ATOM     25  C   UNL     1       4.432  12.582  -1.557  0.00  0.00    +0.004 A 
ATOM     26  C   UNL     1       3.448  11.794  -0.990  0.00  0.00    +0.049 A 
ATOM     27  C   UNL     1       3.355  10.451  -1.322  0.00  0.00    +0.163 A 
ATOM     28  O   UNL     1       2.379   9.689  -0.757  0.00  0.00    -0.472 OA
ENDBRANCH  16  19
ENDBRANCH   2  15
TORSDOF 4
