REMARK  Name = ZINC16906489
REMARK  6 active torsions:
REMARK  status: ('A' for Active; 'I' for Inactive)
REMARK    1  A    between atoms: C_3  and  O_26
REMARK    2  A    between atoms: C_6  and  C_7
REMARK    3  A    between atoms: N_11  and  N_15
REMARK    4  A    between atoms: C_16  and  C_18
REMARK    5  A    between atoms: O_26  and  C_27
REMARK    6  A    between atoms: C_27  and  C_28
REMARK                            x       y       z     vdW  Elec       q    Type
REMARK                         _______ _______ _______ _____ _____    ______ ____
ROOT
ATOM      1  C   UNL     1      -2.561   1.519   0.022  0.00  0.00    +0.028 C 
ATOM      2  C   UNL     1      -1.305   1.953   0.297  0.00  0.00    +0.079 C 
ATOM      3  C   UNL     1      -0.104   1.182   0.677  0.00  0.00    +0.275 C 
ATOM      4  O   UNL     1      -0.132  -0.030   0.789  0.00  0.00    -0.267 OA
ATOM      5  N   UNL     1       1.004   1.874   0.883  0.00  0.00    -0.169 N 
ATOM      6  C   UNL     1       1.030   3.216   0.757  0.00  0.00    +0.138 C 
ATOM      7  S   UNL     1       2.353   4.279   0.980  0.00  0.00    -0.026 S 
ATOM      8  S   UNL     1      -0.649   3.616   0.301  0.00  0.00    -0.059 S 
ENDROOT
BRANCH   1  14
ATOM      9  C   UNL     1      -1.902  -0.761  -0.720  0.00  0.00    +0.011 A 
ATOM     10  C   UNL     1      -2.158  -2.109  -0.824  0.00  0.00    +0.046 A 
ATOM     11  C   UNL     1      -3.341  -2.635  -0.318  0.00  0.00    +0.121 A 
ATOM     12  C   UNL     1      -4.270  -1.804   0.298  0.00  0.00    +0.046 A 
ATOM     13  C   UNL     1      -4.022  -0.455   0.412  0.00  0.00    +0.011 A 
ATOM     14  C   UNL     1      -2.831   0.080  -0.096  0.00  0.00    -0.024 A 
BRANCH  11  15
ATOM     15  O   UNL     1      -3.591  -3.965  -0.427  0.00  0.00    -0.481 OA
BRANCH  15  16
ATOM     16  C   UNL     1      -2.595  -4.762  -1.072  0.00  0.00    +0.353 C 
BRANCH  16  17
ATOM     17  C   UNL     1      -3.043  -6.200  -1.100  0.00  0.00    +0.393 C 
ATOM     18  O   UNL     1      -4.106  -6.512  -0.618  0.00  0.00    -0.243 OA
ATOM     19  O   UNL     1      -2.261  -7.136  -1.661  0.00  0.00    -0.243 OA
ENDBRANCH  16  17
ENDBRANCH  15  16
ENDBRANCH  11  15
ENDBRANCH   1  14
BRANCH   5  20
ATOM     20  N   UNL     1       2.177   1.197   1.242  0.00  0.00    -0.222 N 
ATOM     21  C   UNL     1       3.160   1.026   0.336  0.00  0.00    +0.262 C 
ATOM     22  O   UNL     1       3.029   1.460  -0.793  0.00  0.00    -0.269 OA
ATOM     23  H   UNL     1       2.282   0.851   2.142  0.00  0.00    +0.174 HD
BRANCH  21  24
ATOM     24  C   UNL     1       4.397   0.313   0.713  0.00  0.00    +0.057 A 
ATOM     25  C   UNL     1       4.551  -0.186   2.009  0.00  0.00    +0.016 A 
ATOM     26  C   UNL     1       5.707  -0.852   2.355  0.00  0.00    +0.021 A 
ATOM     27  C   UNL     1       6.717  -1.026   1.422  0.00  0.00    +0.042 A 
ATOM     28  C   UNL     1       6.572  -0.534   0.137  0.00  0.00    +0.040 A 
ATOM     29  C   UNL     1       5.415   0.129  -0.225  0.00  0.00    +0.054 A 
ATOM     30 CL   UNL     1       5.231   0.739  -1.840  0.00  0.00    -0.083 Cl
ATOM     31 CL   UNL     1       8.170  -1.865   1.868  0.00  0.00    -0.083 Cl
ENDBRANCH  21  24
ENDBRANCH   5  20
TORSDOF 6
