REMARK  Name = ZINC50787320
REMARK  6 active torsions:
REMARK  status: ('A' for Active; 'I' for Inactive)
REMARK    1  A    between atoms: C_1  and  C_2
REMARK    2  A    between atoms: C_8  and  N_10
REMARK    3  A    between atoms: N_10  and  C_11
REMARK    4  A    between atoms: C_12  and  C_14
REMARK    5  A    between atoms: C_16  and  N_21
REMARK    6  A    between atoms: N_21  and  C_22
REMARK                            x       y       z     vdW  Elec       q    Type
REMARK                         _______ _______ _______ _____ _____    ______ ____
ROOT
ATOM      1  N   UNL     1       2.106   0.252   1.181  0.00  0.00    -0.297 N 
ATOM      2  C   UNL     1       3.034   0.037   0.067  0.00  0.00    +0.132 C 
ATOM      3  C   UNL     1       2.497   0.969   2.254  0.00  0.00    +0.247 C 
ATOM      4  O   UNL     1       1.782   1.033   3.234  0.00  0.00    -0.270 OA
ENDROOT
BRANCH   1  11
ATOM      5  C   UNL     1      -0.103   1.832   0.177  0.00  0.00    +0.009 C 
ATOM      6  C   UNL     1      -0.016   0.319  -0.032  0.00  0.00    +0.006 C 
ATOM      7  C   UNL     1       0.710   0.026  -1.346  0.00  0.00    +0.005 C 
ATOM      8  C   UNL     1       0.796  -1.487  -1.554  0.00  0.00    +0.000 C 
ATOM      9  C   UNL     1       1.568  -2.118  -0.394  0.00  0.00    +0.002 C 
ATOM     10  C   UNL     1       0.842  -1.825   0.921  0.00  0.00    +0.023 C 
ATOM     11  C   UNL     1       0.755  -0.312   1.129  0.00  0.00    +0.079 C 
ENDBRANCH   1  11
BRANCH   3  12
ATOM     12  C   UNL     1       3.797   1.678   2.237  0.00  0.00    +0.043 A 
ATOM     13  C   UNL     1       4.085   2.668   3.178  0.00  0.00    +0.056 A 
ATOM     14  C   UNL     1       5.318   3.308   3.127  0.00  0.00    +0.121 A 
ATOM     15  N   UNL     1       6.209   2.987   2.201  0.00  0.00    -0.221 NA
ATOM     16  C   UNL     1       5.970   2.057   1.296  0.00  0.00    +0.132 A 
ATOM     17  C   UNL     1       4.771   1.370   1.282  0.00  0.00    +0.053 A 
ATOM     18 CL   UNL     1       7.183   1.686   0.111  0.00  0.00    -0.062 Cl
BRANCH  14  19
ATOM     19  N   UNL     1       5.619   4.296   4.057  0.00  0.00    -0.332 N 
ATOM     20  C   UNL     1       4.640   4.658   5.084  0.00  0.00    +0.127 C 
ATOM     21  H   UNL     1       6.478   4.746   4.026  0.00  0.00    +0.147 HD
ENDBRANCH  14  19
ENDBRANCH   3  12
TORSDOF 3
