REMARK  Name = ZINC22288740
REMARK  3 active torsions:
REMARK  status: ('A' for Active; 'I' for Inactive)
REMARK    1  A    between atoms: C_4  and  N_7
REMARK    2  A    between atoms: C_15  and  C_19
REMARK    3  A    between atoms: N_20  and  O_21
REMARK                            x       y       z     vdW  Elec       q    Type
REMARK                         _______ _______ _______ _____ _____    ______ ____
ROOT
ATOM      1  N   UNL     1       0.331   5.961   1.089  0.00  0.00    -0.327 N 
ATOM      2  C   UNL     1      -0.414   5.400  -0.047  0.00  0.00    +0.124 C 
ATOM      3  C   UNL     1      -0.374   3.872   0.025  0.00  0.00    +0.125 C 
ATOM      4  N   UNL     1       1.024   3.420   0.010  0.00  0.00    -0.314 N 
ATOM      5  C   UNL     1       1.768   3.980   1.146  0.00  0.00    +0.125 C 
ATOM      6  C   UNL     1       1.729   5.509   1.074  0.00  0.00    +0.124 C 
ATOM      7  C   UNL     1       1.098   2.031   0.003  0.00  0.00    +0.099 A 
ATOM      8  C   UNL     1       2.341   1.409  -0.013  0.00  0.00    +0.053 A 
ATOM      9  C   UNL     1       2.398   0.015  -0.021  0.00  0.00    +0.022 A 
ATOM     10  C   UNL     1       1.193  -0.698  -0.013  0.00  0.00    +0.029 A 
ATOM     11  C   UNL     1       0.002  -0.004   0.002  0.00  0.00    +0.085 A 
ATOM     12  N   UNL     1      -0.016   1.316   0.009  0.00  0.00    -0.350 N 
ATOM     13  H   UNL     1      -0.993   1.820   0.021  0.00  0.00    +0.166 HD
ENDROOT
BRANCH   1  17
ATOM     14  C   UNL     1       0.109  10.119   1.112  0.00  0.00    +0.000 A 
ATOM     15  C   UNL     1       0.821   9.461   2.098  0.00  0.00    +0.002 A 
ATOM     16  C   UNL     1       0.896   8.082   2.094  0.00  0.00    +0.023 A 
ATOM     17  C   UNL     1       0.256   7.356   1.097  0.00  0.00    +0.030 A 
ATOM     18  C   UNL     1      -0.453   8.021   0.105  0.00  0.00    +0.023 A 
ATOM     19  C   UNL     1      -0.529   9.399   0.118  0.00  0.00    +0.002 A 
ENDBRANCH   1  17
BRANCH   9  20
ATOM     20  C   UNL     1       3.700  -0.692  -0.036  0.00  0.00    +0.163 C 
ATOM     21  N   UNL     1       4.809  -0.013  -0.043  0.00  0.00    -0.072 NA
ATOM     22  N   UNL     1       3.736  -2.076  -0.044  0.00  0.00    -0.340 N 
ATOM     23  H   UNL     1       4.702  -2.602  -0.056  0.00  0.00    +0.144 HD
ATOM     24  H   UNL     1       2.798  -2.651  -0.038  0.00  0.00    +0.144 HD
BRANCH  21  25
ATOM     25  O   UNL     1       6.053  -0.689  -0.059  0.00  0.00    -0.408 OA
ATOM     26  H   UNL     1       6.991  -0.115  -0.064  0.00  0.00    +0.328 HD
ENDBRANCH  21  25
ENDBRANCH   9  20
TORSDOF 3
