REMARK  Name = ZINC43538150
REMARK  3 active torsions:
REMARK  status: ('A' for Active; 'I' for Inactive)
REMARK    1  A    between atoms: C_1  and  C_2
REMARK    2  A    between atoms: C_2  and  C_4
REMARK    3  A    between atoms: C_2  and  N_11
REMARK                            x       y       z     vdW  Elec       q    Type
REMARK                         _______ _______ _______ _____ _____    ______ ____
ROOT
ATOM      1  C   UNL     1      -0.019   1.526   0.010  0.00  0.00    +0.033 C 
ATOM      2  C   UNL     1       0.002  -0.004   0.002  0.00  0.00    +0.102 C 
ENDROOT
BRANCH   2   3
ATOM      3  N   UNL     1      -1.372  -0.511   0.012  0.00  0.00    -0.321 N 
ATOM      4  C   UNL     1      -2.049  -0.660   1.217  0.00  0.00    +0.139 A 
ATOM      5  C   UNL     1      -1.424  -0.322   2.416  0.00  0.00    +0.154 A 
ATOM      6  N   UNL     1      -2.070  -0.463   3.557  0.00  0.00    -0.257 NA
ATOM      7  C   UNL     1      -3.309  -0.926   3.566  0.00  0.00    +0.151 A 
ATOM      8  C   UNL     1      -3.933  -1.263   2.378  0.00  0.00    +0.149 A 
ATOM      9  N   UNL     1      -3.294  -1.119   1.229  0.00  0.00    -0.218 NA
ATOM     10 CL   UNL     1      -5.559  -1.870   2.396  0.00  0.00    -0.060 Cl
ATOM     11  H   UNL     1      -1.810  -0.743  -0.822  0.00  0.00    +0.148 HD
ENDBRANCH   2   3
BRANCH   2  12
ATOM     12  C   UNL     1       0.707  -0.490  -1.238  0.00  0.00    +0.008 A 
ATOM     13  C   UNL     1      -0.022  -0.817  -2.365  0.00  0.00    +0.008 A 
ATOM     14  C   UNL     1       0.624  -1.263  -3.502  0.00  0.00    +0.000 A 
ATOM     15  C   UNL     1       2.002  -1.382  -3.514  0.00  0.00    +0.003 A 
ATOM     16  C   UNL     1       2.733  -1.055  -2.389  0.00  0.00    +0.039 A 
ATOM     17  C   UNL     1       2.087  -0.604  -1.250  0.00  0.00    +0.128 A 
ATOM     18  F   UNL     1       2.802  -0.279  -0.150  0.00  0.00    -0.205 F 
ENDBRANCH   2  12
TORSDOF 2
