REMARK  Name = ZINC37617428
REMARK  9 active torsions:
REMARK  status: ('A' for Active; 'I' for Inactive)
REMARK    1  A    between atoms: C_1  and  C_2
REMARK    2  A    between atoms: C_2  and  C_3
REMARK    3  A    between atoms: C_3  and  C_5
REMARK    4  A    between atoms: C_3  and  N_6
REMARK    5  A    between atoms: N_6  and  C_7
REMARK    6  A    between atoms: C_7  and  C_8
REMARK    7  A    between atoms: N_10  and  C_11
REMARK    8  A    between atoms: C_16  and  O_17
REMARK    9  A    between atoms: O_17  and  C_18
REMARK                            x       y       z     vdW  Elec       q    Type
REMARK                         _______ _______ _______ _____ _____    ______ ____
ROOT
ATOM      1  C   UNL     1      -4.208  -0.161  -2.456  0.00  0.00    +0.200 C 
ATOM      2  O   UNL     1      -3.587   0.405  -3.331  0.00  0.00    -0.278 OA
ATOM      3  N   UNL     1      -5.519  -0.426  -2.623  0.00  0.00    -0.284 N 
ATOM      4  H   UNL     1      -6.000  -0.935  -1.952  0.00  0.00    +0.155 HD
ENDROOT
BRANCH   3   5
ATOM      5  C   UNL     1      -6.187   0.034  -3.765  0.00  0.00    +0.078 A 
ATOM      6  C   UNL     1      -5.522   0.096  -4.982  0.00  0.00    +0.047 A 
ATOM      7  C   UNL     1      -6.183   0.550  -6.108  0.00  0.00    +0.044 A 
ATOM      8  C   UNL     1      -7.507   0.944  -6.026  0.00  0.00    +0.039 A 
ATOM      9  C   UNL     1      -8.175   0.885  -4.816  0.00  0.00    +0.063 A 
ATOM     10  C   UNL     1      -7.521   0.425  -3.684  0.00  0.00    +0.162 A 
ATOM     11 BR   UNL     1      -9.985   1.425  -4.708  0.00  0.00    -0.046 Br
ATOM     12 CL   UNL     1      -5.350   0.628  -7.629  0.00  0.00    -0.083 Cl
BRANCH  10  13
ATOM     13  O   UNL     1      -8.178   0.361  -2.495  0.00  0.00    -0.431 OA
BRANCH  13  14
ATOM     14  C   UNL     1      -8.127   1.521  -1.662  0.00  0.00    +0.541 C 
ATOM     15  F   UNL     1      -6.795   1.805  -1.340  0.00  0.00    -0.166 F 
ATOM     16  F   UNL     1      -8.685   2.609  -2.342  0.00  0.00    -0.166 F 
ENDBRANCH  13  14
ENDBRANCH  10  13
ENDBRANCH   3   5
BRANCH   1  17
ATOM     17  C   UNL     1      -3.513  -0.568  -1.182  0.00  0.00    +0.015 C 
BRANCH  17  18
ATOM     18  N   UNL     1      -2.100  -0.170  -1.246  0.00  0.00    +0.386 N 
ATOM     19  H   UNL     1      -2.038   0.831  -1.358  0.00  0.00    -0.085 HD
ATOM     20  H   UNL     1      -1.658  -0.625  -2.031  0.00  0.00    -0.085 HD
BRANCH  18  21
ATOM     21  C   UNL     1      -1.423  -0.567  -0.004  0.00  0.00    -0.075 C 
ATOM     22  C   UNL     1      -1.409  -2.093   0.103  0.00  0.00    -0.014 C 
BRANCH  21  24
ATOM     23  C   UNL     1      -0.000   1.487   0.000  0.00  0.00    +0.002 C 
ATOM     24  C   UNL     1       0.014  -0.043  -0.018  0.00  0.00    -0.019 C 
ENDBRANCH  21  24
ENDBRANCH  18  21
ENDBRANCH  17  18
ENDBRANCH   1  17
TORSDOF 7
