REMARK  Name = ZINC06678837
REMARK  7 active torsions:
REMARK  status: ('A' for Active; 'I' for Inactive)
REMARK    1  A    between atoms: C_1  and  C_2
REMARK    2  A    between atoms: C_11  and  C_26
REMARK    3  A    between atoms: C_14  and  C_16
REMARK    4  A    between atoms: C_19  and  O_22
REMARK    5  A    between atoms: O_22  and  C_23
REMARK    6  A    between atoms: C_23  and  C_24
REMARK    7  A    between atoms: C_23  and  C_25
REMARK                            x       y       z     vdW  Elec       q    Type
REMARK                         _______ _______ _______ _____ _____    ______ ____
ROOT
ATOM      1  C   UNL     1       2.981   3.822  -2.714  0.00  0.00    +0.068 C 
ATOM      2  C   UNL     1       4.471   4.047  -2.708  0.00  0.00    +0.066 A 
ATOM      3  C   UNL     1       5.328   3.849  -1.606  0.00  0.00    +0.032 A 
ATOM      4  C   UNL     1       6.583   4.160  -1.999  0.00  0.00    +0.125 A 
ATOM      5  N   UNL     1       6.511   4.537  -3.313  0.00  0.00    -0.263 N 
ATOM      6  H   UNL     1       7.282   4.821  -3.884  0.00  0.00    +0.190 HD
ATOM      7  N   UNL     1       5.180   4.457  -3.721  0.00  0.00    -0.177 NA
ATOM      8  N   UNL     1       7.783   4.150  -1.328  0.00  0.00    -0.270 N 
ATOM      9  C   UNL     1       8.164   3.807  -0.135  0.00  0.00    +0.231 C 
ATOM     10  O   UNL     1       9.362   3.849   0.050  0.00  0.00    -0.274 OA
ATOM     11  C   UNL     1       7.370   3.374   1.035  0.00  0.00    +0.130 C 
ATOM     12  S   UNL     1       5.983   2.320   0.589  0.00  0.00    -0.135 S 
ATOM     13  C   UNL     1       4.820   3.374  -0.281  0.00  0.00    +0.112 C 
ATOM     14  C   UNL     1       8.285   2.606   1.991  0.00  0.00    +0.029 C 
ATOM     15  H   UNL     1       8.516   4.475  -1.874  0.00  0.00    +0.156 HD
ENDROOT
BRANCH  13  16
ATOM     16  C   UNL     1       3.542   2.606  -0.501  0.00  0.00    -0.030 A 
ATOM     17  C   UNL     1       2.335   3.143  -0.093  0.00  0.00    +0.008 A 
ATOM     18  C   UNL     1       1.162   2.441  -0.294  0.00  0.00    +0.046 A 
ATOM     19  C   UNL     1       1.196   1.196  -0.904  0.00  0.00    +0.121 A 
ATOM     20  C   UNL     1       2.409   0.656  -1.307  0.00  0.00    +0.046 A 
ATOM     21  C   UNL     1       3.579   1.365  -1.109  0.00  0.00    +0.008 A 
BRANCH  19  22
ATOM     22  O   UNL     1       0.044   0.503  -1.103  0.00  0.00    -0.489 OA
BRANCH  22  23
ATOM     23  C   UNL     1      -1.165   1.109  -0.642  0.00  0.00    +0.167 C 
ATOM     24  C   UNL     1      -1.643   2.138  -1.669  0.00  0.00    +0.051 C 
ATOM     25  C   UNL     1      -2.238   0.034  -0.460  0.00  0.00    +0.051 C 
ENDBRANCH  22  23
ENDBRANCH  19  22
ENDBRANCH  13  16
TORSDOF 3
