REMARK  Name = ZINC24609377
REMARK  7 active torsions:
REMARK  status: ('A' for Active; 'I' for Inactive)
REMARK    1  A    between atoms: C_1  and  C_2
REMARK    2  A    between atoms: C_7  and  C_8
REMARK    3  A    between atoms: C_10  and  C_13
REMARK    4  A    between atoms: C_13  and  S_14
REMARK    5  A    between atoms: S_14  and  C_15
REMARK    6  A    between atoms: C_18  and  C_21
REMARK    7  A    between atoms: N_19  and  N_20
REMARK                            x       y       z     vdW  Elec       q    Type
REMARK                         _______ _______ _______ _____ _____    ______ ____
ROOT
ATOM      1  C   UNL     1       1.309  -0.349  -0.012  0.00  0.00    +0.202 A 
ATOM      2  N   UNL     1       0.002  -0.004   0.002  0.00  0.00    -0.191 NA
ATOM      3  C   UNL     1      -0.016   1.306   0.009  0.00  0.00    +0.238 A 
ATOM      4  O   UNL     1       1.256   1.716  -0.001  0.00  0.00    -0.337 OA
ATOM      5  N   UNL     1       2.002   0.760  -0.013  0.00  0.00    -0.056 NA
ENDROOT
BRANCH   1  12
ATOM      6  C   UNL     1       4.173  -0.757  -0.042  0.00  0.00    +0.044 C 
ATOM      7  C   UNL     1       3.234  -1.935  -0.039  0.00  0.00    -0.040 A 
ATOM      8  C   UNL     1       3.737  -3.221  -0.050  0.00  0.00    +0.004 A 
ATOM      9  C   UNL     1       2.876  -4.303  -0.047  0.00  0.00    +0.000 A 
ATOM     10  C   UNL     1       1.507  -4.104  -0.033  0.00  0.00    +0.001 A 
ATOM     11  C   UNL     1       0.993  -2.823  -0.016  0.00  0.00    +0.012 A 
ATOM     12  C   UNL     1       1.856  -1.729  -0.025  0.00  0.00    +0.025 A 
ENDBRANCH   1  12
BRANCH   3  13
ATOM     13  C   UNL     1      -1.240   2.184   0.020  0.00  0.00    +0.176 C 
BRANCH  13  14
ATOM     14  S   UNL     1      -1.722   2.526   1.731  0.00  0.00    -0.075 S 
BRANCH  14  15
ATOM     15  C   UNL     1      -3.135   3.541   1.453  0.00  0.00    +0.209 A 
ATOM     16  N   UNL     1      -3.626   3.895   0.288  0.00  0.00    -0.121 NA
ATOM     17  N   UNL     1      -4.661   4.638   0.457  0.00  0.00    -0.132 NA
ATOM     18  C   UNL     1      -4.891   4.801   1.729  0.00  0.00    +0.148 A 
ATOM     19  N   UNL     1      -3.931   4.104   2.410  0.00  0.00    -0.228 N 
ATOM     20  C   UNL     1      -6.011   5.604   2.338  0.00  0.00    +0.090 C 
BRANCH  19  21
ATOM     21  N   UNL     1      -3.795   3.995   3.764  0.00  0.00    -0.295 N 
ATOM     22  H   UNL     1      -4.509   4.502   4.431  0.00  0.00    +0.163 HD
ATOM     23  H   UNL     1      -2.971   3.402   4.189  0.00  0.00    +0.163 HD
ENDBRANCH  19  21
ENDBRANCH  14  15
ENDBRANCH  13  14
ENDBRANCH   3  13
TORSDOF 5
