REMARK  Name = ZINC06455203
REMARK  7 active torsions:
REMARK  status: ('A' for Active; 'I' for Inactive)
REMARK    1  A    between atoms: C_1  and  C_2
REMARK    2  A    between atoms: C_2  and  C_3
REMARK    3  A    between atoms: C_2  and  C_4
REMARK    4  A    between atoms: C_2  and  C_5
REMARK    5  A    between atoms: C_8  and  C_11
REMARK    6  A    between atoms: N_13  and  N_14
REMARK    7  A    between atoms: C_15  and  C_17
REMARK                            x       y       z     vdW  Elec       q    Type
REMARK                         _______ _______ _______ _____ _____    ______ ____
ROOT
ATOM      1  N   UNL     1       2.455  -4.213  -0.043  0.00  0.00    -0.230 N 
ATOM      2  C   UNL     1       3.635  -4.865  -0.058  0.00  0.00    +0.267 C 
ATOM      3  O   UNL     1       4.676  -4.237  -0.065  0.00  0.00    -0.268 OA
ATOM      4  H   UNL     1       1.624  -4.714  -0.037  0.00  0.00    +0.173 HD
ENDROOT
BRANCH   2   5
ATOM      5  C   UNL     1       3.662  -6.338  -0.065  0.00  0.00    +0.123 A 
ATOM      6  C   UNL     1       2.484  -7.064  -0.058  0.00  0.00    +0.031 A 
ATOM      7  C   UNL     1       2.557  -8.480  -0.066  0.00  0.00    +0.018 A 
ATOM      8  C   UNL     1       1.383  -9.248  -0.058  0.00  0.00    +0.011 A 
ATOM      9  C   UNL     1       1.460 -10.610  -0.066  0.00  0.00    +0.001 A 
ATOM     10  C   UNL     1       2.695 -11.244  -0.081  0.00  0.00    +0.004 A 
ATOM     11  C   UNL     1       3.862 -10.510  -0.089  0.00  0.00    +0.047 A 
ATOM     12  C   UNL     1       3.809  -9.121  -0.082  0.00  0.00    +0.139 A 
ATOM     13  O   UNL     1       4.953  -8.404  -0.089  0.00  0.00    -0.422 OA
ATOM     14  C   UNL     1       4.939  -7.061  -0.088  0.00  0.00    +0.350 A 
ATOM     15  O   UNL     1       5.986  -6.442  -0.100  0.00  0.00    -0.244 OA
ENDBRANCH   2   5
BRANCH   1  18
ATOM     16  C   UNL     1       1.250  -2.160  -0.021  0.00  0.00    +0.260 C 
ATOM     17  O   UNL     1       0.208  -2.788  -0.014  0.00  0.00    -0.269 OA
ATOM     18  N   UNL     1       2.429  -2.812  -0.036  0.00  0.00    -0.230 N 
ATOM     19  H   UNL     1       3.260  -2.312  -0.041  0.00  0.00    +0.173 HD
BRANCH  16  23
ATOM     20  C   UNL     1       1.170   2.086   0.002  0.00  0.00    -0.042 A 
ATOM     21  C   UNL     1      -0.017   1.375   0.010  0.00  0.00    +0.005 A 
ATOM     22  C   UNL     1       0.002  -0.004   0.002  0.00  0.00    +0.013 A 
ATOM     23  C   UNL     1       1.222  -0.682  -0.013  0.00  0.00    +0.038 A 
ATOM     24  C   UNL     1       2.416   0.041  -0.021  0.00  0.00    +0.013 A 
ATOM     25  C   UNL     1       2.383   1.420  -0.013  0.00  0.00    +0.005 A 
BRANCH  20  27
ATOM     26  C   UNL     1       0.423   4.083   1.268  0.00  0.00    +0.015 C 
ATOM     27  C   UNL     1       1.142   3.593   0.010  0.00  0.00    -0.013 C 
ATOM     28  C   UNL     1       2.575   4.130  -0.001  0.00  0.00    +0.015 C 
ATOM     29  C   UNL     1       0.400   4.096  -1.230  0.00  0.00    +0.015 C 
ENDBRANCH  20  27
ENDBRANCH  16  23
ENDBRANCH   1  18
TORSDOF 4
