REMARK  Name = ZINC39957276
REMARK  8 active torsions:
REMARK  status: ('A' for Active; 'I' for Inactive)
REMARK    1  A    between atoms: C_1  and  C_2
REMARK    2  A    between atoms: C_2  and  C_3
REMARK    3  A    between atoms: C_2  and  C_4
REMARK    4  A    between atoms: C_2  and  O_5
REMARK    5  A    between atoms: O_5  and  C_6
REMARK    6  A    between atoms: N_8  and  CA_9
REMARK    7  A    between atoms: CA_9  and  C_11
REMARK    8  A    between atoms: CA_9  and  C_18
REMARK                            x       y       z     vdW  Elec       q    Type
REMARK                         _______ _______ _______ _____ _____    ______ ____
ROOT
ATOM      1  CA  UNL     1       4.035  -0.071  -2.601  0.00  0.00    +0.175 C 
ENDROOT
BRANCH   1   2
ATOM      2  C   UNL     1       4.759  -1.086  -3.489  0.00  0.00    -0.040 C 
ATOM      3  C   UNL     1       3.996  -1.246  -4.806  0.00  0.00    -0.014 C 
ATOM      4  C   UNL     1       4.724  -2.262  -5.691  0.00  0.00    -0.003 C 
ATOM      5  C   UNL     1       6.166  -1.794  -5.909  0.00  0.00    -0.019 C 
ATOM      6  C   UNL     1       6.848  -1.613  -4.551  0.00  0.00    -0.082 C 
ATOM      7  N   UNL     1       6.120  -0.611  -3.764  0.00  0.00    +0.382 N 
ATOM      8  H   UNL     1       6.076   0.255  -4.280  0.00  0.00    -0.085 HD
ATOM      9  H   UNL     1       6.603  -0.455  -2.891  0.00  0.00    -0.085 HD
ENDBRANCH   1   2
BRANCH   1  12
ATOM     10  C   UNL     1       1.952  -0.085  -1.337  0.00  0.00    +0.401 C 
ATOM     11  O   UNL     1       2.488   0.619  -0.503  0.00  0.00    -0.226 OA
ATOM     12  N   UNL     1       2.641  -0.485  -2.424  0.00  0.00    -0.269 N 
ATOM     13  H   UNL     1       2.213  -1.047  -3.089  0.00  0.00    +0.153 HD
BRANCH  10  14
ATOM     14  O   UNL     1       0.671  -0.465  -1.174  0.00  0.00    -0.445 OA
BRANCH  14  16
ATOM     15  C   UNL     1      -0.019   1.526   0.010  0.00  0.00    +0.055 C 
ATOM     16  C   UNL     1       0.002  -0.004   0.002  0.00  0.00    +0.107 C 
ATOM     17  C   UNL     1       0.742  -0.511   1.242  0.00  0.00    +0.055 C 
ATOM     18  C   UNL     1      -1.433  -0.534   0.013  0.00  0.00    +0.055 C 
ENDBRANCH  14  16
ENDBRANCH  10  14
ENDBRANCH   1  12
BRANCH   1  19
ATOM     19  C   UNL     1       4.077   1.287  -3.253  0.00  0.00    +0.374 C 
ATOM     20  O   UNL     1       5.001   2.047  -3.018  0.00  0.00    -0.244 OA
ATOM     21  OXT UNL     1       3.187   1.625  -4.015  0.00  0.00    -0.244 OA
ENDBRANCH   1  19
TORSDOF 5
