REMARK  Name = ZINC48892233
REMARK  7 active torsions:
REMARK  status: ('A' for Active; 'I' for Inactive)
REMARK    1  A    between atoms: C_1  and  N_2
REMARK    2  A    between atoms: N_2  and  C_3
REMARK    3  A    between atoms: N_2  and  C_11
REMARK    4  A    between atoms: C_3  and  C_4
REMARK    5  A    between atoms: C_11  and  C_13
REMARK    6  A    between atoms: C_11  and  C_15
REMARK    7  A    between atoms: C_13  and  N_14
REMARK                            x       y       z     vdW  Elec       q    Type
REMARK                         _______ _______ _______ _____ _____    ______ ____
ROOT
ATOM      1  C   UNL     1      -1.636  -0.765   0.298  0.00  0.00    +0.070 C 
ENDROOT
BRANCH   1   2
ATOM      2  C   UNL     1      -2.415  -0.806  -0.991  0.00  0.00    -0.018 A 
ATOM      3  C   UNL     1      -2.013  -0.037  -2.067  0.00  0.00    +0.006 A 
ATOM      4  C   UNL     1      -2.727  -0.074  -3.250  0.00  0.00    +0.000 A 
ATOM      5  C   UNL     1      -3.845  -0.882  -3.357  0.00  0.00    +0.001 A 
ATOM      6  C   UNL     1      -4.247  -1.652  -2.283  0.00  0.00    +0.015 A 
ATOM      7  C   UNL     1      -3.529  -1.618  -1.100  0.00  0.00    +0.022 A 
ATOM      8 BR   UNL     1      -4.076  -2.676   0.368  0.00  0.00    -0.050 Br
ENDBRANCH   1   2
BRANCH   1  10
ATOM      9  C   UNL     1      -0.357   1.272   0.018  0.00  0.00    +0.105 C 
ATOM     10  N   UNL     1      -0.305  -0.196   0.048  0.00  0.00    -0.296 NA
BRANCH  10  11
ATOM     11  C   UNL     1       0.666  -0.668   1.044  0.00  0.00    +0.121 C 
BRANCH  11  12
ATOM     12  C   UNL     1       0.987  -2.117   0.785  0.00  0.00    -0.019 A 
ATOM     13  C   UNL     1       0.475  -3.098   1.613  0.00  0.00    +0.006 A 
ATOM     14  C   UNL     1       0.770  -4.427   1.375  0.00  0.00    +0.000 A 
ATOM     15  C   UNL     1       1.576  -4.777   0.308  0.00  0.00    +0.001 A 
ATOM     16  C   UNL     1       2.089  -3.797  -0.521  0.00  0.00    +0.015 A 
ATOM     17  C   UNL     1       1.790  -2.467  -0.286  0.00  0.00    +0.022 A 
ATOM     18 BR   UNL     1       2.485  -1.126  -1.425  0.00  0.00    -0.050 Br
ENDBRANCH  11  12
ENDBRANCH  10  11
ENDBRANCH   1  10
BRANCH   1  19
ATOM     19  C   UNL     1      -2.378   0.103   1.316  0.00  0.00    -0.063 C 
BRANCH  19  20
ATOM     20  N   UNL     1      -1.621   0.139   2.574  0.00  0.00    +0.379 N 
ATOM     21  H   UNL     1      -1.360  -0.800   2.837  0.00  0.00    -0.090 HD
ATOM     22  H   UNL     1      -0.789   0.697   2.449  0.00  0.00    -0.090 HD
ATOM     23  H   UNL     1      -2.193   0.545   3.299  0.00  0.00    -0.090 HD
ENDBRANCH  19  20
ENDBRANCH   1  19
TORSDOF 6
