REMARK  Name = ZINC16852966
REMARK  9 active torsions:
REMARK  status: ('A' for Active; 'I' for Inactive)
REMARK    1  A    between atoms: C_1  and  C_2
REMARK    2  A    between atoms: C_3  and  C_16
REMARK    3  A    between atoms: C_8  and  C_10
REMARK    4  A    between atoms: C_16  and  C_17
REMARK    5  A    between atoms: C_17  and  C_19
REMARK    6  A    between atoms: C_17  and  C_20
REMARK    7  A    between atoms: N_22  and  N_23
REMARK    8  A    between atoms: C_24  and  C_25
REMARK    9  A    between atoms: C_34  and  O_35
REMARK                            x       y       z     vdW  Elec       q    Type
REMARK                         _______ _______ _______ _____ _____    ______ ____
ROOT
ATOM      1  C   UNL     1      -3.118   3.729  -1.371  0.00  0.00    +0.078 C 
ATOM      2  C   UNL     1      -2.077   4.576  -2.106  0.00  0.00    +0.017 C 
ENDROOT
BRANCH   1   3
ATOM      3  C   UNL     1      -4.436   4.458  -1.352  0.00  0.00    +0.235 C 
ATOM      4  O   UNL     1      -4.953   4.750  -0.293  0.00  0.00    -0.274 OA
ATOM      5  N   UNL     1      -5.043   4.785  -2.510  0.00  0.00    -0.207 N 
ATOM      6  H   UNL     1      -4.630   4.552  -3.356  0.00  0.00    +0.177 HD
BRANCH   5   7
ATOM      7  N   UNL     1      -6.269   5.463  -2.492  0.00  0.00    -0.188 NA
ATOM      8  C   UNL     1      -6.808   5.860  -3.606  0.00  0.00    +0.142 C 
BRANCH   8   9
ATOM      9  C   UNL     1      -6.206   5.478  -4.891  0.00  0.00    +0.044 A 
ATOM     10  C   UNL     1      -5.822   6.496  -5.867  0.00  0.00    -0.006 A 
ATOM     11  C   UNL     1      -6.012   7.859  -5.614  0.00  0.00    +0.009 A 
ATOM     12  C   UNL     1      -5.640   8.777  -6.551  0.00  0.00    +0.001 A 
ATOM     13  C   UNL     1      -5.073   8.376  -7.759  0.00  0.00    +0.001 A 
ATOM     14  C   UNL     1      -4.866   7.059  -8.034  0.00  0.00    +0.008 A 
ATOM     15  C   UNL     1      -5.241   6.085  -7.092  0.00  0.00    -0.017 A 
ATOM     16  C   UNL     1      -5.056   4.715  -7.346  0.00  0.00    +0.012 A 
ATOM     17  C   UNL     1      -5.423   3.781  -6.429  0.00  0.00    +0.046 A 
ATOM     18  C   UNL     1      -5.995   4.136  -5.208  0.00  0.00    +0.126 A 
BRANCH  18  19
ATOM     19  O   UNL     1      -6.347   3.170  -4.322  0.00  0.00    -0.506 OA
ATOM     20  H   UNL     1      -7.275   2.904  -4.379  0.00  0.00    +0.292 HD
ENDBRANCH  18  19
ENDBRANCH   8   9
ENDBRANCH   5   7
ENDBRANCH   1   3
BRANCH   1  21
ATOM     21  C   UNL     1      -2.651   3.480   0.065  0.00  0.00    +0.055 C 
BRANCH  21  24
ATOM     22  C   UNL     1      -0.061   4.738   0.177  0.00  0.00    +0.066 C 
ATOM     23  C   UNL     1      -0.169   3.237   0.101  0.00  0.00    +0.049 A 
ATOM     24  C   UNL     1      -1.397   2.645   0.048  0.00  0.00    +0.039 A 
ATOM     25  C   UNL     1      -1.472   1.240  -0.028  0.00  0.00    +0.255 A 
ATOM     26  O   UNL     1      -2.553   0.677  -0.082  0.00  0.00    -0.268 OA
ATOM     27  N   UNL     1      -0.324   0.529  -0.036  0.00  0.00    -0.307 N 
ATOM     28  H   UNL     1      -0.352  -0.440  -0.084  0.00  0.00    +0.170 HD
ATOM     29  C   UNL     1       0.873   1.177   0.019  0.00  0.00    +0.141 A 
ATOM     30  N   UNL     1       0.934   2.491   0.085  0.00  0.00    -0.234 NA
BRANCH  29  31
ATOM     31  C   UNL     1       2.125   0.393   0.003  0.00  0.00    +0.017 A 
ATOM     32  C   UNL     1       2.078  -1.001  -0.061  0.00  0.00    +0.011 A 
ATOM     33  C   UNL     1       3.251  -1.727  -0.081  0.00  0.00    +0.001 A 
ATOM     34  C   UNL     1       4.471  -1.078  -0.026  0.00  0.00    +0.000 A 
ATOM     35  C   UNL     1       4.525   0.303   0.044  0.00  0.00    +0.001 A 
ATOM     36  C   UNL     1       3.360   1.042   0.059  0.00  0.00    +0.011 A 
ENDBRANCH  29  31
ENDBRANCH  21  24
ENDBRANCH   1  21
TORSDOF 7
