REMARK  Name = ZINC41301864
REMARK  5 active torsions:
REMARK  status: ('A' for Active; 'I' for Inactive)
REMARK    1  A    between atoms: C_1  and  C_2
REMARK    2  A    between atoms: C_12  and  N_27
REMARK    3  A    between atoms: C_13  and  N_15
REMARK    4  A    between atoms: N_15  and  C_16
REMARK    5  A    between atoms: C_17  and  C_24
REMARK                            x       y       z     vdW  Elec       q    Type
REMARK                         _______ _______ _______ _____ _____    ______ ____
ROOT
ATOM      1  C   UNL     1      -0.019   1.526   0.010  0.00  0.00    +0.009 C 
ATOM      2  C   UNL     1       0.002  -0.004   0.002  0.00  0.00    +0.003 C 
ATOM      3  C   UNL     1       0.720  -0.498  -1.256  0.00  0.00    +0.006 C 
ATOM      4  C   UNL     1       0.712  -2.028  -1.282  0.00  0.00    +0.019 C 
ATOM      5  C   UNL     1       1.463  -2.559  -0.057  0.00  0.00    +0.108 C 
ATOM      6  N   UNL     1       0.869  -1.973   1.153  0.00  0.00    -0.299 N 
ATOM      7  C   UNL     1       0.744  -0.512   1.242  0.00  0.00    +0.111 C 
ATOM      8  C   UNL     1       0.435  -2.782   2.188  0.00  0.00    +0.221 A 
ATOM      9  N   UNL     1      -0.101  -2.223   3.263  0.00  0.00    -0.197 NA
ATOM     10  C   UNL     1      -0.529  -2.969   4.278  0.00  0.00    +0.154 A 
ATOM     11  C   UNL     1      -0.408  -4.354   4.199  0.00  0.00    +0.205 A 
ATOM     12  C   UNL     1       0.160  -4.905   3.054  0.00  0.00    +0.161 A 
ATOM     13  N   UNL     1       0.562  -4.096   2.076  0.00  0.00    -0.197 NA
ATOM     14  N   UNL     1      -1.088  -2.376   5.399  0.00  0.00    -0.341 N 
ATOM     15  H   UNL     1      -1.169  -1.411   5.447  0.00  0.00    +0.144 HD
ATOM     16  H   UNL     1      -1.399  -2.926   6.135  0.00  0.00    +0.144 HD
ENDROOT
BRANCH  11  17
ATOM     17  N   UNL     1      -0.872  -5.220   5.306  0.00  0.00    +0.063 N 
ATOM     18  O   UNL     1      -2.009  -5.631   5.317  0.00  0.00    -0.126 OA
ATOM     19  O   UNL     1      -0.115  -5.515   6.201  0.00  0.00    -0.126 OA
ENDBRANCH  11  17
BRANCH  12  20
ATOM     20  N   UNL     1       0.301  -6.280   2.932  0.00  0.00    -0.291 N 
ATOM     21  H   UNL     1       0.003  -6.864   3.647  0.00  0.00    +0.154 HD
BRANCH  20  22
ATOM     22  C   UNL     1       0.867  -6.819   1.790  0.00  0.00    +0.084 A 
ATOM     23  C   UNL     1       1.081  -8.153   1.493  0.00  0.00    +0.068 A 
ATOM     24  C   UNL     1       1.703  -8.462   0.206  0.00  0.00    -0.023 A 
ATOM     25  C   UNL     1       1.992  -7.379  -0.537  0.00  0.00    -0.004 A 
ATOM     26  S   UNL     1       1.446  -6.004   0.443  0.00  0.00    -0.077 S 
ATOM     27  C   UNL     1       2.633  -7.753  -1.847  0.00  0.00    +0.043 C 
ATOM     28  C   UNL     1       3.102  -9.211  -1.650  0.00  0.00    +0.010 C 
ATOM     29  C   UNL     1       2.129  -9.711  -0.563  0.00  0.00    +0.037 C 
BRANCH  23  30
ATOM     30  C   UNL     1       0.701  -9.213   2.431  0.00  0.00    +0.244 C 
ATOM     31  O   UNL     1      -0.410  -9.707   2.373  0.00  0.00    -0.270 OA
ATOM     32  N   UNL     1       1.581  -9.641   3.357  0.00  0.00    -0.325 N 
ATOM     33  H   UNL     1       2.467  -9.247   3.403  0.00  0.00    +0.145 HD
ATOM     34  H   UNL     1       1.329 -10.343   3.978  0.00  0.00    +0.145 HD
ENDBRANCH  23  30
ENDBRANCH  20  22
ENDBRANCH  12  20
TORSDOF 4
