REMARK  Name = ZINC07307243
REMARK  3 active torsions:
REMARK  status: ('A' for Active; 'I' for Inactive)
REMARK    1  A    between atoms: N_7  and  S_15
REMARK    2  A    between atoms: C_9  and  C_12
REMARK    3  A    between atoms: S_15  and  C_18
REMARK                            x       y       z     vdW  Elec       q    Type
REMARK                         _______ _______ _______ _____ _____    ______ ____
ROOT
ATOM      1  C   UNL     1      -0.196   5.573   2.470  0.00  0.00    +0.002 A 
ATOM      2  C   UNL     1      -0.788   5.886   3.680  0.00  0.00    +0.004 A 
ATOM      3  C   UNL     1      -1.770   5.069   4.208  0.00  0.00    +0.047 A 
ATOM      4  C   UNL     1      -2.167   3.929   3.525  0.00  0.00    +0.144 A 
ATOM      5  C   UNL     1      -1.572   3.618   2.305  0.00  0.00    +0.093 A 
ATOM      6  C   UNL     1      -0.587   4.440   1.781  0.00  0.00    +0.028 A 
ATOM      7  N   UNL     1      -1.974   2.469   1.607  0.00  0.00    -0.195 N 
ATOM      8  C   UNL     1      -2.788   1.478   2.331  0.00  0.00    +0.185 C 
ATOM      9  C   UNL     1      -3.817   2.240   3.171  0.00  0.00    +0.277 C 
ATOM     10  O   UNL     1      -3.127   3.127   4.055  0.00  0.00    -0.476 OA
ENDROOT
BRANCH   9  11
ATOM     11  C   UNL     1      -4.638   1.265   3.974  0.00  0.00    +0.253 C 
ATOM     12  O   UNL     1      -4.565   1.263   5.184  0.00  0.00    -0.272 OA
ATOM     13  N   UNL     1      -5.454   0.394   3.346  0.00  0.00    -0.326 N 
ATOM     14  H   UNL     1      -5.512   0.396   2.378  0.00  0.00    +0.145 HD
ATOM     15  H   UNL     1      -5.983  -0.234   3.863  0.00  0.00    +0.145 HD
ENDBRANCH   9  11
BRANCH   7  16
ATOM     16  S   UNL     1      -1.554   2.238   0.022  0.00  0.00    +0.075 S 
ATOM     17  O   UNL     1      -1.304   3.526  -0.523  0.00  0.00    -0.150 OA
ATOM     18  O   UNL     1      -2.519   1.353  -0.529  0.00  0.00    -0.150 OA
BRANCH  16  19
ATOM     19  C   UNL     1      -0.017   1.378   0.010  0.00  0.00    +0.110 A 
ATOM     20  C   UNL     1       0.002  -0.004   0.002  0.00  0.00    +0.029 A 
ATOM     21  C   UNL     1       1.208  -0.679  -0.013  0.00  0.00    +0.003 A 
ATOM     22  C   UNL     1       2.396   0.027  -0.021  0.00  0.00    +0.020 A 
ATOM     23  C   UNL     1       2.378   1.410  -0.013  0.00  0.00    +0.043 A 
ATOM     24  C   UNL     1       1.170   2.086   0.002  0.00  0.00    +0.048 A 
ATOM     25 CL   UNL     1       3.870   2.298  -0.022  0.00  0.00    -0.083 Cl
ENDBRANCH  16  19
ENDBRANCH   7  16
TORSDOF 3
