REMARK  Name = ZINC39975550
REMARK  8 active torsions:
REMARK  status: ('A' for Active; 'I' for Inactive)
REMARK    1  A    between atoms: C_1  and  C_2
REMARK    2  A    between atoms: C_2  and  C_3
REMARK    3  A    between atoms: C_3  and  C_5
REMARK    4  A    between atoms: C_3  and  C_6
REMARK    5  A    between atoms: C_6  and  C_8
REMARK    6  A    between atoms: C_6  and  N_22
REMARK    7  A    between atoms: N_10  and  N_11
REMARK    8  A    between atoms: C_12  and  C_14
REMARK                            x       y       z     vdW  Elec       q    Type
REMARK                         _______ _______ _______ _____ _____    ______ ____
ROOT
ATOM      1  C   UNL     1       0.872  -2.034   1.171  0.00  0.00    +0.162 C 
ENDROOT
BRANCH   1   2
ATOM      2  N   UNL     1      -0.455  -2.630   0.999  0.00  0.00    -0.316 N 
ATOM      3  C   UNL     1      -1.246  -2.880   2.099  0.00  0.00    +0.150 C 
ATOM      4  N   UNL     1      -0.825  -2.587   3.288  0.00  0.00    -0.113 NA
ATOM      5  S   UNL     1      -2.054  -3.036   4.331  0.00  0.00    +0.101 S 
ATOM      6  O   UNL     1      -2.595  -1.851   4.899  0.00  0.00    -0.146 OA
ATOM      7  O   UNL     1      -1.587  -4.132   5.105  0.00  0.00    -0.146 OA
ATOM      8  C   UNL     1      -3.231  -3.662   3.163  0.00  0.00    +0.123 A 
ATOM      9  C   UNL     1      -2.580  -3.478   1.935  0.00  0.00    +0.043 A 
ATOM     10  C   UNL     1      -3.263  -3.878   0.777  0.00  0.00    +0.013 A 
ATOM     11  C   UNL     1      -4.525  -4.423   0.867  0.00  0.00    +0.001 A 
ATOM     12  C   UNL     1      -5.144  -4.587   2.093  0.00  0.00    +0.002 A 
ATOM     13  C   UNL     1      -4.479  -4.205   3.250  0.00  0.00    +0.030 A 
ATOM     14  H   UNL     1      -0.777  -2.848   0.110  0.00  0.00    +0.148 HD
ENDBRANCH   1   2
BRANCH   1  15
ATOM     15  C   UNL     1       1.747  -2.410   0.003  0.00  0.00    +0.250 C 
ATOM     16  O   UNL     1       1.305  -3.107  -0.886  0.00  0.00    -0.272 OA
ATOM     17  N   UNL     1       3.020  -1.971  -0.054  0.00  0.00    -0.233 N 
ATOM     18  H   UNL     1       3.373  -1.414   0.657  0.00  0.00    +0.173 HD
BRANCH  17  19
ATOM     19  N   UNL     1       3.833  -2.321  -1.140  0.00  0.00    -0.230 N 
ATOM     20  C   UNL     1       5.107  -1.882  -1.197  0.00  0.00    +0.267 C 
ATOM     21  O   UNL     1       5.550  -1.183  -0.305  0.00  0.00    -0.268 OA
ATOM     22  H   UNL     1       3.480  -2.878  -1.851  0.00  0.00    +0.173 HD
BRANCH  20  23
ATOM     23  C   UNL     1       5.957  -2.248  -2.333  0.00  0.00    +0.076 A 
ATOM     24  C   UNL     1       7.274  -1.913  -2.578  0.00  0.00    +0.024 A 
ATOM     25  C   UNL     1       7.841  -2.406  -3.755  0.00  0.00    -0.036 A 
ATOM     26  C   UNL     1       7.040  -3.165  -4.545  0.00  0.00    -0.006 A 
ATOM     27  S   UNL     1       5.565  -3.247  -3.755  0.00  0.00    -0.088 S 
ATOM     28  C   UNL     1       7.759  -3.631  -5.785  0.00  0.00    +0.043 C 
ATOM     29  C   UNL     1       8.993  -2.709  -5.891  0.00  0.00    +0.010 C 
ATOM     30  C   UNL     1       9.216  -2.305  -4.421  0.00  0.00    +0.036 C 
ENDBRANCH  20  23
ENDBRANCH  17  19
ENDBRANCH   1  15
BRANCH   1  31
ATOM     31  C   UNL     1       0.742  -0.511   1.242  0.00  0.00    +0.015 C 
ATOM     32  C   UNL     1      -0.042  -0.124   2.497  0.00  0.00    +0.010 C 
BRANCH  31  34
ATOM     33  C   UNL     1      -0.019   1.526   0.010  0.00  0.00    +0.004 C 
ATOM     34  C   UNL     1       0.002  -0.004   0.002  0.00  0.00    +0.002 C 
ENDBRANCH  31  34
ENDBRANCH   1  31
TORSDOF 6
