REMARK  Name = ZINC39678394
REMARK  7 active torsions:
REMARK  status: ('A' for Active; 'I' for Inactive)
REMARK    1  A    between atoms: C_1  and  C_2
REMARK    2  A    between atoms: C_4  and  C_8
REMARK    3  A    between atoms: N_6  and  C_7
REMARK    4  A    between atoms: C_12  and  C_21
REMARK    5  A    between atoms: N_23  and  C_24
REMARK    6  A    between atoms: C_24  and  C_25
REMARK    7  A    between atoms: C_30  and  N_31
REMARK                            x       y       z     vdW  Elec       q    Type
REMARK                         _______ _______ _______ _____ _____    ______ ____
ROOT
ATOM      1  C   UNL     1       0.100  -4.001  -1.975  0.00  0.00    +0.267 C 
ATOM      2  O   UNL     1      -0.205  -4.067  -3.150  0.00  0.00    -0.268 OA
ATOM      3  N   UNL     1      -0.034  -5.082  -1.182  0.00  0.00    -0.295 N 
ATOM      4  C   UNL     1       0.276  -5.193   0.263  0.00  0.00    +0.121 C 
ATOM      5  C   UNL     1      -0.860  -6.066   0.841  0.00  0.00    +0.100 C 
ATOM      6  C   UNL     1      -1.381  -6.876  -0.358  0.00  0.00    -0.004 C 
ATOM      7  C   UNL     1      -0.531  -6.428  -1.556  0.00  0.00    +0.115 C 
ATOM      8  C   UNL     1      -2.851  -6.557  -0.613  0.00  0.00    -0.010 C 
ATOM      9  C   UNL     1      -3.361  -7.417  -1.773  0.00  0.00    -0.082 C 
ATOM     10  N   UNL     1      -3.198  -8.837  -1.440  0.00  0.00    +0.379 N 
ATOM     11  C   UNL     1      -1.774  -9.156  -1.288  0.00  0.00    -0.082 C 
ATOM     12  C   UNL     1      -1.196  -8.369  -0.108  0.00  0.00    -0.010 C 
ATOM     13  H   UNL     1      -3.680  -9.036  -0.577  0.00  0.00    -0.086 HD
ATOM     14  H   UNL     1      -3.590  -9.401  -2.179  0.00  0.00    -0.086 HD
ENDROOT
BRANCH   1  18
ATOM     15  C   UNL     1       1.673   0.789  -1.456  0.00  0.00    +0.065 C 
ATOM     16  C   UNL     1       1.298  -0.649  -1.207  0.00  0.00    +0.037 A 
ATOM     17  C   UNL     1       0.814  -1.523  -2.120  0.00  0.00    +0.057 A 
ATOM     18  C   UNL     1       0.618  -2.735  -1.417  0.00  0.00    +0.147 A 
ATOM     19  N   UNL     1       0.985  -2.520  -0.170  0.00  0.00    -0.167 NA
ATOM     20  N   UNL     1       1.389  -1.308  -0.032  0.00  0.00    -0.271 N 
ATOM     21  C   UNL     1       1.876  -0.725   1.221  0.00  0.00    +0.172 C 
ENDBRANCH   1  18
BRANCH   5  22
ATOM     22  C   UNL     1      -0.325  -6.986   1.906  0.00  0.00    +0.218 C 
ATOM     23  O   UNL     1       0.735  -7.553   1.742  0.00  0.00    -0.275 OA
ATOM     24  N   UNL     1      -1.023  -7.181   3.042  0.00  0.00    -0.311 N 
ATOM     25  H   UNL     1      -1.871  -6.728   3.174  0.00  0.00    +0.149 HD
BRANCH  24  26
ATOM     26  C   UNL     1      -0.503  -8.076   4.079  0.00  0.00    +0.141 C 
BRANCH  26  27
ATOM     27  C   UNL     1      -1.466  -8.118   5.237  0.00  0.00    -0.009 A 
ATOM     28  C   UNL     1      -1.224  -7.360   6.365  0.00  0.00    +0.007 A 
ATOM     29  C   UNL     1      -2.108  -7.398   7.428  0.00  0.00    +0.000 A 
ATOM     30  C   UNL     1      -3.236  -8.195   7.365  0.00  0.00    +0.002 A 
ATOM     31  C   UNL     1      -3.484  -8.956   6.240  0.00  0.00    +0.023 A 
ATOM     32  C   UNL     1      -2.602  -8.915   5.168  0.00  0.00    +0.034 A 
BRANCH  32  33
ATOM     33  N   UNL     1      -2.852  -9.679   4.026  0.00  0.00    -0.330 N 
ATOM     34  C   UNL     1      -2.346 -11.054   3.918  0.00  0.00    +0.105 C 
ATOM     35  C   UNL     1      -3.515 -11.986   3.585  0.00  0.00    +0.019 C 
ATOM     36  C   UNL     1      -4.225 -11.478   2.328  0.00  0.00    +0.003 C 
ATOM     37  C   UNL     1      -4.783 -10.076   2.587  0.00  0.00    +0.019 C 
ATOM     38  C   UNL     1      -3.633  -9.125   2.911  0.00  0.00    +0.105 C 
ENDBRANCH  32  33
ENDBRANCH  26  27
ENDBRANCH  24  26
ENDBRANCH   5  22
TORSDOF 5
