REMARK  Name = ZINC05238064
REMARK  9 active torsions:
REMARK  status: ('A' for Active; 'I' for Inactive)
REMARK    1  A    between atoms: C_1  and  C_2
REMARK    2  A    between atoms: C_2  and  O_3
REMARK    3  A    between atoms: O_3  and  C_4
REMARK    4  A    between atoms: C_7  and  N_10
REMARK    5  A    between atoms: C_11  and  C_13
REMARK    6  A    between atoms: C_13  and  C_15
REMARK    7  A    between atoms: C_13  and  S_16
REMARK    8  A    between atoms: S_16  and  C_17
REMARK    9  A    between atoms: C_23  and  N_25
REMARK                            x       y       z     vdW  Elec       q    Type
REMARK                         _______ _______ _______ _____ _____    ______ ____
ROOT
ATOM      1  C   UNL     1      -0.776   4.023   0.024  0.00  0.00    +0.137 C 
ATOM      2  C   UNL     1      -1.369   3.501  -1.286  0.00  0.00    +0.029 C 
ENDROOT
BRANCH   1   4
ATOM      3  N   UNL     1      -2.264   5.883   0.693  0.00  0.00    -0.285 N 
ATOM      4  C   UNL     1      -1.087   5.491   0.166  0.00  0.00    +0.230 C 
ATOM      5  O   UNL     1      -0.278   6.320  -0.195  0.00  0.00    -0.274 OA
ATOM      6  H   UNL     1      -2.938   5.222   0.919  0.00  0.00    +0.155 HD
BRANCH   3  10
ATOM      7  C   UNL     1      -3.009   9.932   1.353  0.00  0.00    +0.121 A 
ATOM      8  C   UNL     1      -2.261   9.534   0.254  0.00  0.00    +0.047 A 
ATOM      9  C   UNL     1      -2.014   8.194   0.035  0.00  0.00    +0.027 A 
ATOM     10  C   UNL     1      -2.514   7.243   0.915  0.00  0.00    +0.034 A 
ATOM     11  C   UNL     1      -3.267   7.641   2.012  0.00  0.00    +0.027 A 
ATOM     12  C   UNL     1      -3.508   8.983   2.232  0.00  0.00    +0.047 A 
BRANCH   7  13
ATOM     13  O   UNL     1      -3.251  11.252   1.568  0.00  0.00    -0.492 OA
BRANCH  13  15
ATOM     14  C   UNL     1      -4.195  13.109   2.794  0.00  0.00    +0.048 C 
ATOM     15  C   UNL     1      -4.028  11.590   2.719  0.00  0.00    +0.225 C 
ENDBRANCH  13  15
ENDBRANCH   7  13
ENDBRANCH   3  10
ENDBRANCH   1   4
BRANCH   1  16
ATOM     16  S   UNL     1       1.018   3.785   0.011  0.00  0.00    -0.075 S 
BRANCH  16  17
ATOM     17  C   UNL     1       1.093   2.025  -0.009  0.00  0.00    +0.171 A 
ATOM     18  N   UNL     1       2.308   1.409  -0.024  0.00  0.00    -0.302 N 
ATOM     19  H   UNL     1       3.145   1.956  -0.023  0.00  0.00    +0.171 HD
ATOM     20  C   UNL     1       2.384   0.062  -0.040  0.00  0.00    +0.254 A 
ATOM     21  O   UNL     1       3.469  -0.499  -0.052  0.00  0.00    -0.268 OA
ATOM     22  C   UNL     1       1.200  -0.682  -0.041  0.00  0.00    +0.113 A 
ATOM     23  C   UNL     1      -0.012  -0.006  -0.026  0.00  0.00    +0.124 A 
ATOM     24  N   UNL     1      -0.027   1.331  -0.011  0.00  0.00    -0.209 NA
BRANCH  23  25
ATOM     25  N   UNL     1      -1.199  -0.712  -0.027  0.00  0.00    -0.343 N 
ATOM     26  H   UNL     1      -2.045  -0.238  -0.017  0.00  0.00    +0.144 HD
ATOM     27  H   UNL     1      -1.186  -1.682  -0.038  0.00  0.00    +0.144 HD
ENDBRANCH  23  25
ENDBRANCH  16  17
ENDBRANCH   1  16
TORSDOF 7
