REMARK  Name = ZINC50898775
REMARK  7 active torsions:
REMARK  status: ('A' for Active; 'I' for Inactive)
REMARK    1  A    between atoms: C_1  and  C_2
REMARK    2  A    between atoms: N_11  and  C_13
REMARK    3  A    between atoms: C_13  and  N_14
REMARK    4  A    between atoms: N_14  and  C_15
REMARK    5  A    between atoms: C_15  and  C_16
REMARK    6  A    between atoms: C_15  and  C_17
REMARK    7  A    between atoms: C_15  and  C_18
REMARK                            x       y       z     vdW  Elec       q    Type
REMARK                         _______ _______ _______ _____ _____    ______ ____
ROOT
ATOM      1  N   UNL     1       3.132  -2.546  -1.365  0.00  0.00    +0.398 N 
ATOM      2  H   UNL     1       2.534  -3.004  -2.037  0.00  0.00    -0.082 HD
ATOM      3  H   UNL     1       3.225  -1.571  -1.606  0.00  0.00    -0.082 HD
ENDROOT
BRANCH   1   4
ATOM      4  C   UNL     1       4.456  -3.182  -1.375  0.00  0.00    -0.046 C 
ATOM      5  C   UNL     1       5.362  -2.489  -0.355  0.00  0.00    -0.006 C 
ATOM      6  C   UNL     1       4.315  -4.661  -1.008  0.00  0.00    -0.006 C 
BRANCH   4   7
ATOM      7  C   UNL     1       5.062  -3.061  -2.749  0.00  0.00    -0.057 A 
ATOM      8  C   UNL     1       4.367  -2.416  -3.756  0.00  0.00    +0.004 A 
ATOM      9  C   UNL     1       4.920  -2.304  -5.017  0.00  0.00    +0.021 A 
ATOM     10  C   UNL     1       6.171  -2.837  -5.273  0.00  0.00    +0.059 A 
ATOM     11  C   UNL     1       6.867  -3.482  -4.265  0.00  0.00    +0.059 A 
ATOM     12  C   UNL     1       6.314  -3.589  -3.002  0.00  0.00    +0.023 A 
ATOM     13 CL   UNL     1       8.437  -4.152  -4.585  0.00  0.00    -0.082 Cl
ATOM     14 CL   UNL     1       6.867  -2.698  -6.857  0.00  0.00    -0.082 Cl
ENDBRANCH   4   7
ENDBRANCH   1   4
BRANCH   1  15
ATOM     15  C   UNL     1       2.542  -2.665  -0.025  0.00  0.00    +0.070 C 
BRANCH  15  26
ATOM     16  C   UNL     1      -0.018   1.503   0.010  0.00  0.00    +0.068 C 
ATOM     17  C   UNL     1       0.002  -0.004   0.002  0.00  0.00    +0.066 A 
ATOM     18  C   UNL     1      -1.255  -0.753   0.004  0.00  0.00    +0.010 A 
ATOM     19  C   UNL     1      -2.495  -0.111   0.013  0.00  0.00    +0.010 A 
ATOM     20  C   UNL     1      -3.642  -0.854   0.014  0.00  0.00    +0.001 A 
ATOM     21  C   UNL     1      -3.592  -2.242   0.007  0.00  0.00    +0.001 A 
ATOM     22  C   UNL     1      -2.383  -2.903  -0.002  0.00  0.00    +0.014 A 
ATOM     23  C   UNL     1      -1.200  -2.165  -0.004  0.00  0.00    +0.050 A 
ATOM     24  C   UNL     1       0.119  -2.809  -0.014  0.00  0.00    +0.273 A 
ATOM     25  O   UNL     1       0.216  -4.024  -0.021  0.00  0.00    -0.266 OA
ATOM     26  N   UNL     1       1.221  -2.031  -0.015  0.00  0.00    -0.246 N 
ATOM     27  N   UNL     1       1.136  -0.638  -0.012  0.00  0.00    -0.175 NA
ENDBRANCH  15  26
ENDBRANCH   1  15
TORSDOF 4
