REMARK  Name = ZINC40369655
REMARK  6 active torsions:
REMARK  status: ('A' for Active; 'I' for Inactive)
REMARK    1  A    between atoms: C_1  and  C_2
REMARK    2  A    between atoms: C_5  and  C_7
REMARK    3  A    between atoms: N_9  and  C_10
REMARK    4  A    between atoms: C_10  and  C_12
REMARK    5  A    between atoms: C_10  and  C_18
REMARK    6  A    between atoms: N_19  and  O_20
REMARK                            x       y       z     vdW  Elec       q    Type
REMARK                         _______ _______ _______ _____ _____    ______ ____
ROOT
ATOM      1  C   UNL     1       2.780  -3.896   1.567  0.00  0.00    +0.142 C 
ENDROOT
BRANCH   1   2
ATOM      2  C   UNL     1       3.877  -4.111   2.612  0.00  0.00    +0.017 C 
ATOM      3  C   UNL     1       4.859  -2.938   2.569  0.00  0.00    +0.006 C 
ATOM      4  C   UNL     1       5.956  -3.154   3.614  0.00  0.00    +0.000 C 
ATOM      5  C   UNL     1       6.702  -4.454   3.310  0.00  0.00    +0.000 C 
ATOM      6  C   UNL     1       5.720  -5.627   3.353  0.00  0.00    +0.000 C 
ATOM      7  C   UNL     1       4.623  -5.412   2.308  0.00  0.00    +0.006 C 
ENDBRANCH   1   2
BRANCH   1   8
ATOM      8  C   UNL     1       1.813  -5.051   1.609  0.00  0.00    +0.152 C 
ATOM      9  N   UNL     1       1.561  -5.722   0.534  0.00  0.00    -0.075 NA
ATOM     10  N   UNL     1       1.198  -5.391   2.793  0.00  0.00    -0.342 N 
ATOM     11  H   UNL     1       1.387  -4.888   3.600  0.00  0.00    +0.144 HD
ATOM     12  H   UNL     1       0.576  -6.135   2.820  0.00  0.00    +0.144 HD
BRANCH   9  13
ATOM     13  O   UNL     1       0.653  -6.807   0.574  0.00  0.00    -0.408 OA
ATOM     14  H   UNL     1       0.528  -7.247  -0.279  0.00  0.00    +0.328 HD
ENDBRANCH   9  13
ENDBRANCH   1   8
BRANCH   1  17
ATOM     15  C   UNL     1       1.434  -1.989   0.869  0.00  0.00    +0.217 C 
ATOM     16  O   UNL     1       1.456  -2.425  -0.263  0.00  0.00    -0.275 OA
ATOM     17  N   UNL     1       2.066  -2.650   1.858  0.00  0.00    -0.305 N 
ATOM     18  H   UNL     1       2.049  -2.301   2.763  0.00  0.00    +0.149 HD
BRANCH  15  22
ATOM     19  C   UNL     1      -0.019   1.526   0.010  0.00  0.00    +0.008 C 
ATOM     20  C   UNL     1       0.002  -0.004   0.002  0.00  0.00    -0.002 C 
ATOM     21  C   UNL     1      -0.828  -0.728   1.065  0.00  0.00    +0.017 C 
ATOM     22  C   UNL     1       0.700  -0.708   1.168  0.00  0.00    +0.078 C 
ENDBRANCH  15  22
ENDBRANCH   1  17
TORSDOF 5
