REMARK  Name = ZINC58896775
REMARK  10 active torsions:
REMARK  status: ('A' for Active; 'I' for Inactive)
REMARK    1  A    between atoms: C_1  and  N_2
REMARK    2  A    between atoms: N_2  and  C_3
REMARK    3  A    between atoms: N_2  and  C_4
REMARK    4  A    between atoms: C_4  and  C_6
REMARK    5  A    between atoms: C_4  and  C_22
REMARK    6  A    between atoms: C_6  and  N_7
REMARK    7  A    between atoms: N_10  and  C_11
REMARK    8  A    between atoms: C_16  and  S_17
REMARK    9  A    between atoms: S_17  and  C_18
REMARK   10  A    between atoms: C_18  and  C_19
REMARK                            x       y       z     vdW  Elec       q    Type
REMARK                         _______ _______ _______ _____ _____    ______ ____
ROOT
ATOM      1  N   UNL     1      -1.167  -2.656   1.123  0.00  0.00    -0.300 N 
ATOM      2  C   UNL     1      -1.390  -3.971   1.315  0.00  0.00    +0.304 C 
ATOM      3  O   UNL     1      -1.983  -4.617   0.471  0.00  0.00    -0.253 OA
ATOM      4  N   UNL     1      -0.957  -4.571   2.441  0.00  0.00    -0.268 N 
ATOM      5  H   UNL     1      -0.694  -2.141   1.795  0.00  0.00    +0.150 HD
ATOM      6  H   UNL     1      -0.539  -4.045   3.141  0.00  0.00    +0.156 HD
ENDROOT
BRANCH   4   7
ATOM      7  C   UNL     1      -1.108  -5.956   2.600  0.00  0.00    +0.048 A 
ATOM      8  C   UNL     1      -1.052  -6.793   1.497  0.00  0.00    +0.024 A 
ATOM      9  C   UNL     1      -1.202  -8.158   1.656  0.00  0.00    +0.002 A 
ATOM     10  C   UNL     1      -1.409  -8.693   2.915  0.00  0.00    +0.001 A 
ATOM     11  C   UNL     1      -1.467  -7.866   4.021  0.00  0.00    +0.016 A 
ATOM     12  C   UNL     1      -1.311  -6.496   3.871  0.00  0.00    +0.030 A 
BRANCH  12  13
ATOM     13  S   UNL     1      -1.377  -5.439   5.279  0.00  0.00    -0.114 S 
BRANCH  13  14
ATOM     14  C   UNL     1      -1.651  -6.575   6.667  0.00  0.00    +0.169 C 
BRANCH  14  15
ATOM     15  C   UNL     1      -1.728  -5.790   7.951  0.00  0.00    +0.221 C 
ATOM     16  O   UNL     1      -1.609  -4.583   7.932  0.00  0.00    -0.275 OA
ATOM     17  N   UNL     1      -1.929  -6.429   9.121  0.00  0.00    -0.329 N 
ATOM     18  H   UNL     1      -2.023  -7.394   9.136  0.00  0.00    +0.145 HD
ATOM     19  H   UNL     1      -1.978  -5.923   9.947  0.00  0.00    +0.145 HD
ENDBRANCH  14  15
ENDBRANCH  13  14
ENDBRANCH  12  13
ENDBRANCH   4   7
BRANCH   1  20
ATOM     20  C   UNL     1      -1.638  -2.004  -0.101  0.00  0.00    +0.098 C 
BRANCH  20  21
ATOM     21  C   UNL     1      -1.372  -0.500  -0.013  0.00  0.00    +0.016 C 
BRANCH  21  22
ATOM     22  C   UNL     1       0.115  -0.254   0.018  0.00  0.00    +0.093 A 
ATOM     23  C   UNL     1       0.871   0.126  -1.027  0.00  0.00    +0.043 A 
ATOM     24  C   UNL     1       2.199   0.238  -0.553  0.00  0.00    +0.041 A 
ATOM     25  C   UNL     1       2.174  -0.081   0.754  0.00  0.00    +0.195 A 
ATOM     26  O   UNL     1       0.908  -0.373   1.095  0.00  0.00    -0.469 OA
ENDBRANCH  21  22
BRANCH  21  28
ATOM     27  C   UNL     1      -1.807   1.493   1.250  0.00  0.00    -0.096 C 
ATOM     28  N   UNL     1      -1.982   0.035   1.212  0.00  0.00    +0.384 N 
ATOM     29  C   UNL     1      -3.415  -0.287   1.225  0.00  0.00    -0.096 C 
ATOM     30  H   UNL     1      -1.537  -0.379   2.017  0.00  0.00    -0.082 HD
ENDBRANCH  21  28
ENDBRANCH  20  21
ENDBRANCH   1  20
TORSDOF 8
