REMARK  Name = ZINC52098084
REMARK  8 active torsions:
REMARK  status: ('A' for Active; 'I' for Inactive)
REMARK    1  A    between atoms: C_1  and  C_2
REMARK    2  A    between atoms: C_5  and  N_19
REMARK    3  A    between atoms: C_7  and  O_8
REMARK    4  A    between atoms: O_8  and  C_9
REMARK    5  A    between atoms: C_9  and  C_10
REMARK    6  A    between atoms: C_10  and  C_11
REMARK    7  A    between atoms: C_10  and  C_12
REMARK    8  A    between atoms: C_10  and  O_18
REMARK                            x       y       z     vdW  Elec       q    Type
REMARK                         _______ _______ _______ _____ _____    ______ ____
ROOT
ATOM      1  O   UNL     1       0.025  -0.033   2.381  0.00  0.00    -0.488 OA
ENDROOT
BRANCH   1   8
ATOM      2  C   UNL     1      -0.018   1.503   0.010  0.00  0.00    +0.047 C 
ATOM      3  C   UNL     1       0.002  -0.004   0.002  0.00  0.00    -0.009 A 
ATOM      4  C   UNL     1       0.006  -0.689  -1.198  0.00  0.00    +0.009 A 
ATOM      5  C   UNL     1       0.025  -2.071  -1.206  0.00  0.00    +0.033 A 
ATOM      6  C   UNL     1       0.040  -2.772  -0.014  0.00  0.00    +0.130 A 
ATOM      7  C   UNL     1       0.036  -2.092   1.188  0.00  0.00    +0.078 A 
ATOM      8  C   UNL     1       0.023  -0.705   1.199  0.00  0.00    +0.126 A 
BRANCH   6   9
ATOM      9  N   UNL     1       0.059  -4.252  -0.027  0.00  0.00    +0.057 N 
ATOM     10  O   UNL     1       0.062  -4.848  -1.079  0.00  0.00    -0.126 OA
ATOM     11  O   UNL     1       0.072  -4.865   1.015  0.00  0.00    -0.126 OA
ENDBRANCH   6   9
ENDBRANCH   1   8
BRANCH   1  12
ATOM     12  C   UNL     1       0.047  -0.820   3.574  0.00  0.00    +0.268 C 
BRANCH  12  13
ATOM     13  C   UNL     1       0.045   0.104   4.793  0.00  0.00    +0.122 C 
ATOM     14  C   UNL     1       1.212   1.088   4.690  0.00  0.00    +0.050 C 
BRANCH  13  15
ATOM     15  C   UNL     1       0.192  -0.719   6.047  0.00  0.00    -0.013 A 
ATOM     16  C   UNL     1       0.896  -1.908   6.014  0.00  0.00    +0.006 A 
ATOM     17  C   UNL     1       1.031  -2.663   7.165  0.00  0.00    +0.000 A 
ATOM     18  C   UNL     1       0.462  -2.229   8.347  0.00  0.00    +0.000 A 
ATOM     19  C   UNL     1      -0.242  -1.040   8.380  0.00  0.00    +0.000 A 
ATOM     20  C   UNL     1      -0.373  -0.283   7.231  0.00  0.00    +0.006 A 
ENDBRANCH  13  15
BRANCH  13  21
ATOM     21  O   UNL     1      -1.186   0.828   4.841  0.00  0.00    -0.381 OA
ATOM     22  H   UNL     1      -1.970   0.267   4.907  0.00  0.00    +0.211 HD
ENDBRANCH  13  21
ENDBRANCH  12  13
ENDBRANCH   1  12
TORSDOF 6
