REMARK  Name = ZINC03626046
REMARK  5 active torsions:
REMARK  status: ('A' for Active; 'I' for Inactive)
REMARK    1  A    between atoms: C_4  and  N_7
REMARK    2  A    between atoms: C_8  and  C_10
REMARK    3  A    between atoms: C_10  and  N_16
REMARK    4  A    between atoms: C_17  and  C_19
REMARK    5  A    between atoms: C_19  and  C_20
REMARK                            x       y       z     vdW  Elec       q    Type
REMARK                         _______ _______ _______ _____ _____    ______ ____
ROOT
ATOM      1  C   UNL     1       4.119  -2.246  -3.680  0.00  0.00    +0.111 C 
ATOM      2  C   UNL     1       5.616  -1.934  -3.735  0.00  0.00    +0.035 C 
ATOM      3  C   UNL     1       6.239  -2.636  -4.943  0.00  0.00    +0.003 C 
ATOM      4  C   UNL     1       6.037  -4.148  -4.815  0.00  0.00    +0.000 C 
ATOM      5  C   UNL     1       4.540  -4.459  -4.760  0.00  0.00    +0.003 C 
ATOM      6  C   UNL     1       3.917  -3.757  -3.551  0.00  0.00    +0.035 C 
ENDROOT
BRANCH   1   8
ATOM      7  N   UNL     1       2.191  -1.255  -2.487  0.00  0.00    -0.311 N 
ATOM      8  C   UNL     1       3.506  -1.554  -2.490  0.00  0.00    +0.237 C 
ATOM      9  O   UNL     1       4.194  -1.266  -1.534  0.00  0.00    -0.273 OA
ATOM     10  H   UNL     1       1.654  -1.424  -3.277  0.00  0.00    +0.149 HD
BRANCH   7  14
ATOM     11  C   UNL     1      -0.716  -0.394   0.514  0.00  0.00    +0.000 C 
ATOM     12  C   UNL     1      -0.313   0.727  -0.447  0.00  0.00    +0.002 C 
ATOM     13  C   UNL     1       0.332   0.122  -1.695  0.00  0.00    +0.022 C 
ATOM     14  C   UNL     1       1.574  -0.675  -1.292  0.00  0.00    +0.073 C 
ATOM     15  C   UNL     1       1.171  -1.796  -0.332  0.00  0.00    +0.022 C 
ATOM     16  C   UNL     1       0.526  -1.191   0.917  0.00  0.00    +0.002 C 
ENDBRANCH   7  14
ENDBRANCH   1   8
BRANCH   1  17
ATOM     17  N   UNL     1       3.476  -1.769  -4.907  0.00  0.00    -0.301 N 
ATOM     18  C   UNL     1       3.518  -0.461  -5.226  0.00  0.00    +0.216 C 
ATOM     19  O   UNL     1       4.012   0.336  -4.455  0.00  0.00    -0.276 OA
ATOM     20  H   UNL     1       3.019  -2.396  -5.490  0.00  0.00    +0.150 HD
BRANCH  18  21
ATOM     21  C   UNL     1       2.953   0.014  -6.540  0.00  0.00    +0.127 C 
BRANCH  21  22
ATOM     22  C   UNL     1       3.127   1.530  -6.652  0.00  0.00    +0.169 C 
ATOM     23  C   UNL     1       2.534   2.039  -7.951  0.00  0.00    +0.241 C 
ATOM     24  O   UNL     1       1.376   1.970  -8.304  0.00  0.00    -0.273 OA
ATOM     25  N   UNL     1       3.561   2.586  -8.631  0.00  0.00    -0.239 N 
ATOM     26  C   UNL     1       4.709   2.493  -7.950  0.00  0.00    +0.307 C 
ATOM     27  O   UNL     1       5.773   2.915  -8.358  0.00  0.00    -0.252 OA
ATOM     28  N   UNL     1       4.554   1.881  -6.758  0.00  0.00    -0.287 N 
ATOM     29  H   UNL     1       3.479   2.995  -9.506  0.00  0.00    +0.159 HD
ATOM     30  H   UNL     1       5.244   1.706  -6.099  0.00  0.00    +0.151 HD
ENDBRANCH  21  22
ENDBRANCH  18  21
ENDBRANCH   1  17
TORSDOF 5
