REMARK  Name = ZINC12275865
REMARK  5 active torsions:
REMARK  status: ('A' for Active; 'I' for Inactive)
REMARK    1  A    between atoms: C_1  and  C_2
REMARK    2  A    between atoms: N_4  and  C_19
REMARK    3  A    between atoms: N_8  and  N_9
REMARK    4  A    between atoms: N_9  and  C_10
REMARK    5  A    between atoms: C_19  and  N_21
REMARK                            x       y       z     vdW  Elec       q    Type
REMARK                         _______ _______ _______ _____ _____    ______ ____
ROOT
ATOM      1  C   UNL     1      -0.018   1.503   0.010  0.00  0.00    +0.070 C 
ATOM      2  C   UNL     1       0.002  -0.004   0.002  0.00  0.00    +0.089 C 
ATOM      3  N   UNL     1       0.008  -0.765  -1.049  0.00  0.00    -0.173 NA
ATOM      4  N   UNL     1       0.028  -2.115  -0.701  0.00  0.00    -0.134 N 
ATOM      5  C   UNL     1       0.035  -2.248   0.641  0.00  0.00    +0.294 C 
ATOM      6  O   UNL     1       0.052  -3.288   1.275  0.00  0.00    -0.266 OA
ATOM      7  C   UNL     1       0.025  -0.880   1.184  0.00  0.00    +0.168 C 
ATOM      8  N   UNL     1       0.032  -0.517   2.455  0.00  0.00    -0.175 NA
ENDROOT
BRANCH   8   9
ATOM      9  N   UNL     1       0.053  -1.415   3.381  0.00  0.00    -0.235 N 
ATOM     10  H   UNL     1       0.064  -2.355   3.145  0.00  0.00    +0.174 HD
BRANCH   9  11
ATOM     11  C   UNL     1       0.061  -1.032   4.723  0.00  0.00    +0.076 A 
ATOM     12  C   UNL     1       0.352   0.283   5.071  0.00  0.00    +0.042 A 
ATOM     13  C   UNL     1       0.358   0.658   6.401  0.00  0.00    +0.032 A 
ATOM     14  C   UNL     1       0.075  -0.272   7.386  0.00  0.00    +0.020 A 
ATOM     15  C   UNL     1      -0.215  -1.581   7.043  0.00  0.00    +0.032 A 
ATOM     16  C   UNL     1      -0.229  -1.963   5.715  0.00  0.00    +0.042 A 
ATOM     17 BR   UNL     1      -0.632  -3.750   5.247  0.00  0.00    -0.048 Br
ATOM     18 BR   UNL     1       0.086   0.246   9.204  0.00  0.00    -0.050 Br
ATOM     19 BR   UNL     1       0.740   1.554   3.727  0.00  0.00    -0.048 Br
ENDBRANCH   9  11
ENDBRANCH   8   9
BRANCH   4  20
ATOM     20  C   UNL     1       0.038  -3.138  -1.578  0.00  0.00    +0.158 C 
ATOM     21  S   UNL     1       0.062  -4.753  -1.010  0.00  0.00    -0.017 S 
BRANCH  20  22
ATOM     22  N   UNL     1       0.030  -2.890  -2.903  0.00  0.00    -0.339 N 
ATOM     23  H   UNL     1       0.017  -1.975  -3.225  0.00  0.00    +0.144 HD
ATOM     24  H   UNL     1       0.037  -3.626  -3.534  0.00  0.00    +0.144 HD
ENDBRANCH  20  22
ENDBRANCH   4  20
TORSDOF 4
