REMARK  Name = ZINC49180642
REMARK  8 active torsions:
REMARK  status: ('A' for Active; 'I' for Inactive)
REMARK    1  A    between atoms: C_1  and  C_2
REMARK    2  A    between atoms: C_4  and  C_14
REMARK    3  A    between atoms: N_16  and  C_17
REMARK    4  A    between atoms: C_17  and  C_18
REMARK    5  A    between atoms: C_18  and  C_20
REMARK    6  A    between atoms: C_18  and  C_21
REMARK    7  A    between atoms: C_21  and  O_22
REMARK    8  A    between atoms: O_22  and  C_23
REMARK                            x       y       z     vdW  Elec       q    Type
REMARK                         _______ _______ _______ _____ _____    ______ ____
ROOT
ATOM      1  C   UNL     1      -3.042  -2.434   0.276  0.00  0.00    +0.056 C 
ATOM      2  C   UNL     1      -2.409  -1.232   0.979  0.00  0.00    +0.220 C 
ATOM      3  C   UNL     1      -1.339  -0.608   0.074  0.00  0.00    +0.298 C 
ATOM      4  O   UNL     1      -0.759   0.503   0.766  0.00  0.00    -0.472 OA
ATOM      5  C   UNL     1      -0.411   0.299   2.066  0.00  0.00    +0.163 A 
ATOM      6  C   UNL     1       0.467   1.180   2.682  0.00  0.00    +0.049 A 
ATOM      7  C   UNL     1       0.827   0.988   4.003  0.00  0.00    +0.004 A 
ATOM      8  C   UNL     1       0.313  -0.081   4.713  0.00  0.00    +0.004 A 
ATOM      9  C   UNL     1      -0.560  -0.963   4.105  0.00  0.00    +0.049 A 
ATOM     10  C   UNL     1      -0.924  -0.777   2.780  0.00  0.00    +0.163 A 
ATOM     11  O   UNL     1      -1.779  -1.659   2.192  0.00  0.00    -0.481 OA
ENDROOT
BRANCH   3  12
ATOM     12  C   UNL     1      -1.972  -0.134  -1.209  0.00  0.00    +0.258 C 
ATOM     13  O   UNL     1      -2.412  -0.939  -2.002  0.00  0.00    -0.272 OA
ATOM     14  N   UNL     1      -2.048   1.185  -1.476  0.00  0.00    -0.312 N 
ATOM     15  H   UNL     1      -1.632   1.826  -0.878  0.00  0.00    +0.149 HD
BRANCH  14  16
ATOM     16  C   UNL     1      -2.759   1.652  -2.668  0.00  0.00    +0.109 C 
BRANCH  16  17
ATOM     17  C   UNL     1      -2.697   3.179  -2.735  0.00  0.00    +0.029 C 
ATOM     18  C   UNL     1      -1.245   3.622  -2.931  0.00  0.00    +0.011 C 
BRANCH  17  19
ATOM     19  C   UNL     1      -3.543   3.673  -3.910  0.00  0.00    +0.164 C 
BRANCH  19  20
ATOM     20  O   UNL     1      -3.580   5.102  -3.903  0.00  0.00    -0.383 OA
ATOM     21  C   UNL     1      -4.349   5.669  -4.965  0.00  0.00    +0.193 C 
ENDBRANCH  19  20
ENDBRANCH  17  19
ENDBRANCH  16  17
ENDBRANCH  14  16
ENDBRANCH   3  12
TORSDOF 5
