REMARK  Name = ZINC49474037
REMARK  2 active torsions:
REMARK  status: ('A' for Active; 'I' for Inactive)
REMARK    1  A    between atoms: C_8  and  C_13
REMARK    2  A    between atoms: C_13  and  C_14
REMARK                            x       y       z     vdW  Elec       q    Type
REMARK                         _______ _______ _______ _____ _____    ______ ____
ROOT
ATOM      1  C   UNL     1      -0.019   1.539   0.011  0.00  0.00    +0.020 C 
ATOM      2  C   UNL     1       1.488   1.907  -0.002  0.00  0.00    +0.020 C 
ATOM      3  C   UNL     1       2.092   0.776   0.868  0.00  0.00    +0.108 C 
ATOM      4  N   UNL     1       1.313  -0.426   0.518  0.00  0.00    -0.300 N 
ATOM      5  C   UNL     1       0.002  -0.004   0.002  0.00  0.00    +0.108 C 
ATOM      6  C   UNL     1       1.743  -1.730   0.651  0.00  0.00    +0.222 A 
ATOM      7  N   UNL     1       0.946  -2.735   0.294  0.00  0.00    -0.199 NA
ATOM      8  C   UNL     1       1.357  -3.984   0.421  0.00  0.00    +0.137 A 
ATOM      9  N   UNL     1       2.560  -4.242   0.903  0.00  0.00    -0.200 NA
ATOM     10  C   UNL     1       3.362  -3.243   1.263  0.00  0.00    +0.217 A 
ATOM     11  N   UNL     1       2.955  -1.985   1.131  0.00  0.00    -0.181 NA
ATOM     12  N   UNL     1       4.619  -3.513   1.767  0.00  0.00    -0.327 N 
ATOM     13  H   UNL     1       4.917  -4.431   1.859  0.00  0.00    +0.145 HD
ATOM     14  H   UNL     1       5.203  -2.784   2.028  0.00  0.00    +0.145 HD
ENDROOT
BRANCH   8  15
ATOM     15  C   UNL     1       0.451  -5.118   0.016  0.00  0.00    +0.092 C 
BRANCH  15  16
ATOM     16  C   UNL     1       0.688  -5.459  -1.457  0.00  0.00    +0.116 C 
ATOM     17 CL   UNL     1      -0.396  -6.816  -1.941  0.00  0.00    -0.125 Cl
ENDBRANCH  15  16
ENDBRANCH   8  15
TORSDOF 2
