REMARK  Name = ZINC32178289
REMARK  6 active torsions:
REMARK  status: ('A' for Active; 'I' for Inactive)
REMARK    1  A    between atoms: C_1  and  C_2
REMARK    2  A    between atoms: C_2  and  C_3
REMARK    3  A    between atoms: C_3  and  C_21
REMARK    4  A    between atoms: N_6  and  C_10
REMARK    5  A    between atoms: C_10  and  C_11
REMARK    6  A    between atoms: C_13  and  C_16
REMARK                            x       y       z     vdW  Elec       q    Type
REMARK                         _______ _______ _______ _____ _____    ______ ____
ROOT
ATOM      1  C   UNL     1       0.718  -0.497  -1.257  0.00  0.00    +0.138 C 
ATOM      2  C   UNL     1       0.081   0.093  -2.499  0.00  0.00    +0.251 C 
ATOM      3  O   UNL     1      -1.061  -0.057  -2.878  0.00  0.00    -0.272 OA
ATOM      4  N   UNL     1       1.047   0.819  -3.095  0.00  0.00    -0.215 N 
ATOM      5  C   UNL     1       2.195   0.770  -2.408  0.00  0.00    +0.310 C 
ATOM      6  O   UNL     1       3.210   1.345  -2.748  0.00  0.00    -0.252 OA
ATOM      7  N   UNL     1       2.099   0.013  -1.301  0.00  0.00    -0.281 N 
ATOM      8  H   UNL     1       2.803  -0.163  -0.657  0.00  0.00    +0.152 HD
ENDROOT
BRANCH   1   9
ATOM      9  C   UNL     1       0.707  -2.003  -1.315  0.00  0.00    -0.015 A 
ATOM     10  C   UNL     1      -0.340  -2.709  -0.752  0.00  0.00    +0.006 A 
ATOM     11  C   UNL     1      -0.350  -4.090  -0.806  0.00  0.00    +0.000 A 
ATOM     12  C   UNL     1       0.686  -4.766  -1.424  0.00  0.00    +0.000 A 
ATOM     13  C   UNL     1       1.732  -4.060  -1.988  0.00  0.00    +0.000 A 
ATOM     14  C   UNL     1       1.740  -2.679  -1.938  0.00  0.00    +0.006 A 
ENDBRANCH   1   9
BRANCH   1  16
ATOM     15  C   UNL     1      -0.019   1.526   0.010  0.00  0.00    +0.007 C 
ATOM     16  C   UNL     1       0.002  -0.004   0.002  0.00  0.00    +0.037 C 
ENDBRANCH   1  16
BRANCH   4  17
ATOM     17  C   UNL     1       0.864   1.569  -4.340  0.00  0.00    +0.216 C 
BRANCH  17  18
ATOM     18  C   UNL     1       0.403   2.967  -4.021  0.00  0.00    +0.246 A 
ATOM     19  N   UNL     1       1.177   3.995  -3.820  0.00  0.00    -0.190 NA
ATOM     20  C   UNL     1       0.433   5.088  -3.559  0.00  0.00    +0.209 A 
ATOM     21  N   UNL     1      -0.835   4.749  -3.596  0.00  0.00    -0.055 NA
ATOM     22  O   UNL     1      -0.871   3.363  -3.903  0.00  0.00    -0.336 OA
BRANCH  20  23
ATOM     23  C   UNL     1       0.956   6.441  -3.280  0.00  0.00    +0.060 A 
ATOM     24  C   UNL     1       0.268   7.592  -3.002  0.00  0.00    +0.019 A 
ATOM     25  C   UNL     1       0.978   8.748  -2.772  0.00  0.00    +0.008 A 
ATOM     26  C   UNL     1       2.335   8.714  -2.826  0.00  0.00    +0.046 A 
ATOM     27  S   UNL     1       2.651   6.999  -3.208  0.00  0.00    -0.093 S 
ENDBRANCH  20  23
ENDBRANCH  17  18
ENDBRANCH   4  17
TORSDOF 5
