REMARK  Name = ZINC58159697
REMARK  10 active torsions:
REMARK  status: ('A' for Active; 'I' for Inactive)
REMARK    1  A    between atoms: C_1  and  C_2
REMARK    2  A    between atoms: C_2  and  N_3
REMARK    3  A    between atoms: N_3  and  C_4
REMARK    4  A    between atoms: C_5  and  N_20
REMARK    5  A    between atoms: N_6  and  C_13
REMARK    6  A    between atoms: C_13  and  C_14
REMARK    7  A    between atoms: C_21  and  C_23
REMARK    8  A    between atoms: C_23  and  N_24
REMARK    9  A    between atoms: N_27  and  C_30
REMARK   10  A    between atoms: C_35  and  O_36
REMARK                            x       y       z     vdW  Elec       q    Type
REMARK                         _______ _______ _______ _____ _____    ______ ____
ROOT
ATOM      1  N   UNL     1       0.689  -0.502   1.129  0.00  0.00    -0.263 N 
ATOM      2  C   UNL     1       1.983  -0.822   0.915  0.00  0.00    +0.234 C 
ATOM      3  O   UNL     1       2.634  -1.339   1.799  0.00  0.00    -0.274 OA
ENDROOT
BRANCH   1   4
ATOM      4  C   UNL     1       0.125  -0.665   2.412  0.00  0.00    +0.140 A 
ATOM      5  C   UNL     1      -0.874  -1.593   2.627  0.00  0.00    +0.128 A 
ATOM      6  N   UNL     1      -1.404  -1.728   3.889  0.00  0.00    -0.276 N 
ATOM      7  C   UNL     1      -0.955  -0.965   4.901  0.00  0.00    +0.331 A 
ATOM      8  O   UNL     1      -1.437  -1.099   6.010  0.00  0.00    -0.246 OA
ATOM      9  N   UNL     1       0.017  -0.056   4.711  0.00  0.00    -0.273 N 
ATOM     10  H   UNL     1       0.324   0.483   5.457  0.00  0.00    +0.173 HD
ATOM     11  C   UNL     1       0.575   0.113   3.495  0.00  0.00    +0.277 A 
ATOM     12  O   UNL     1       1.459   0.936   3.334  0.00  0.00    -0.266 OA
BRANCH   5  13
ATOM     13  N   UNL     1      -1.333  -2.373   1.593  0.00  0.00    -0.343 N 
ATOM     14  H   UNL     1      -1.003  -2.227   0.692  0.00  0.00    +0.144 HD
ATOM     15  H   UNL     1      -1.987  -3.068   1.763  0.00  0.00    +0.144 HD
ENDBRANCH   5  13
BRANCH   6  16
ATOM     16  C   UNL     1      -2.464  -2.709   4.132  0.00  0.00    +0.163 C 
BRANCH  16  17
ATOM     17  C   UNL     1      -1.849  -4.029   4.521  0.00  0.00    -0.028 A 
ATOM     18  C   UNL     1      -1.525  -4.955   3.547  0.00  0.00    +0.005 A 
ATOM     19  C   UNL     1      -0.961  -6.165   3.905  0.00  0.00    +0.000 A 
ATOM     20  C   UNL     1      -0.719  -6.449   5.236  0.00  0.00    +0.000 A 
ATOM     21  C   UNL     1      -1.041  -5.522   6.210  0.00  0.00    +0.000 A 
ATOM     22  C   UNL     1      -1.602  -4.310   5.852  0.00  0.00    +0.005 A 
ENDBRANCH  16  17
ENDBRANCH   6  16
ENDBRANCH   1   4
BRANCH   1  24
ATOM     23  C   UNL     1      -0.119   1.543   0.059  0.00  0.00    +0.025 C 
ATOM     24  C   UNL     1      -0.129   0.013   0.029  0.00  0.00    +0.110 C 
ENDBRANCH   1  24
BRANCH   2  25
ATOM     25  C   UNL     1       2.619  -0.536  -0.420  0.00  0.00    +0.181 C 
BRANCH  25  26
ATOM     26  N   UNL     1       4.021  -0.973  -0.399  0.00  0.00    -0.291 NA
ATOM     27  C   UNL     1       4.115  -2.433  -0.264  0.00  0.00    +0.104 C 
ATOM     28  C   UNL     1       5.581  -2.831  -0.064  0.00  0.00    +0.120 C 
ATOM     29  N   UNL     1       6.376  -2.255  -1.159  0.00  0.00    -0.325 N 
ATOM     30  C   UNL     1       6.230  -0.819  -1.444  0.00  0.00    +0.120 C 
ATOM     31  C   UNL     1       4.739  -0.500  -1.590  0.00  0.00    +0.104 C 
BRANCH  29  32
ATOM     32  C   UNL     1       7.247  -3.051  -1.911  0.00  0.00    +0.072 A 
ATOM     33  C   UNL     1       6.795  -3.686  -3.058  0.00  0.00    +0.027 A 
ATOM     34  C   UNL     1       7.658  -4.472  -3.799  0.00  0.00    +0.002 A 
ATOM     35  C   UNL     1       8.972  -4.627  -3.399  0.00  0.00    +0.004 A 
ATOM     36  C   UNL     1       9.430  -3.998  -2.256  0.00  0.00    +0.047 A 
ATOM     37  C   UNL     1       8.573  -3.204  -1.511  0.00  0.00    +0.138 A 
BRANCH  37  38
ATOM     38  O   UNL     1       9.024  -2.580  -0.390  0.00  0.00    -0.505 OA
ATOM     39  H   UNL     1       8.927  -3.104   0.417  0.00  0.00    +0.292 HD
ENDBRANCH  37  38
ENDBRANCH  29  32
ENDBRANCH  25  26
ENDBRANCH   2  25
TORSDOF 9
