REMARK  Name = ZINC02570507
REMARK  8 active torsions:
REMARK  status: ('A' for Active; 'I' for Inactive)
REMARK    1  A    between atoms: C_1  and  C_2
REMARK    2  A    between atoms: C_2  and  C_3
REMARK    3  A    between atoms: C_2  and  O_10
REMARK    4  A    between atoms: C_2  and  P_11
REMARK    5  A    between atoms: P_11  and  O_13
REMARK    6  A    between atoms: P_11  and  O_15
REMARK    7  A    between atoms: O_13  and  C_14
REMARK    8  A    between atoms: O_15  and  C_16
REMARK                            x       y       z     vdW  Elec       q    Type
REMARK                         _______ _______ _______ _____ _____    ______ ____
ROOT
ATOM      1  C   UNL     1       3.786   2.976  -1.325  0.00  0.00    +0.060 C 
ATOM      2  C   UNL     1       3.672   2.184  -0.021  0.00  0.00    +0.189 C 
ENDROOT
BRANCH   2   3
ATOM      3  C   UNL     1       2.377   1.412  -0.013  0.00  0.00    -0.005 A 
ATOM      4  C   UNL     1       1.171   2.087   0.002  0.00  0.00    +0.010 A 
ATOM      5  C   UNL     1      -0.017   1.380   0.010  0.00  0.00    +0.039 A 
ATOM      6  C   UNL     1       0.002  -0.004   0.002  0.00  0.00    +0.123 A 
ATOM      7  C   UNL     1       1.211  -0.679  -0.013  0.00  0.00    +0.039 A 
ATOM      8  C   UNL     1       2.397   0.030  -0.021  0.00  0.00    +0.010 A 
ATOM      9  F   UNL     1      -1.158  -0.696   0.010  0.00  0.00    -0.205 F 
ENDBRANCH   2   3
BRANCH   2  10
ATOM     10  O   UNL     1       4.769   1.274   0.082  0.00  0.00    -0.373 OA
ATOM     11  H   UNL     1       4.762   0.738   0.886  0.00  0.00    +0.211 HD
ENDBRANCH   2  10
BRANCH   2  12
ATOM     12  P   UNL     1       3.702   3.334   1.393  0.00  0.00    +0.368 P 
ATOM     13  O   UNL     1       3.835   2.566   2.651  0.00  0.00    -0.255 OA
BRANCH  12  14
ATOM     14  O   UNL     1       4.952   4.338   1.242  0.00  0.00    -0.309 OA
ATOM     15  C   UNL     1       5.309   5.292   2.244  0.00  0.00    +0.204 C 
ENDBRANCH  12  14
BRANCH  12  16
ATOM     16  O   UNL     1       2.333   4.182   1.424  0.00  0.00    -0.309 OA
ATOM     17  C   UNL     1       2.008   5.096   2.474  0.00  0.00    +0.204 C 
ENDBRANCH  12  16
ENDBRANCH   2  12
TORSDOF 5
