REMARK  Name = ZINC04477951
REMARK  7 active torsions:
REMARK  status: ('A' for Active; 'I' for Inactive)
REMARK    1  A    between atoms: C_1  and  C_2
REMARK    2  A    between atoms: C_2  and  C_3
REMARK    3  A    between atoms: C_3  and  C_4
REMARK    4  A    between atoms: C_6  and  C_26
REMARK    5  A    between atoms: C_8  and  C_20
REMARK    6  A    between atoms: C_11  and  C_12
REMARK    7  A    between atoms: C_11  and  O_19
REMARK                            x       y       z     vdW  Elec       q    Type
REMARK                         _______ _______ _______ _____ _____    ______ ____
ROOT
ATOM      1  C   UNL     1       2.571  -4.673   0.380  0.00  0.00    +0.015 C 
ATOM      2  C   UNL     1       2.538  -4.119  -1.046  0.00  0.00    -0.034 C 
ATOM      3  C   UNL     1       1.424  -2.101  -0.297  0.00  0.00    -0.037 C 
ATOM      4  C   UNL     1       1.424  -2.595   1.151  0.00  0.00    +0.028 C 
ATOM      5  C   UNL     1       1.374  -4.125   1.163  0.00  0.00    +0.091 C 
ATOM      6  N   UNL     1       2.597  -2.645  -1.008  0.00  0.00    +0.388 N 
ATOM      7  H   UNL     1       2.608  -2.283  -1.969  0.00  0.00    -0.084 HD
ATOM      8  H   UNL     1       3.453  -2.353  -0.522  0.00  0.00    -0.084 HD
ENDROOT
BRANCH   5   9
ATOM      9  C   UNL     1       1.435  -4.619   2.586  0.00  0.00    -0.016 A 
ATOM     10  C   UNL     1       2.657  -4.890   3.172  0.00  0.00    +0.009 A 
ATOM     11  C   UNL     1       2.714  -5.338   4.478  0.00  0.00    +0.039 A 
ATOM     12  C   UNL     1       1.545  -5.527   5.196  0.00  0.00    +0.123 A 
ATOM     13  C   UNL     1       0.321  -5.260   4.606  0.00  0.00    +0.039 A 
ATOM     14  C   UNL     1       0.267  -4.806   3.302  0.00  0.00    +0.009 A 
ATOM     15  F   UNL     1       1.599  -5.971   6.471  0.00  0.00    -0.205 F 
ENDBRANCH   5   9
BRANCH   3  16
ATOM     16  C   UNL     1       1.493  -0.595  -0.315  0.00  0.00    -0.061 A 
ATOM     17  C   UNL     1       0.343   0.147  -0.512  0.00  0.00    +0.002 A 
ATOM     18  C   UNL     1       0.406   1.528  -0.527  0.00  0.00    +0.000 A 
ATOM     19  C   UNL     1       1.619   2.166  -0.346  0.00  0.00    +0.000 A 
ATOM     20  C   UNL     1       2.768   1.424  -0.149  0.00  0.00    +0.000 A 
ATOM     21  C   UNL     1       2.705   0.043  -0.133  0.00  0.00    +0.002 A 
ENDBRANCH   3  16
BRANCH   2  22
ATOM     22  C   UNL     1       1.267  -4.558  -1.726  0.00  0.00    -0.061 A 
ATOM     23  C   UNL     1       0.960  -5.903  -1.814  0.00  0.00    +0.002 A 
ATOM     24  C   UNL     1      -0.209  -6.306  -2.433  0.00  0.00    +0.000 A 
ATOM     25  C   UNL     1      -1.065  -5.365  -2.974  0.00  0.00    +0.000 A 
ATOM     26  C   UNL     1      -0.755  -4.020  -2.890  0.00  0.00    +0.000 A 
ATOM     27  C   UNL     1       0.410  -3.617  -2.266  0.00  0.00    +0.002 A 
ENDBRANCH   2  22
BRANCH   5  28
ATOM     28  O   UNL     1       0.160  -4.568   0.555  0.00  0.00    -0.384 OA
ATOM     29  H   UNL     1      -0.640  -4.254   0.998  0.00  0.00    +0.211 HD
ENDBRANCH   5  28
BRANCH   1  30
ATOM     30  C   UNL     1       2.496  -6.200   0.337  0.00  0.00    +0.005 C 
BRANCH  30  32
ATOM     31  C   UNL     1       3.473  -8.262  -0.681  0.00  0.00    +0.004 C 
ATOM     32  C   UNL     1       3.548  -6.734  -0.638  0.00  0.00    -0.003 C 
ENDBRANCH  30  32
ENDBRANCH   1  30
TORSDOF 6
