REMARK  Name = ZINC08254688
REMARK  9 active torsions:
REMARK  status: ('A' for Active; 'I' for Inactive)
REMARK    1  A    between atoms: C_1  and  O_2
REMARK    2  A    between atoms: O_2  and  C_3
REMARK    3  A    between atoms: C_5  and  N_11
REMARK    4  A    between atoms: C_7  and  O_9
REMARK    5  A    between atoms: O_9  and  C_10
REMARK    6  A    between atoms: C_16  and  O_35
REMARK    7  A    between atoms: C_18  and  O_34
REMARK    8  A    between atoms: C_21  and  C_26
REMARK    9  A    between atoms: N_28  and  C_29
REMARK                            x       y       z     vdW  Elec       q    Type
REMARK                         _______ _______ _______ _____ _____    ______ ____
ROOT
ATOM      1  N   UNL     1       0.131  -2.495   2.732  0.00  0.00    -0.294 N 
ATOM      2  C   UNL     1       0.216  -1.822   1.533  0.00  0.00    +0.154 C 
ATOM      3  N   UNL     1      -0.293  -0.658   1.250  0.00  0.00    -0.256 NA
ATOM      4  C   UNL     1      -0.151  -0.092  -0.065  0.00  0.00    +0.153 C 
ATOM      5  C   UNL     1      -0.047   1.400  -0.119  0.00  0.00    +0.168 C 
ATOM      6  C   UNL     1       1.383   1.886  -0.334  0.00  0.00    +0.146 C 
ATOM      7  C   UNL     1       1.925   1.229  -1.608  0.00  0.00    +0.048 C 
ATOM      8  C   UNL     1       2.042  -0.270  -1.369  0.00  0.00    +0.093 C 
ATOM      9  C   UNL     1       0.711  -0.905  -1.013  0.00  0.00    +0.093 C 
ATOM     10  S   UNL     1       1.047  -2.368   0.053  0.00  0.00    -0.084 S 
ATOM     11  H   UNL     1       0.618  -3.324   2.858  0.00  0.00    +0.154 HD
ENDROOT
BRANCH   1  14
ATOM     12  C   UNL     1      -2.562  -0.712   4.498  0.00  0.00    +0.125 A 
ATOM     13  C   UNL     1      -1.780  -1.219   3.472  0.00  0.00    +0.069 A 
ATOM     14  C   UNL     1      -0.658  -1.983   3.766  0.00  0.00    +0.040 A 
ATOM     15  C   UNL     1      -0.325  -2.243   5.088  0.00  0.00    +0.069 A 
ATOM     16  C   UNL     1      -1.105  -1.731   6.114  0.00  0.00    +0.125 A 
ATOM     17  C   UNL     1      -2.224  -0.967   5.819  0.00  0.00    +0.091 A 
BRANCH  12  19
ATOM     18  C   UNL     1      -4.419   0.526   5.316  0.00  0.00    +0.277 C 
ATOM     19  O   UNL     1      -3.659   0.036   4.210  0.00  0.00    -0.495 OA
ENDBRANCH  12  19
BRANCH  16  20
ATOM     20  O   UNL     1      -0.775  -1.980   7.408  0.00  0.00    -0.495 OA
ATOM     21  C   UNL     1      -1.626  -1.425   8.413  0.00  0.00    +0.277 C 
ENDBRANCH  16  20
ENDBRANCH   1  14
BRANCH   8  22
ATOM     22  C   UNL     1       2.575  -0.922  -2.618  0.00  0.00    +0.218 C 
ATOM     23  O   UNL     1       1.942  -1.804  -3.160  0.00  0.00    -0.275 OA
ATOM     24  N   UNL     1       3.755  -0.524  -3.135  0.00  0.00    -0.312 N 
ATOM     25  H   UNL     1       4.261   0.181  -2.702  0.00  0.00    +0.149 HD
BRANCH  24  26
ATOM     26  C   UNL     1       4.273  -1.158  -4.350  0.00  0.00    +0.073 C 
ATOM     27  C   UNL     1       5.102  -2.406  -3.983  0.00  0.00    +0.022 C 
ATOM     28  C   UNL     1       6.269  -2.401  -5.002  0.00  0.00    +0.002 C 
ATOM     29  C   UNL     1       6.602  -0.894  -5.131  0.00  0.00    +0.002 C 
ATOM     30  C   UNL     1       5.227  -0.196  -5.080  0.00  0.00    +0.022 C 
ENDBRANCH  24  26
ENDBRANCH   8  22
BRANCH   6  31
ATOM     31  O   UNL     1       1.392   3.308  -0.483  0.00  0.00    -0.389 OA
ATOM     32  H   UNL     1       2.272   3.683  -0.623  0.00  0.00    +0.210 HD
ENDBRANCH   6  31
BRANCH   5  33
ATOM     33  O   UNL     1      -0.538   1.941   1.109  0.00  0.00    -0.387 OA
ATOM     34  H   UNL     1      -0.505   2.907   1.155  0.00  0.00    +0.210 HD
ENDBRANCH   5  33
TORSDOF 7
