REMARK  Name = ZINC08817301
REMARK  10 active torsions:
REMARK  status: ('A' for Active; 'I' for Inactive)
REMARK    1  A    between atoms: C_1  and  C_2
REMARK    2  A    between atoms: C_2  and  C_3
REMARK    3  A    between atoms: C_2  and  C_4
REMARK    4  A    between atoms: C_2  and  C_5
REMARK    5  A    between atoms: C_8  and  C_11
REMARK    6  A    between atoms: C_11  and  N_12
REMARK    7  A    between atoms: N_19  and  C_22
REMARK    8  A    between atoms: C_22  and  C_23
REMARK    9  A    between atoms: C_23  and  C_25
REMARK   10  A    between atoms: C_28  and  N_31
REMARK                            x       y       z     vdW  Elec       q    Type
REMARK                         _______ _______ _______ _____ _____    ______ ____
ROOT
ATOM      1  N   UNL     1       2.520  -0.898  -5.833  0.00  0.00    -0.309 N 
ATOM      2  C   UNL     1       1.494  -0.906  -6.725  0.00  0.00    +0.068 A 
ATOM      3  C   UNL     1       0.389  -1.741  -6.908  0.00  0.00    +0.028 A 
ATOM      4  C   UNL     1      -0.499  -1.485  -7.930  0.00  0.00    +0.002 A 
ATOM      5  C   UNL     1      -0.304  -0.406  -8.778  0.00  0.00    +0.002 A 
ATOM      6  C   UNL     1       0.783   0.427  -8.611  0.00  0.00    +0.028 A 
ATOM      7  C   UNL     1       1.687   0.185  -7.587  0.00  0.00    +0.069 A 
ATOM      8  N   UNL     1       2.847   0.812  -7.162  0.00  0.00    -0.306 N 
ATOM      9  C   UNL     1       3.313   0.114  -6.085  0.00  0.00    +0.175 A 
ATOM     10  N   UNL     1       4.450   0.426  -5.371  0.00  0.00    -0.330 N 
ATOM     11  H   UNL     1       4.716  -0.124  -4.617  0.00  0.00    +0.145 HD
ATOM     12  H   UNL     1       4.985   1.195  -5.622  0.00  0.00    +0.145 HD
ENDROOT
BRANCH   1  13
ATOM     13  C   UNL     1       2.707  -1.868  -4.752  0.00  0.00    +0.160 C 
BRANCH  13  17
ATOM     14  C   UNL     1       0.707  -0.490  -1.238  0.00  0.00    -0.042 A 
ATOM     15  C   UNL     1       0.036  -1.284  -2.148  0.00  0.00    +0.004 A 
ATOM     16  C   UNL     1       0.683  -1.730  -3.286  0.00  0.00    +0.005 A 
ATOM     17  C   UNL     1       2.001  -1.381  -3.513  0.00  0.00    -0.028 A 
ATOM     18  C   UNL     1       2.672  -0.586  -2.603  0.00  0.00    +0.005 A 
ATOM     19  C   UNL     1       2.024  -0.137  -1.467  0.00  0.00    +0.004 A 
BRANCH  14  21
ATOM     20  C   UNL     1      -0.019   1.526   0.010  0.00  0.00    +0.015 C 
ATOM     21  C   UNL     1       0.002  -0.004   0.002  0.00  0.00    -0.013 C 
ATOM     22  C   UNL     1       0.742  -0.511   1.242  0.00  0.00    +0.015 C 
ATOM     23  C   UNL     1      -1.433  -0.534   0.013  0.00  0.00    +0.015 C 
ENDBRANCH  14  21
ENDBRANCH  13  17
ENDBRANCH   1  13
BRANCH   8  24
ATOM     24  C   UNL     1       3.457   2.006  -7.754  0.00  0.00    +0.204 C 
BRANCH  24  25
ATOM     25  C   UNL     1       2.902   3.237  -7.086  0.00  0.00    +0.183 C 
ATOM     26  O   UNL     1       2.078   3.129  -6.203  0.00  0.00    -0.290 OA
BRANCH  25  27
ATOM     27  C   UNL     1       3.360   4.572  -7.506  0.00  0.00    +0.019 A 
ATOM     28  C   UNL     1       4.305   4.701  -8.528  0.00  0.00    +0.013 A 
ATOM     29  C   UNL     1       4.729   5.954  -8.915  0.00  0.00    +0.033 A 
ATOM     30  C   UNL     1       4.222   7.083  -8.295  0.00  0.00    +0.126 A 
ATOM     31  C   UNL     1       3.285   6.963  -7.283  0.00  0.00    +0.033 A 
ATOM     32  C   UNL     1       2.847   5.717  -6.888  0.00  0.00    +0.013 A 
BRANCH  30  33
ATOM     33  N   UNL     1       4.683   8.425  -8.717  0.00  0.00    +0.056 N 
ATOM     34  O   UNL     1       5.501   8.533  -9.601  0.00  0.00    -0.126 OA
ATOM     35  O   UNL     1       4.242   9.412  -8.177  0.00  0.00    -0.126 OA
ENDBRANCH  30  33
ENDBRANCH  25  27
ENDBRANCH  24  25
ENDBRANCH   8  24
TORSDOF 7
