REMARK  Name = ZINC39895267
REMARK  8 active torsions:
REMARK  status: ('A' for Active; 'I' for Inactive)
REMARK    1  A    between atoms: C_2  and  C_3
REMARK    2  A    between atoms: C_3  and  N_4
REMARK    3  A    between atoms: C_5  and  C_7
REMARK    4  A    between atoms: C_10  and  C_17
REMARK    5  A    between atoms: C_11  and  C_15
REMARK    6  A    between atoms: C_12  and  N_14
REMARK    7  A    between atoms: C_24  and  N_25
REMARK    8  A    between atoms: N_25  and  C_26
REMARK                            x       y       z     vdW  Elec       q    Type
REMARK                         _______ _______ _______ _____ _____    ______ ____
ROOT
ATOM      1  C   UNL     1       2.730  -3.456   2.375  0.00  0.00    +0.091 A 
ATOM      2  C   UNL     1       2.231  -4.824   2.239  0.00  0.00    +0.095 A 
ATOM      3  C   UNL     1       2.111  -5.535   3.448  0.00  0.00    +0.049 A 
ATOM      4  C   UNL     1       1.652  -6.842   3.486  0.00  0.00    +0.019 A 
ATOM      5  C   UNL     1       1.302  -7.457   2.262  0.00  0.00    +0.100 A 
ATOM      6  C   UNL     1       1.441  -6.701   1.083  0.00  0.00    +0.135 A 
ATOM      7  N   UNL     1       1.881  -5.464   1.102  0.00  0.00    -0.230 NA
ATOM      8  S   UNL     1       2.651  -4.391   4.691  0.00  0.00    -0.071 S 
ATOM      9  C   UNL     1       3.037  -2.997   3.651  0.00  0.00    +0.085 A 
ENDROOT
BRANCH   4  10
ATOM     10  C   UNL     1       1.534  -7.573   4.769  0.00  0.00    -0.015 A 
ATOM     11  C   UNL     1       2.675  -7.866   5.516  0.00  0.00    +0.008 A 
ATOM     12  C   UNL     1       2.557  -8.547   6.710  0.00  0.00    +0.001 A 
ATOM     13  C   UNL     1       1.312  -8.939   7.167  0.00  0.00    +0.000 A 
ATOM     14  C   UNL     1       0.176  -8.651   6.431  0.00  0.00    +0.001 A 
ATOM     15  C   UNL     1       0.280  -7.965   5.238  0.00  0.00    +0.008 A 
ENDBRANCH   4  10
BRANCH   1  17
ATOM     16  N   UNL     1       1.895  -1.813   0.786  0.00  0.00    -0.308 N 
ATOM     17  C   UNL     1       2.907  -2.599   1.204  0.00  0.00    +0.249 C 
ATOM     18  O   UNL     1       3.968  -2.596   0.607  0.00  0.00    -0.270 OA
ATOM     19  H   UNL     1       1.050  -1.815   1.262  0.00  0.00    +0.149 HD
BRANCH  16  20
ATOM     20  C   UNL     1       2.072  -0.954  -0.388  0.00  0.00    +0.131 C 
BRANCH  20  22
ATOM     21  C   UNL     1       0.835   1.125  -0.719  0.00  0.00    +0.005 C 
ATOM     22  C   UNL     1       0.803  -0.183  -0.642  0.00  0.00    -0.016 C 
ENDBRANCH  20  22
ENDBRANCH  16  20
ENDBRANCH   1  17
BRANCH   6  23
ATOM     23  N   UNL     1       1.105  -7.279  -0.132  0.00  0.00    -0.342 N 
ATOM     24  H   UNL     1       0.779  -8.192  -0.161  0.00  0.00    +0.144 HD
ATOM     25  H   UNL     1       1.196  -6.770  -0.953  0.00  0.00    +0.144 HD
ENDBRANCH   6  23
BRANCH   5  26
ATOM     26  C   UNL     1       0.821  -8.805   2.223  0.00  0.00    +0.103 C 
ATOM     27  N   UNL     1       0.439  -9.874   2.192  0.00  0.00    -0.191 NA
ENDBRANCH   5  26
BRANCH   9  28
ATOM     28  N   UNL     1       3.521  -1.764   4.020  0.00  0.00    -0.308 N 
ATOM     29  H   UNL     1       3.604  -1.058   3.361  0.00  0.00    +0.153 HD
BRANCH  28  30
ATOM     30  C   UNL     1       3.892  -1.528   5.347  0.00  0.00    +0.032 A 
ATOM     31  C   UNL     1       3.701  -0.273   5.911  0.00  0.00    +0.023 A 
ATOM     32  C   UNL     1       4.069  -0.044   7.222  0.00  0.00    +0.002 A 
ATOM     33  C   UNL     1       4.628  -1.062   7.973  0.00  0.00    +0.000 A 
ATOM     34  C   UNL     1       4.819  -2.312   7.415  0.00  0.00    +0.002 A 
ATOM     35  C   UNL     1       4.448  -2.550   6.106  0.00  0.00    +0.023 A 
ENDBRANCH  28  30
ENDBRANCH   9  28
TORSDOF 8
