REMARK  Name = ZINC44865324
REMARK  7 active torsions:
REMARK  status: ('A' for Active; 'I' for Inactive)
REMARK    1  A    between atoms: C_1  and  C_2
REMARK    2  A    between atoms: C_2  and  C_3
REMARK    3  A    between atoms: C_3  and  C_5
REMARK    4  A    between atoms: C_3  and  C_9
REMARK    5  A    between atoms: N_6  and  O_7
REMARK    6  A    between atoms: C_14  and  C_17
REMARK    7  A    between atoms: C_17  and  O_18
REMARK                            x       y       z     vdW  Elec       q    Type
REMARK                         _______ _______ _______ _____ _____    ______ ____
ROOT
ATOM      1  C   UNL     1      -2.128  -0.047  -1.100  0.00  0.00    +0.226 C 
ATOM      2  O   UNL     1      -2.743  -0.849  -1.771  0.00  0.00    -0.275 OA
ATOM      3  N   UNL     1      -2.146   1.260  -1.428  0.00  0.00    -0.301 N 
ATOM      4  C   UNL     1      -1.498   2.258  -0.566  0.00  0.00    +0.108 C 
ATOM      5  C   UNL     1      -2.515   3.352  -0.228  0.00  0.00    +0.025 C 
ATOM      6  C   UNL     1      -3.094   3.923  -1.524  0.00  0.00    +0.017 C 
ATOM      7  C   UNL     1      -3.815   2.815  -2.295  0.00  0.00    +0.025 C 
ATOM      8  C   UNL     1      -2.807   1.714  -2.659  0.00  0.00    +0.108 C 
ENDROOT
BRANCH   1   9
ATOM      9  C   UNL     1      -1.345  -0.511   0.101  0.00  0.00    +0.141 C 
BRANCH   9  10
ATOM     10  C   UNL     1      -2.268  -0.633   1.286  0.00  0.00    +0.144 C 
ATOM     11  N   UNL     1      -2.800  -1.774   1.577  0.00  0.00    -0.076 NA
ATOM     12  N   UNL     1      -2.545   0.472   2.059  0.00  0.00    -0.343 N 
ATOM     13  H   UNL     1      -2.146   1.329   1.841  0.00  0.00    +0.144 HD
ATOM     14  H   UNL     1      -3.139   0.394   2.822  0.00  0.00    +0.144 HD
BRANCH  11  15
ATOM     15  O   UNL     1      -3.667  -1.889   2.690  0.00  0.00    -0.408 OA
ATOM     16  H   UNL     1      -4.015  -2.780   2.828  0.00  0.00    +0.328 HD
ENDBRANCH  11  15
ENDBRANCH   9  10
BRANCH   9  18
ATOM     17  C   UNL     1       0.326  -1.722  -1.307  0.00  0.00    +0.005 C 
ATOM     18  C   UNL     1      -0.715  -1.874  -0.197  0.00  0.00    +0.017 C 
ENDBRANCH   9  18
ENDBRANCH   1   9
BRANCH   6  19
ATOM     19  C   UNL     1      -4.085   5.041  -1.192  0.00  0.00    +0.159 C 
BRANCH  19  20
ATOM     20  O   UNL     1      -4.537   5.652  -2.401  0.00  0.00    -0.395 OA
ATOM     21  H   UNL     1      -5.169   6.371  -2.266  0.00  0.00    +0.209 HD
ENDBRANCH  19  20
ENDBRANCH   6  19
TORSDOF 6
