REMARK  Name = ZINC23376364
REMARK  5 active torsions:
REMARK  status: ('A' for Active; 'I' for Inactive)
REMARK    1  A    between atoms: C_4  and  C_7
REMARK    2  A    between atoms: C_7  and  C_9
REMARK    3  A    between atoms: C_7  and  N_15
REMARK    4  A    between atoms: N_18  and  C_21
REMARK    5  A    between atoms: C_21  and  C_22
REMARK                            x       y       z     vdW  Elec       q    Type
REMARK                         _______ _______ _______ _____ _____    ______ ____
ROOT
ATOM      1  C   UNL     1      -0.018   1.503   0.010  0.00  0.00    +0.174 C 
ENDROOT
BRANCH   1   2
ATOM      2  C   UNL     1      -0.610   2.080   1.270  0.00  0.00    +0.242 C 
ATOM      3  O   UNL     1      -1.527   2.871   1.202  0.00  0.00    -0.273 OA
ATOM      4  N   UNL     1      -0.120   1.718   2.472  0.00  0.00    -0.239 N 
ATOM      5  C   UNL     1      -0.649   2.235   3.599  0.00  0.00    +0.303 C 
ATOM      6  O   UNL     1      -1.568   3.027   3.531  0.00  0.00    -0.253 OA
ATOM      7  N   UNL     1      -0.159   1.873   4.801  0.00  0.00    -0.313 N 
ATOM      8  H   UNL     1       0.712   1.001   2.534  0.00  0.00    +0.159 HD
ATOM      9  H   UNL     1      -0.591   2.295   5.721  0.00  0.00    +0.146 HD
ATOM     10  H   UNL     1       0.672   1.156   4.863  0.00  0.00    +0.146 HD
ENDBRANCH   1   2
BRANCH   1  11
ATOM     11  N   UNL     1      -1.041   1.479  -1.044  0.00  0.00    -0.291 NA
ATOM     12  C   UNL     1      -2.200   0.673  -0.636  0.00  0.00    +0.067 C 
ATOM     13  C   UNL     1      -3.272   0.738  -1.726  0.00  0.00    -0.063 C 
ATOM     14  N   UNL     1      -2.712   0.245  -2.992  0.00  0.00    +0.384 N 
ATOM     15  C   UNL     1      -1.552   1.051  -3.400  0.00  0.00    -0.063 C 
ATOM     16  C   UNL     1      -0.480   0.986  -2.310  0.00  0.00    +0.067 C 
ATOM     17  H   UNL     1      -2.368  -0.787  -2.832  0.00  0.00    -0.081 HD
BRANCH  14  18
ATOM     18  C   UNL     1      -3.734   0.221  -4.046  0.00  0.00    -0.042 C 
BRANCH  18  19
ATOM     19  C   UNL     1      -4.997  -0.399  -3.508  0.00  0.00    -0.057 A 
ATOM     20  C   UNL     1      -5.206  -1.762  -3.606  0.00  0.00    +0.009 A 
ATOM     21  C   UNL     1      -6.351  -2.289  -3.106  0.00  0.00    +0.045 A 
ATOM     22  S   UNL     1      -7.184  -0.838  -2.483  0.00  0.00    -0.105 S 
ATOM     23  C   UNL     1      -5.947   0.371  -2.924  0.00  0.00    +0.047 A 
ENDBRANCH  18  19
ENDBRANCH  14  18
ENDBRANCH   1  11
BRANCH   1  27
ATOM     24  C   UNL     1       3.274   3.914  -1.253  0.00  0.00    +0.000 A 
ATOM     25  C   UNL     1       3.503   2.682  -0.669  0.00  0.00    +0.000 A 
ATOM     26  C   UNL     1       2.438   1.902  -0.261  0.00  0.00    +0.005 A 
ATOM     27  C   UNL     1       1.143   2.353  -0.435  0.00  0.00    -0.021 A 
ATOM     28  C   UNL     1       0.914   3.583  -1.024  0.00  0.00    +0.005 A 
ATOM     29  C   UNL     1       1.979   4.365  -1.428  0.00  0.00    +0.000 A 
ENDBRANCH   1  27
TORSDOF 5
