REMARK  Name = ZINC44784291
REMARK  8 active torsions:
REMARK  status: ('A' for Active; 'I' for Inactive)
REMARK    1  A    between atoms: C_1  and  C_2
REMARK    2  A    between atoms: C_7  and  N_12
REMARK    3  A    between atoms: C_9  and  C_11
REMARK    4  A    between atoms: C_13  and  C_15
REMARK    5  A    between atoms: C_15  and  C_16
REMARK    6  A    between atoms: C_15  and  C_17
REMARK    7  A    between atoms: C_15  and  C_18
REMARK    8  A    between atoms: N_19  and  O_20
REMARK                            x       y       z     vdW  Elec       q    Type
REMARK                         _______ _______ _______ _____ _____    ______ ____
ROOT
ATOM      1  N   UNL     1       1.471  -2.526   2.420  0.00  0.00    -0.311 N 
ATOM      2  C   UNL     1       1.207  -3.754   2.907  0.00  0.00    +0.226 C 
ATOM      3  O   UNL     1       0.382  -4.458   2.364  0.00  0.00    -0.275 OA
ATOM      4  H   UNL     1       2.131  -1.963   2.855  0.00  0.00    +0.149 HD
ENDROOT
BRANCH   1  10
ATOM      5  C   UNL     1      -0.019   1.526   0.010  0.00  0.00    +0.008 C 
ATOM      6  C   UNL     1       0.002  -0.004   0.002  0.00  0.00    -0.009 C 
ATOM      7  C   UNL     1       0.718  -0.497  -1.257  0.00  0.00    +0.003 C 
ATOM      8  C   UNL     1       0.739  -2.027  -1.265  0.00  0.00    +0.002 C 
ATOM      9  C   UNL     1       1.479  -2.534  -0.026  0.00  0.00    +0.022 C 
ATOM     10  C   UNL     1       0.763  -2.041   1.233  0.00  0.00    +0.076 C 
ATOM     11  C   UNL     1       0.742  -0.511   1.242  0.00  0.00    +0.009 C 
ATOM     12  C   UNL     1       0.026  -0.018   2.500  0.00  0.00    +0.009 C 
ENDBRANCH   1  10
BRANCH   2  13
ATOM     13  C   UNL     1       1.936  -4.254   4.128  0.00  0.00    +0.099 C 
ATOM     14  C   UNL     1       3.439  -4.283   3.848  0.00  0.00    +0.028 C 
ATOM     15  C   UNL     1       1.655  -3.320   5.307  0.00  0.00    +0.028 C 
BRANCH  13  16
ATOM     16  C   UNL     1       1.460  -5.644   4.464  0.00  0.00    +0.146 C 
ATOM     17  N   UNL     1       2.297  -6.627   4.479  0.00  0.00    -0.076 NA
ATOM     18  N   UNL     1       0.132  -5.865   4.755  0.00  0.00    -0.343 N 
ATOM     19  H   UNL     1      -0.497  -5.127   4.744  0.00  0.00    +0.144 HD
ATOM     20  H   UNL     1      -0.174  -6.760   4.971  0.00  0.00    +0.144 HD
BRANCH  17  21
ATOM     21  O   UNL     1       1.850  -7.933   4.794  0.00  0.00    -0.408 OA
ATOM     22  H   UNL     1       2.549  -8.602   4.780  0.00  0.00    +0.328 HD
ENDBRANCH  17  21
ENDBRANCH  13  16
ENDBRANCH   2  13
TORSDOF 4
