REMARK  Name = ZINC09576195
REMARK  4 active torsions:
REMARK  status: ('A' for Active; 'I' for Inactive)
REMARK    1  A    between atoms: C_1  and  C_2
REMARK    2  A    between atoms: C_14  and  C_16
REMARK    3  A    between atoms: C_16  and  N_59
REMARK    4  A    between atoms: C_19  and  N_22
REMARK                            x       y       z     vdW  Elec       q    Type
REMARK                         _______ _______ _______ _____ _____    ______ ____
ROOT
ATOM      1  C   UNL     1      -0.322   1.819   0.253  0.00  0.00    -0.076 C 
ATOM      2  C   UNL     1      -0.567   0.312   0.360  0.00  0.00    +0.006 C 
ATOM      3  C   UNL     1       0.190  -0.239   1.572  0.00  0.00    +0.089 C 
ATOM      4  C   UNL     1       1.679   0.083   1.423  0.00  0.00    +0.006 C 
ATOM      5  C   UNL     1       1.859   1.596   1.286  0.00  0.00    -0.076 C 
ATOM      6  N   UNL     1       1.127   2.059   0.087  0.00  0.00    +0.386 N 
ATOM      7  H   UNL     1       1.460   1.534  -0.730  0.00  0.00    -0.081 HD
ENDROOT
BRANCH   3   8
ATOM      8  N   UNL     1       0.007  -1.690   1.646  0.00  0.00    -0.289 N 
ATOM      9  C   UNL     1      -0.569  -2.387   2.705  0.00  0.00    +0.070 A 
ATOM     10  C   UNL     1      -1.109  -1.994   3.921  0.00  0.00    +0.028 A 
ATOM     11  C   UNL     1      -1.617  -2.943   4.786  0.00  0.00    +0.002 A 
ATOM     12  C   UNL     1      -1.592  -4.284   4.444  0.00  0.00    +0.002 A 
ATOM     13  C   UNL     1      -1.057  -4.685   3.236  0.00  0.00    +0.028 A 
ATOM     14  C   UNL     1      -0.544  -3.740   2.361  0.00  0.00    +0.067 A 
ATOM     15  N   UNL     1       0.047  -3.823   1.103  0.00  0.00    -0.306 N 
ATOM     16  H   UNL     1       0.202  -4.639   0.601  0.00  0.00    +0.170 HD
ATOM     17  C   UNL     1       0.362  -2.578   0.698  0.00  0.00    +0.328 A 
ATOM     18  O   UNL     1       0.890  -2.298  -0.362  0.00  0.00    -0.247 OA
ENDBRANCH   3   8
BRANCH   6  19
ATOM     19  C   UNL     1       1.378   3.499  -0.132  0.00  0.00    +0.019 C 
BRANCH  19  32
ATOM     20  C   UNL     1       3.303   6.597  -5.362  0.00  0.00    +0.019 C 
ATOM     21  C   UNL     1       2.459   6.573  -4.086  0.00  0.00    +0.050 C 
ATOM     22  C   UNL     1       1.350   5.545  -4.234  0.00  0.00    +0.033 C 
ATOM     23  C   UNL     1       0.286   5.582  -3.168  0.00  0.00    +0.115 C 
ATOM     24  N   UNL     1       0.829   5.181  -1.860  0.00  0.00    -0.272 N 
ATOM     25  C   UNL     1       1.351   6.173  -1.025  0.00  0.00    +0.050 A 
ATOM     26  C   UNL     1       0.633   6.593   0.084  0.00  0.00    +0.024 A 
ATOM     27  C   UNL     1       1.126   7.609   0.881  0.00  0.00    +0.002 A 
ATOM     28  C   UNL     1       2.333   8.217   0.589  0.00  0.00    +0.001 A 
ATOM     29  C   UNL     1       3.073   7.791  -0.503  0.00  0.00    +0.016 A 
ATOM     30  C   UNL     1       2.585   6.767  -1.288  0.00  0.00    +0.030 A 
ATOM     31  S   UNL     1       3.518   6.153  -2.671  0.00  0.00    -0.120 S 
ATOM     32  C   UNL     1       0.817   3.889  -1.475  0.00  0.00    +0.203 C 
ATOM     33  O   UNL     1       0.356   3.041  -2.209  0.00  0.00    -0.277 OA
ENDBRANCH  19  32
ENDBRANCH   6  19
TORSDOF 3
