REMARK  Name = ZINC35004429
REMARK  11 active torsions:
REMARK  status: ('A' for Active; 'I' for Inactive)
REMARK    1  A    between atoms: C_1  and  C_2
REMARK    2  A    between atoms: C_2  and  C_3
REMARK    3  A    between atoms: C_3  and  C_5
REMARK    4  A    between atoms: C_3  and  C_6
REMARK    5  A    between atoms: C_6  and  C_8
REMARK    6  A    between atoms: C_6  and  N_24
REMARK    7  A    between atoms: C_14  and  C_17
REMARK    8  A    between atoms: N_20  and  C_21
REMARK    9  A    between atoms: C_21  and  C_22
REMARK   10  A    between atoms: C_21  and  C_23
REMARK   11  A    between atoms: N_27  and  C_28
REMARK                            x       y       z     vdW  Elec       q    Type
REMARK                         _______ _______ _______ _____ _____    ______ ____
ROOT
ATOM      1  C   UNL     1      -2.071  -0.027  -1.119  0.00  0.00    +0.163 C 
ENDROOT
BRANCH   1   2
ATOM      2  C   UNL     1      -1.900   1.465  -1.243  0.00  0.00    +0.236 C 
ATOM      3  O   UNL     1      -2.816   2.206  -0.956  0.00  0.00    -0.274 OA
ATOM      4  N   UNL     1      -0.729   1.976  -1.672  0.00  0.00    -0.297 N 
ATOM      5  C   UNL     1       0.348   1.090  -2.134  0.00  0.00    +0.127 C 
ATOM      6  C   UNL     1       1.617   1.400  -1.329  0.00  0.00    +0.128 C 
ATOM      7  N   UNL     1       1.839   2.852  -1.344  0.00  0.00    -0.280 N 
ATOM      8  C   UNL     1       0.761   3.738  -0.881  0.00  0.00    +0.092 C 
ATOM      9  C   UNL     1      -0.509   3.428  -1.692  0.00  0.00    +0.130 C 
ATOM     10  C   UNL     1       0.501   3.497   0.607  0.00  0.00    +0.030 C 
ATOM     11  C   UNL     1       3.010   3.363  -1.773  0.00  0.00    +0.303 C 
ATOM     12  O   UNL     1       3.218   4.558  -1.692  0.00  0.00    -0.253 OA
ATOM     13  N   UNL     1       3.950   2.549  -2.292  0.00  0.00    -0.297 N 
ATOM     14  H   UNL     1       3.756   1.608  -2.427  0.00  0.00    +0.150 HD
BRANCH  13  15
ATOM     15  C   UNL     1       5.265   3.085  -2.654  0.00  0.00    +0.068 C 
ATOM     16  C   UNL     1       6.168   3.098  -1.419  0.00  0.00    +0.027 C 
ATOM     17  C   UNL     1       5.894   2.206  -3.737  0.00  0.00    +0.027 C 
ENDBRANCH  13  15
ENDBRANCH   1   2
BRANCH   1  18
ATOM     18  N   UNL     1      -3.497  -0.348  -1.005  0.00  0.00    -0.288 N 
ATOM     19  C   UNL     1      -3.946  -1.561  -1.381  0.00  0.00    +0.301 C 
ATOM     20  O   UNL     1      -3.169  -2.390  -1.814  0.00  0.00    -0.253 OA
ATOM     21  N   UNL     1      -5.257  -1.856  -1.276  0.00  0.00    -0.294 N 
ATOM     22  H   UNL     1      -4.116   0.314  -0.660  0.00  0.00    +0.151 HD
ATOM     23  H   UNL     1      -5.877  -1.195  -0.931  0.00  0.00    +0.151 HD
BRANCH  21  24
ATOM     24  C   UNL     1      -5.746  -3.175  -1.685  0.00  0.00    +0.037 C 
ATOM     25  C   UNL     1      -5.057  -4.256  -0.849  0.00  0.00    +0.029 C 
ATOM     26  C   UNL     1      -5.567  -5.634  -1.275  0.00  0.00    -0.008 C 
ATOM     27  C   UNL     1      -7.080  -5.707  -1.056  0.00  0.00    +0.007 C 
ATOM     28  C   UNL     1      -7.769  -4.627  -1.892  0.00  0.00    -0.008 C 
ATOM     29  C   UNL     1      -7.259  -3.249  -1.466  0.00  0.00    +0.029 C 
ATOM     30  C   UNL     1      -7.457  -4.851  -3.373  0.00  0.00    +0.007 C 
ATOM     31  C   UNL     1      -5.944  -4.777  -3.592  0.00  0.00    -0.008 C 
ATOM     32  C   UNL     1      -5.255  -5.857  -2.756  0.00  0.00    +0.007 C 
ATOM     33  C   UNL     1      -5.434  -3.399  -3.166  0.00  0.00    +0.029 C 
ENDBRANCH  21  24
ENDBRANCH   1  18
BRANCH   1  34
ATOM     34  C   UNL     1      -1.336  -0.523   0.128  0.00  0.00    +0.015 C 
ATOM     35  C   UNL     1      -2.013   0.043   1.378  0.00  0.00    +0.010 C 
BRANCH  34  37
ATOM     36  C   UNL     1      -0.573  -2.620  -0.997  0.00  0.00    +0.004 C 
ATOM     37  C   UNL     1      -1.381  -2.052   0.172  0.00  0.00    +0.002 C 
ENDBRANCH  34  37
ENDBRANCH   1  34
TORSDOF 6
