REMARK  Name = ZINC39722203
REMARK  5 active torsions:
REMARK  status: ('A' for Active; 'I' for Inactive)
REMARK    1  A    between atoms: N_9  and  C_30
REMARK    2  A    between atoms: C_10  and  S_13
REMARK    3  A    between atoms: S_13  and  C_14
REMARK    4  A    between atoms: C_14  and  C_15
REMARK    5  A    between atoms: C_23  and  C_27
REMARK                            x       y       z     vdW  Elec       q    Type
REMARK                         _______ _______ _______ _____ _____    ______ ____
ROOT
ATOM      1  C   UNL     1      -0.017   1.375   0.010  0.00  0.00    +0.001 A 
ATOM      2  C   UNL     1       1.168   2.095   0.002  0.00  0.00    +0.002 A 
ATOM      3  C   UNL     1       2.386   1.443  -0.008  0.00  0.00    +0.024 A 
ATOM      4  C   UNL     1       2.422   0.059  -0.013  0.00  0.00    +0.041 A 
ATOM      5  C   UNL     1       1.223  -0.675  -0.014  0.00  0.00    +0.058 A 
ATOM      6  C   UNL     1       0.002  -0.004   0.002  0.00  0.00    +0.015 A 
ATOM      7  C   UNL     1       1.296  -2.146  -0.048  0.00  0.00    +0.255 C 
ATOM      8  O   UNL     1       0.292  -2.813   0.114  0.00  0.00    -0.269 OA
ATOM      9  N   UNL     1       2.484  -2.745  -0.259  0.00  0.00    -0.236 N 
ATOM     10  C   UNL     1       3.668  -1.970  -0.631  0.00  0.00    +0.227 C 
ATOM     11  N   UNL     1       3.623  -0.642  -0.009  0.00  0.00    -0.317 N 
ATOM     12  H   UNL     1       4.417  -0.260   0.397  0.00  0.00    +0.149 HD
ENDROOT
BRANCH   9  13
ATOM     13  C   UNL     1       2.588  -4.136  -0.119  0.00  0.00    +0.074 A 
ATOM     14  C   UNL     1       2.370  -4.962  -1.213  0.00  0.00    +0.029 A 
ATOM     15  C   UNL     1       2.472  -6.333  -1.074  0.00  0.00    +0.040 A 
ATOM     16  C   UNL     1       2.793  -6.883   0.156  0.00  0.00    +0.126 A 
ATOM     17  C   UNL     1       3.011  -6.062   1.249  0.00  0.00    +0.078 A 
ATOM     18  C   UNL     1       2.916  -4.689   1.113  0.00  0.00    +0.147 A 
ATOM     19  F   UNL     1       3.135  -3.887   2.178  0.00  0.00    -0.203 F 
ATOM     20  F   UNL     1       2.892  -8.224   0.289  0.00  0.00    -0.205 F 
ENDBRANCH   9  13
BRANCH  10  21
ATOM     21  S   UNL     1       3.720  -1.783  -2.435  0.00  0.00    -0.111 S 
BRANCH  21  22
ATOM     22  C   UNL     1       2.178  -0.913  -2.830  0.00  0.00    +0.146 C 
BRANCH  22  23
ATOM     23  C   UNL     1       2.094  -0.690  -4.319  0.00  0.00    +0.120 A 
ATOM     24  N   UNL     1       1.007  -0.044  -4.813  0.00  0.00    -0.310 N 
ATOM     25  H   UNL     1       0.312   0.260  -4.208  0.00  0.00    +0.170 HD
ATOM     26  C   UNL     1       0.884   0.181  -6.142  0.00  0.00    +0.259 A 
ATOM     27  O   UNL     1      -0.085   0.759  -6.598  0.00  0.00    -0.267 OA
ATOM     28  C   UNL     1       1.969  -0.301  -7.014  0.00  0.00    +0.065 A 
ATOM     29  C   UNL     1       1.936  -0.118  -8.396  0.00  0.00    +0.016 A 
ATOM     30  C   UNL     1       2.964  -0.581  -9.168  0.00  0.00    +0.016 A 
ATOM     31  C   UNL     1       4.053  -1.239  -8.583  0.00  0.00    +0.065 A 
ATOM     32  C   UNL     1       4.105  -1.432  -7.207  0.00  0.00    +0.043 A 
ATOM     33  C   UNL     1       3.059  -0.963  -6.409  0.00  0.00    +0.079 A 
ATOM     34  N   UNL     1       3.067  -1.122  -5.061  0.00  0.00    -0.233 NA
BRANCH  31  35
ATOM     35  C   UNL     1       5.156  -1.733  -9.435  0.00  0.00    +0.387 C 
ATOM     36  O   UNL     1       5.115  -1.566 -10.645  0.00  0.00    -0.241 OA
ATOM     37  O   UNL     1       6.109  -2.308  -8.929  0.00  0.00    -0.241 OA
ENDBRANCH  31  35
ENDBRANCH  22  23
ENDBRANCH  21  22
ENDBRANCH  10  21
TORSDOF 5
