REMARK  Name = ZINC12112692
REMARK  4 active torsions:
REMARK  status: ('A' for Active; 'I' for Inactive)
REMARK    1  A    between atoms: C_1  and  C_2
REMARK    2  A    between atoms: C_5  and  N_9
REMARK    3  A    between atoms: C_6  and  O_8
REMARK    4  A    between atoms: C_11  and  C_17
REMARK                            x       y       z     vdW  Elec       q    Type
REMARK                         _______ _______ _______ _____ _____    ______ ____
ROOT
ATOM      1  N   UNL     1       0.059  -4.174  -0.031  0.00  0.00    -0.295 N 
ATOM      2  C   UNL     1       0.567  -4.846  -1.119  0.00  0.00    +0.149 A 
ATOM      3  C   UNL     1       0.492  -6.258  -1.194  0.00  0.00    +0.098 A 
ATOM      4  N   UNL     1       0.981  -6.871  -2.238  0.00  0.00    -0.174 NA
ATOM      5  N   UNL     1       1.528  -6.210  -3.196  0.00  0.00    -0.254 N 
ATOM      6  C   UNL     1       1.617  -4.868  -3.160  0.00  0.00    +0.195 A 
ATOM      7  S   UNL     1       2.354  -4.032  -4.460  0.00  0.00    -0.010 S 
ATOM      8  N   UNL     1       1.131  -4.184  -2.122  0.00  0.00    -0.205 NA
ATOM      9  C   UNL     1      -0.146  -7.046  -0.080  0.00  0.00    +0.071 C 
ATOM     10  H   UNL     1      -0.273  -4.669   0.734  0.00  0.00    +0.154 HD
ATOM     11  H   UNL     1       1.884  -6.689  -3.960  0.00  0.00    +0.191 HD
ENDROOT
BRANCH   1  16
ATOM     12  C   UNL     1      -0.086   1.502  -0.021  0.00  0.00    +0.044 C 
ATOM     13  C   UNL     1      -0.048  -0.005  -0.021  0.00  0.00    -0.047 A 
ATOM     14  C   UNL     1      -0.038  -0.694  -1.219  0.00  0.00    +0.005 A 
ATOM     15  C   UNL     1      -0.003  -2.076  -1.226  0.00  0.00    +0.027 A 
ATOM     16  C   UNL     1       0.024  -2.774  -0.027  0.00  0.00    +0.074 A 
ATOM     17  C   UNL     1       0.014  -2.079   1.180  0.00  0.00    +0.138 A 
ATOM     18  C   UNL     1      -0.016  -0.694   1.178  0.00  0.00    +0.050 A 
BRANCH  17  19
ATOM     19  O   UNL     1       0.040  -2.758   2.358  0.00  0.00    -0.505 OA
ATOM     20  H   UNL     1       0.931  -2.931   2.693  0.00  0.00    +0.292 HD
ENDBRANCH  17  19
ENDBRANCH   1  16
TORSDOF 2
