REMARK  Name = ZINC41094402
REMARK  12 active torsions:
REMARK  status: ('A' for Active; 'I' for Inactive)
REMARK    1  A    between atoms: C_1  and  C_2
REMARK    2  A    between atoms: C_2  and  C_3
REMARK    3  A    between atoms: C_3  and  C_4
REMARK    4  A    between atoms: C_3  and  C_5
REMARK    5  A    between atoms: C_3  and  N_6
REMARK    6  A    between atoms: C_7  and  C_9
REMARK    7  A    between atoms: C_9  and  C_11
REMARK    8  A    between atoms: C_9  and  O_12
REMARK    9  A    between atoms: O_12  and  C_13
REMARK   10  A    between atoms: C_13  and  C_15
REMARK   11  A    between atoms: C_17  and  N_22
REMARK   12  A    between atoms: C_19  and  N_21
REMARK                            x       y       z     vdW  Elec       q    Type
REMARK                         _______ _______ _______ _____ _____    ______ ____
ROOT
ATOM      1  C   UNL     1       2.751  -5.766  -3.263  0.00  0.00    +0.340 C 
ATOM      2  O   UNL     1       2.660  -6.384  -2.222  0.00  0.00    -0.245 OA
ENDROOT
BRANCH   1   3
ATOM      3  C   UNL     1       3.565  -6.303  -4.373  0.00  0.00    +0.062 A 
ATOM      4  C   UNL     1       3.675  -5.592  -5.568  0.00  0.00    +0.037 A 
ATOM      5  C   UNL     1       4.440  -6.100  -6.608  0.00  0.00    +0.027 A 
ATOM      6  C   UNL     1       5.096  -7.315  -6.460  0.00  0.00    +0.045 A 
ATOM      7  C   UNL     1       4.988  -8.026  -5.273  0.00  0.00    +0.027 A 
ATOM      8  C   UNL     1       4.230  -7.522  -4.226  0.00  0.00    +0.037 A 
BRANCH   7   9
ATOM      9  N   UNL     1       5.648  -9.249  -5.129  0.00  0.00    -0.358 N 
ATOM     10  H   UNL     1       6.182  -9.601  -5.859  0.00  0.00    +0.142 HD
ATOM     11  H   UNL     1       5.574  -9.746  -4.300  0.00  0.00    +0.142 HD
ENDBRANCH   7   9
BRANCH   5  12
ATOM     12  N   UNL     1       4.551  -5.388  -7.805  0.00  0.00    -0.358 N 
ATOM     13  H   UNL     1       4.093  -4.539  -7.909  0.00  0.00    +0.142 HD
ATOM     14  H   UNL     1       5.086  -5.742  -8.532  0.00  0.00    +0.142 HD
ENDBRANCH   5  12
ENDBRANCH   1   3
BRANCH   1  15
ATOM     15  O   UNL     1       2.110  -4.589  -3.407  0.00  0.00    -0.449 OA
BRANCH  15  16
ATOM     16  C   UNL     1       1.341  -4.130  -2.293  0.00  0.00    +0.259 C 
ATOM     17  C   UNL     1      -0.090  -4.658  -2.408  0.00  0.00    +0.062 C 
BRANCH  16  19
ATOM     18  N   UNL     1       0.738  -1.962  -1.265  0.00  0.00    -0.307 N 
ATOM     19  C   UNL     1       1.321  -2.623  -2.285  0.00  0.00    +0.254 C 
ATOM     20  O   UNL     1       1.829  -2.004  -3.196  0.00  0.00    -0.272 OA
ATOM     21  H   UNL     1       0.332  -2.457  -0.536  0.00  0.00    +0.149 HD
BRANCH  18  22
ATOM     22  C   UNL     1       0.718  -0.497  -1.257  0.00  0.00    +0.029 C 
ATOM     23  C   UNL     1      -0.022   0.009  -2.496  0.00  0.00    +0.031 C 
ATOM     24  C   UNL     1       2.154   0.032  -1.268  0.00  0.00    +0.031 C 
BRANCH  22  26
ATOM     25  C   UNL     1      -0.019   1.526   0.010  0.00  0.00    +0.006 C 
ATOM     26  C   UNL     1       0.002  -0.004   0.002  0.00  0.00    +0.022 C 
ENDBRANCH  22  26
ENDBRANCH  18  22
ENDBRANCH  16  19
ENDBRANCH  15  16
ENDBRANCH   1  15
TORSDOF 8
