REMARK  Name = ZINC24757361
REMARK  10 active torsions:
REMARK  status: ('A' for Active; 'I' for Inactive)
REMARK    1  A    between atoms: C_1  and  C_2
REMARK    2  A    between atoms: C_5  and  N_8
REMARK    3  A    between atoms: C_11  and  C_14
REMARK    4  A    between atoms: C_14  and  N_15
REMARK    5  A    between atoms: N_15  and  C_16
REMARK    6  A    between atoms: N_15  and  C_17
REMARK    7  A    between atoms: C_17  and  C_18
REMARK    8  A    between atoms: C_19  and  C_32
REMARK    9  A    between atoms: N_21  and  C_24
REMARK   10  A    between atoms: C_22  and  C_23
REMARK                            x       y       z     vdW  Elec       q    Type
REMARK                         _______ _______ _______ _____ _____    ______ ____
ROOT
ATOM      1  N   UNL     1       0.967   1.980   0.223  0.00  0.00    +0.384 N 
ATOM      2  C   UNL     1       1.835   1.667  -0.920  0.00  0.00    -0.095 C 
ATOM      3  H   UNL     1       1.380   1.478   1.109  0.00  0.00    -0.081 HD
ENDROOT
BRANCH   1   4
ATOM      4  C   UNL     1      -0.393   1.469   0.006  0.00  0.00    -0.022 C 
BRANCH   4   8
ATOM      5  N   UNL     1       0.213  -2.847  -2.235  0.00  0.00    -0.294 N 
ATOM      6  C   UNL     1      -0.059  -2.007  -1.166  0.00  0.00    +0.162 A 
ATOM      7  N   UNL     1      -0.090  -0.688  -1.135  0.00  0.00    -0.232 NA
ATOM      8  C   UNL     1      -0.365  -0.038  -0.020  0.00  0.00    +0.034 A 
ATOM      9  C   UNL     1      -0.625  -0.755   1.099  0.00  0.00    +0.070 A 
ATOM     10  S   UNL     1      -0.450  -2.420   0.475  0.00  0.00    -0.060 S 
ATOM     11  H   UNL     1       0.344  -2.429  -3.244  0.00  0.00    +0.154 HD
BRANCH   5  16
ATOM     12  C   UNL     1       0.651  -8.441  -1.406  0.00  0.00    +0.044 C 
ATOM     13  C   UNL     1       0.534  -6.955  -1.626  0.00  0.00    -0.050 A 
ATOM     14  C   UNL     1       0.015  -6.472  -2.813  0.00  0.00    +0.005 A 
ATOM     15  C   UNL     1      -0.093  -5.110  -3.019  0.00  0.00    +0.023 A 
ATOM     16  C   UNL     1       0.321  -4.226  -2.031  0.00  0.00    +0.033 A 
ATOM     17  C   UNL     1       0.848  -4.714  -0.842  0.00  0.00    +0.023 A 
ATOM     18  C   UNL     1       0.948  -6.077  -0.641  0.00  0.00    +0.005 A 
ENDBRANCH   5  16
ENDBRANCH   4   8
ENDBRANCH   1   4
BRANCH   1  19
ATOM     19  C   UNL     1       0.949   3.425   0.490  0.00  0.00    -0.039 C 
BRANCH  19  20
ATOM     20  C   UNL     1       2.316   3.868   0.946  0.00  0.00    -0.021 A 
ATOM     21  C   UNL     1       2.767   3.913   2.269  0.00  0.00    +0.062 A 
ATOM     22  N   UNL     1       4.002   4.345   2.265  0.00  0.00    -0.176 NA
ATOM     23  N   UNL     1       4.373   4.598   0.938  0.00  0.00    -0.263 N 
ATOM     24  C   UNL     1       3.321   4.298   0.149  0.00  0.00    +0.038 A 
ATOM     25  C   UNL     1       3.273   4.419  -1.353  0.00  0.00    +0.065 C 
ATOM     26  C   UNL     1       1.970   3.526   3.489  0.00  0.00    +0.068 C 
BRANCH  23  27
ATOM     27  C   UNL     1       5.673   5.101   0.488  0.00  0.00    +0.130 C 
ATOM     28  C   UNL     1       5.946   6.475   1.122  0.00  0.00    +0.051 C 
ATOM     29  C   UNL     1       7.430   6.866   0.916  0.00  0.00    +0.168 C 
ATOM     30  S   UNL     1       8.268   5.231   0.820  0.00  0.00    -0.029 S 
ATOM     31  O   UNL     1       8.853   5.087  -0.467  0.00  0.00    -0.174 OA
ATOM     32  O   UNL     1       9.073   5.057   1.978  0.00  0.00    -0.174 OA
ATOM     33  C   UNL     1       6.798   4.127   0.939  0.00  0.00    +0.192 C 
ENDBRANCH  23  27
ENDBRANCH  19  20
ENDBRANCH   1  19
TORSDOF 6
