REMARK  Name = ZINC67271812
REMARK  3 active torsions:
REMARK  status: ('A' for Active; 'I' for Inactive)
REMARK    1  A    between atoms: C_1  and  C_2
REMARK    2  A    between atoms: C_9  and  C_11
REMARK    3  A    between atoms: C_17  and  C_19
REMARK                            x       y       z     vdW  Elec       q    Type
REMARK                         _______ _______ _______ _____ _____    ______ ____
ROOT
ATOM      1  C   UNL     1       0.062  -5.135   1.762  0.00  0.00    +0.142 C 
ATOM      2  C   UNL     1       1.580  -5.037   1.500  0.00  0.00    +0.032 C 
ATOM      3  C   UNL     1       1.931  -6.451   0.966  0.00  0.00    +0.021 C 
ATOM      4  C   UNL     1       0.660  -6.802   0.153  0.00  0.00    +0.108 C 
ATOM      5  N   UNL     1      -0.457  -6.234   0.935  0.00  0.00    -0.291 N 
ATOM      6  C   UNL     1      -1.738  -6.652   0.899  0.00  0.00    +0.219 C 
ATOM      7  O   UNL     1      -2.555  -6.170   1.655  0.00  0.00    -0.275 OA
ENDROOT
BRANCH   6   8
ATOM      8  C   UNL     1      -2.155  -7.718  -0.081  0.00  0.00    +0.075 C 
ATOM      9  C   UNL     1      -2.094  -9.087   0.599  0.00  0.00    +0.015 C 
ATOM     10  C   UNL     1      -2.508 -10.170  -0.401  0.00  0.00    +0.036 C 
ATOM     11  C   UNL     1      -3.923  -9.893  -0.897  0.00  0.00    +0.112 C 
ATOM     12  C   UNL     1      -4.003  -8.521  -1.558  0.00  0.00    +0.036 C 
ATOM     13  C   UNL     1      -3.584  -7.444  -0.554  0.00  0.00    +0.015 C 
ATOM     14  C   UNL     1      -4.366 -10.970  -1.860  0.00  0.00    +0.244 C 
ATOM     15  O   UNL     1      -3.859 -11.257  -2.924  0.00  0.00    -0.273 OA
ATOM     16  N   UNL     1      -5.443 -11.545  -1.287  0.00  0.00    -0.238 N 
ATOM     17  C   UNL     1      -5.734 -10.981  -0.108  0.00  0.00    +0.307 C 
ATOM     18  O   UNL     1      -6.662 -11.328   0.597  0.00  0.00    -0.252 OA
ATOM     19  N   UNL     1      -4.883  -9.987   0.210  0.00  0.00    -0.285 N 
ATOM     20  H   UNL     1      -5.945 -12.275  -1.680  0.00  0.00    +0.159 HD
ATOM     21  H   UNL     1      -4.901  -9.441   1.012  0.00  0.00    +0.151 HD
ENDBRANCH   6   8
BRANCH   1  30
ATOM     22  C   UNL     1      -2.947   1.639   1.099  0.00  0.00    +0.044 C 
ATOM     23  C   UNL     1      -2.489   0.237   0.793  0.00  0.00    -0.048 A 
ATOM     24  C   UNL     1      -2.732  -0.310  -0.460  0.00  0.00    +0.005 A 
ATOM     25  C   UNL     1      -2.325  -1.579  -0.757  0.00  0.00    +0.030 A 
ATOM     26  C   UNL     1      -1.657  -2.340   0.206  0.00  0.00    +0.089 A 
ATOM     27  C   UNL     1      -1.410  -1.787   1.474  0.00  0.00    +0.067 A 
ATOM     28  C   UNL     1      -1.827  -0.493   1.757  0.00  0.00    +0.031 A 
ATOM     29  N   UNL     1      -0.746  -2.761   2.192  0.00  0.00    -0.340 N 
ATOM     30  C   UNL     1      -0.609  -3.842   1.377  0.00  0.00    +0.129 A 
ATOM     31  N   UNL     1      -1.141  -3.596   0.215  0.00  0.00    -0.231 NA
ATOM     32  H   UNL     1      -0.434  -2.689   3.108  0.00  0.00    +0.167 HD
ENDBRANCH   1  30
TORSDOF 2
