REMARK  Name = ZINC04485504
REMARK  8 active torsions:
REMARK  status: ('A' for Active; 'I' for Inactive)
REMARK    1  A    between atoms: C_1  and  C_2
REMARK    2  A    between atoms: C_3  and  C_28
REMARK    3  A    between atoms: C_11  and  C_13
REMARK    4  A    between atoms: C_13  and  S_14
REMARK    5  A    between atoms: S_14  and  C_15
REMARK    6  A    between atoms: C_15  and  C_16
REMARK    7  A    between atoms: N_18  and  C_19
REMARK    8  A    between atoms: C_24  and  N_25
REMARK                            x       y       z     vdW  Elec       q    Type
REMARK                         _______ _______ _______ _____ _____    ______ ____
ROOT
ATOM      1  S   UNL     1      -6.207  -1.431   0.709  0.00  0.00    -0.144 S 
ENDROOT
BRANCH   1   2
ATOM      2  C   UNL     1      -7.749  -0.476   0.683  0.00  0.00    +0.143 C 
BRANCH   2  13
ATOM      3  C   UNL     1     -13.488  -3.803   1.656  0.00  0.00    +0.045 C 
ATOM      4  C   UNL     1     -12.019  -4.132   1.589  0.00  0.00    -0.026 A 
ATOM      5  C   UNL     1     -11.598  -5.396   1.752  0.00  0.00    -0.008 A 
ATOM      6  S   UNL     1      -9.827  -5.266   1.592  0.00  0.00    -0.073 S 
ATOM      7  C   UNL     1      -9.705  -3.518   1.311  0.00  0.00    +0.116 A 
ATOM      8  C   UNL     1     -11.043  -3.086   1.350  0.00  0.00    +0.075 A 
ATOM      9  C   UNL     1     -11.245  -1.681   1.147  0.00  0.00    +0.260 A 
ATOM     10  O   UNL     1     -12.369  -1.210   1.163  0.00  0.00    -0.267 OA
ATOM     11  N   UNL     1     -10.175  -0.891   0.946  0.00  0.00    -0.310 N 
ATOM     12  H   UNL     1     -10.309   0.091   0.813  0.00  0.00    +0.170 HD
ATOM     13  C   UNL     1      -8.916  -1.400   0.919  0.00  0.00    +0.121 A 
ATOM     14  N   UNL     1      -8.699  -2.675   1.100  0.00  0.00    -0.226 NA
ATOM     15  C   UNL     1     -12.424  -6.630   2.010  0.00  0.00    +0.052 C 
ENDBRANCH   2  13
ENDBRANCH   1   2
BRANCH   1  16
ATOM     16  C   UNL     1      -4.918  -0.189   0.414  0.00  0.00    +0.165 C 
BRANCH  16  17
ATOM     17  C   UNL     1      -3.567  -0.859   0.411  0.00  0.00    +0.227 C 
ATOM     18  O   UNL     1      -3.483  -2.055   0.590  0.00  0.00    -0.275 OA
ATOM     19  N   UNL     1      -2.453  -0.128   0.209  0.00  0.00    -0.283 N 
ATOM     20  H   UNL     1      -2.513   0.838   0.142  0.00  0.00    +0.155 HD
BRANCH  19  21
ATOM     21  C   UNL     1      -1.211  -0.762   0.096  0.00  0.00    +0.064 A 
ATOM     22  C   UNL     1      -1.118  -2.005  -0.517  0.00  0.00    +0.025 A 
ATOM     23  C   UNL     1       0.109  -2.628  -0.628  0.00  0.00    +0.002 A 
ATOM     24  C   UNL     1       1.245  -2.016  -0.129  0.00  0.00    +0.002 A 
ATOM     25  C   UNL     1       1.156  -0.776   0.477  0.00  0.00    +0.034 A 
ATOM     26  C   UNL     1      -0.069  -0.150   0.596  0.00  0.00    +0.147 A 
BRANCH  26  27
ATOM     27  N   UNL     1      -0.165   1.174   1.250  0.00  0.00    +0.058 N 
ATOM     28  O   UNL     1       0.820   1.670   1.767  0.00  0.00    -0.126 OA
ATOM     29  O   UNL     1      -1.226   1.770   1.266  0.00  0.00    -0.126 OA
ENDBRANCH  26  27
ENDBRANCH  19  21
ENDBRANCH  16  17
ENDBRANCH   1  16
TORSDOF 6
