REMARK  Name = ZINC54318027
REMARK  8 active torsions:
REMARK  status: ('A' for Active; 'I' for Inactive)
REMARK    1  A    between atoms: C_1  and  N_2
REMARK    2  A    between atoms: C_3  and  N_28
REMARK    3  A    between atoms: C_4  and  C_11
REMARK    4  A    between atoms: N_7  and  C_10
REMARK    5  A    between atoms: C_11  and  C_13
REMARK    6  A    between atoms: C_13  and  N_14
REMARK    7  A    between atoms: N_18  and  C_21
REMARK    8  A    between atoms: C_21  and  C_22
REMARK                            x       y       z     vdW  Elec       q    Type
REMARK                         _______ _______ _______ _____ _____    ______ ____
ROOT
ATOM      1  C   UNL     1      -2.572  -4.105   0.134  0.00  0.00    +0.164 C 
ENDROOT
BRANCH   1   2
ATOM      2  N   UNL     1      -3.984  -4.511   0.128  0.00  0.00    -0.297 NA
ATOM      3  C   UNL     1      -4.701  -3.958   1.302  0.00  0.00    +0.083 C 
ATOM      4  C   UNL     1      -6.169  -3.873   0.970  0.00  0.00    -0.003 C 
ATOM      5  C   UNL     1      -6.946  -5.130   1.396  0.00  0.00    -0.078 C 
ATOM      6  N   UNL     1      -6.212  -6.381   1.102  0.00  0.00    +0.381 N 
ATOM      7  C   UNL     1      -5.567  -6.347  -0.191  0.00  0.00    -0.063 C 
ATOM      8  C   UNL     1      -4.106  -5.898   0.003  0.00  0.00    +0.066 C 
ATOM      9  H   UNL     1      -5.511  -6.524   1.814  0.00  0.00    -0.082 HD
BRANCH   6  10
ATOM     10  C   UNL     1      -7.156  -7.506   1.134  0.00  0.00    -0.075 C 
BRANCH  10  11
ATOM     11  C   UNL     1      -7.702  -7.673   2.554  0.00  0.00    -0.028 C 
ATOM     12  C   UNL     1      -6.564  -8.073   3.495  0.00  0.00    +0.002 C 
ATOM     13  C   UNL     1      -7.111  -8.240   4.914  0.00  0.00    +0.000 C 
ATOM     14  C   UNL     1      -8.186  -9.329   4.922  0.00  0.00    +0.000 C 
ATOM     15  C   UNL     1      -9.324  -8.929   3.981  0.00  0.00    +0.000 C 
ATOM     16  C   UNL     1      -8.777  -8.762   2.561  0.00  0.00    +0.002 C 
ENDBRANCH  10  11
ENDBRANCH   6  10
ENDBRANCH   1   2
BRANCH   1  17
ATOM     17  C   UNL     1      -2.480  -2.605   0.022  0.00  0.00    +0.185 C 
ATOM     18  O   UNL     1      -3.493  -1.938  -0.055  0.00  0.00    -0.290 OA
BRANCH  17  22
ATOM     19  C   UNL     1       0.265   1.450   0.033  0.00  0.00    +0.155 C 
ATOM     20  N   UNL     1       0.138  -0.010   0.013  0.00  0.00    -0.284 N 
ATOM     21  C   UNL     1      -1.106  -0.574   0.028  0.00  0.00    +0.116 A 
ATOM     22  C   UNL     1      -1.218  -1.975   0.008  0.00  0.00    +0.121 A 
ATOM     23  C   UNL     1       0.022  -2.762  -0.028  0.00  0.00    +0.269 A 
ATOM     24  O   UNL     1      -0.015  -3.978  -0.047  0.00  0.00    -0.267 OA
ATOM     25  N   UNL     1       1.202  -2.108  -0.040  0.00  0.00    -0.263 N 
ATOM     26  C   UNL     1       1.246  -0.766  -0.025  0.00  0.00    +0.333 A 
ATOM     27  O   UNL     1       2.330  -0.216  -0.042  0.00  0.00    -0.246 OA
ATOM     28  C   UNL     1       2.451  -2.872  -0.076  0.00  0.00    +0.157 C 
BRANCH  21  29
ATOM     29  N   UNL     1      -2.219   0.208   0.062  0.00  0.00    -0.344 N 
ATOM     30  H   UNL     1      -2.134   1.170   0.156  0.00  0.00    +0.144 HD
ATOM     31  H   UNL     1      -3.098  -0.196  -0.009  0.00  0.00    +0.144 HD
ENDBRANCH  21  29
ENDBRANCH  17  22
ENDBRANCH   1  17
TORSDOF 6
