REMARK  Name = ZINC39467154
REMARK  6 active torsions:
REMARK  status: ('A' for Active; 'I' for Inactive)
REMARK    1  A    between atoms: C_1  and  O_2
REMARK    2  A    between atoms: O_2  and  C_3
REMARK    3  A    between atoms: P_12  and  C_28
REMARK    4  A    between atoms: C_20  and  C_21
REMARK    5  A    between atoms: C_26  and  O_27
REMARK    6  A    between atoms: C_33  and  O_34
REMARK                            x       y       z     vdW  Elec       q    Type
REMARK                         _______ _______ _______ _____ _____    ______ ____
ROOT
ATOM      1  C   UNL     1       0.606  -0.607  -1.056  0.00  0.00    +0.124 C 
ATOM      2  C   UNL     1       1.153   0.126  -2.027  0.00  0.00    +0.023 C 
ATOM      3  C   UNL     1       1.808  -0.559  -3.196  0.00  0.00    +0.019 C 
ATOM      4  C   UNL     1       1.852   0.368  -4.404  0.00  0.00    -0.002 C 
ATOM      5  C   UNL     1       0.435   0.685  -4.898  0.00  0.00    -0.020 C 
ATOM      6  C   UNL     1       0.579   1.594  -6.125  0.00  0.00    +0.157 C 
ATOM      7  O   UNL     1      -0.725   1.966  -6.605  0.00  0.00    -0.316 OA
ATOM      8  P   UNL     1      -1.808   0.776  -6.847  0.00  0.00    +0.291 P 
ATOM      9  O   UNL     1      -1.557   0.108  -8.144  0.00  0.00    -0.269 OA
ATOM     10  N   UNL     1      -1.572  -0.283  -5.603  0.00  0.00    -0.288 NA
ATOM     11  N   UNL     1      -0.272  -0.553  -5.231  0.00  0.00    +0.398 N 
ATOM     12  C   UNL     1      -0.364  -1.425  -4.048  0.00  0.00    -0.046 C 
ATOM     13  C   UNL     1       1.014  -1.815  -3.566  0.00  0.00    +0.005 C 
ATOM     14  C   UNL     1       0.852  -2.672  -2.333  0.00  0.00    -0.013 C 
ATOM     15  C   UNL     1       0.668  -2.085  -1.139  0.00  0.00    +0.023 C 
ATOM     16  H   UNL     1      -2.322  -0.702  -5.152  0.00  0.00    +0.111 HD
ATOM     17  H   UNL     1       0.208  -1.028  -5.981  0.00  0.00    -0.055 HD
ENDROOT
BRANCH  15  18
ATOM     18  C   UNL     1       0.523  -2.908   0.086  0.00  0.00    +0.027 A 
ATOM     19  C   UNL     1       1.640  -3.512   0.660  0.00  0.00    +0.012 A 
ATOM     20  C   UNL     1       1.500  -4.276   1.800  0.00  0.00    +0.001 A 
ATOM     21  C   UNL     1       0.254  -4.447   2.376  0.00  0.00    +0.004 A 
ATOM     22  C   UNL     1      -0.861  -3.853   1.815  0.00  0.00    +0.046 A 
ATOM     23  C   UNL     1      -0.734  -3.078   0.674  0.00  0.00    +0.125 A 
BRANCH  23  24
ATOM     24  O   UNL     1      -1.828  -2.489   0.125  0.00  0.00    -0.506 OA
ATOM     25  H   UNL     1      -2.281  -3.036  -0.532  0.00  0.00    +0.292 HD
ENDBRANCH  23  24
ENDBRANCH  15  18
BRANCH   8  26
ATOM     26  C   UNL     1      -3.495   1.441  -6.799  0.00  0.00    +0.091 A 
ATOM     27  C   UNL     1      -4.181   1.502  -5.601  0.00  0.00    +0.018 A 
ATOM     28  C   UNL     1      -5.467   2.009  -5.564  0.00  0.00    +0.001 A 
ATOM     29  C   UNL     1      -6.070   2.456  -6.726  0.00  0.00    +0.004 A 
ATOM     30  C   UNL     1      -5.388   2.398  -7.926  0.00  0.00    +0.046 A 
ATOM     31  C   UNL     1      -4.096   1.895  -7.964  0.00  0.00    +0.131 A 
BRANCH  31  32
ATOM     32  O   UNL     1      -3.421   1.842  -9.143  0.00  0.00    -0.506 OA
ATOM     33  H   UNL     1      -3.548   1.018  -9.632  0.00  0.00    +0.292 HD
ENDBRANCH  31  32
ENDBRANCH   8  26
BRANCH   1  35
ATOM     34  C   UNL     1      -0.017   1.425   0.010  0.00  0.00    +0.277 C 
ATOM     35  O   UNL     1       0.002  -0.004   0.002  0.00  0.00    -0.495 OA
ENDBRANCH   1  35
TORSDOF 5
