REMARK  Name = ZINC43743417
REMARK  13 active torsions:
REMARK  status: ('A' for Active; 'I' for Inactive)
REMARK    1  A    between atoms: CD1_1  and  CG1_2
REMARK    2  A    between atoms: CG1_2  and  CB_3
REMARK    3  A    between atoms: CB_3  and  CG2_5
REMARK    4  A    between atoms: CB_3  and  CA_6
REMARK    5  A    between atoms: CA_6  and  C_8
REMARK    6  A    between atoms: CA_6  and  N_11
REMARK    7  A    between atoms: C_12  and  C_14
REMARK    8  A    between atoms: C_14  and  O_15
REMARK    9  A    between atoms: O_15  and  N_16
REMARK   10  A    between atoms: C_20  and  C_40
REMARK   11  A    between atoms: C_25  and  C_39
REMARK   12  A    between atoms: C_36  and  C_37
REMARK   13  A    between atoms: C_36  and  O_38
REMARK                            x       y       z     vdW  Elec       q    Type
REMARK                         _______ _______ _______ _____ _____    ______ ____
ROOT
ATOM      1  N   UNK A   0       2.796  -6.106  -6.870  0.00  0.00    -0.089 NA
ATOM      2  C   UNK A   0       2.458  -7.350  -6.996  0.00  0.00    +0.080 C 
ATOM      3  C   UNK A   0       1.510  -8.028  -6.024  0.00  0.00    +0.059 C 
ATOM      4  C   UNK A   0       2.187  -9.309  -5.538  0.00  0.00    +0.017 C 
ATOM      5  C   UNK A   0       2.599 -10.208  -6.678  0.00  0.00    -0.007 C 
ATOM      6  C   UNK A   0       1.524 -11.246  -7.002  0.00  0.00    +0.002 C 
ATOM      7  C   UNK A   0       1.164 -12.020  -5.738  0.00  0.00    +0.005 C 
ATOM      8  C   UNK A   0       0.179 -13.163  -6.035  0.00  0.00    +0.010 C 
ATOM      9  C   UNK A   0       0.829 -14.059  -7.071  0.00  0.00    -0.000 C 
ATOM     10  C   UNK A   0       0.986 -13.222  -8.369  0.00  0.00    +0.001 C 
ATOM     11  C   UNK A   0       2.065 -12.193  -8.088  0.00  0.00    -0.003 C 
ATOM     12  C   UNK A   0       2.358 -11.405  -9.365  0.00  0.00    +0.008 C 
ATOM     13  C   UNK A   0       3.459 -10.371  -9.102  0.00  0.00    +0.031 C 
ATOM     14  C   UNK A   0       3.010  -9.508  -7.935  0.00  0.00    -0.062 C 
ATOM     15  C   UNK A   0       2.967  -8.190  -8.098  0.00  0.00    +0.026 C 
ATOM     16  C   UNK A   0       1.346 -14.302  -9.394  0.00  0.00    +0.007 C 
ATOM     17  C   UNK A   0       0.391 -15.468  -9.020  0.00  0.00    +0.035 C 
ATOM     18  C   UNK A   0       0.019 -15.267  -7.530  0.00  0.00    +0.069 C 
ATOM     19  C   UNK A   0      -1.478 -14.985  -7.391  0.00  0.00    +0.042 C 
ATOM     20  C   UNK A   0       2.203 -14.514  -6.574  0.00  0.00    +0.014 C 
ATOM     21  C   UNK A   0       3.817 -10.999  -6.197  0.00  0.00    +0.016 C 
ENDROOT
BRANCH  18  22
ATOM     22  O   UNK A   0       0.379 -16.422  -6.769  0.00  0.00    -0.388 OA
ATOM     23  H   UNK A   0      -0.104 -17.222  -7.017  0.00  0.00    +0.210 HD
ENDBRANCH  18  22
BRANCH   1  24
ATOM     24  O   UNK A   0       2.283  -5.339  -5.796  0.00  0.00    -0.384 OA
BRANCH  24  25
ATOM     25  C   UNK A   0       2.739  -3.984  -5.780  0.00  0.00    +0.358 C 
BRANCH  25  27
ATOM     26  N   ILE A   1       2.424  -1.967  -4.384  0.00  0.00    -0.299 N 
ATOM     27  C   UNK A   0       2.134  -3.265  -4.602  0.00  0.00    +0.254 C 
ATOM     28  O   UNK A   0       1.385  -3.853  -3.851  0.00  0.00    -0.272 OA
ATOM     29  H   ILE A   1       3.022  -1.496  -4.985  0.00  0.00    +0.150 HD
BRANCH  26  30
ATOM     30  CA  ILE A   1       1.835  -1.267  -3.239  0.00  0.00    +0.189 C 
BRANCH  30  31
ATOM     31  C   ILE A   1       2.677  -1.512  -2.014  0.00  0.00    +0.376 C 
ATOM     32  O   ILE A   1       2.269  -1.173  -0.916  0.00  0.00    -0.244 OA
ATOM     33  OXT ILE A   1       3.767  -2.049  -2.120  0.00  0.00    -0.244 OA
ENDBRANCH  30  31
BRANCH  30  34
ATOM     34  CB  ILE A   1       1.784   0.234  -3.531  0.00  0.00    +0.017 C 
ATOM     35  CG2 ILE A   1       0.929   0.483  -4.775  0.00  0.00    +0.010 C 
BRANCH  34  37
ATOM     36  CD1 ILE A   1       1.231   2.475  -2.574  0.00  0.00    +0.004 C 
ATOM     37  CG1 ILE A   1       1.169   0.965  -2.335  0.00  0.00    +0.002 C 
ENDBRANCH  34  37
ENDBRANCH  30  34
ENDBRANCH  26  30
ENDBRANCH  25  27
ENDBRANCH  24  25
ENDBRANCH   1  24
TORSDOF 8
