REMARK  Name = ZINC40723738
REMARK  4 active torsions:
REMARK  status: ('A' for Active; 'I' for Inactive)
REMARK    1  A    between atoms: C_4  and  C_7
REMARK    2  A    between atoms: C_7  and  C_8
REMARK    3  A    between atoms: C_15  and  N_21
REMARK    4  A    between atoms: C_16  and  N_20
REMARK                            x       y       z     vdW  Elec       q    Type
REMARK                         _______ _______ _______ _____ _____    ______ ____
ROOT
ATOM      1  C   UNL     1       4.249  -0.959   1.370  0.00  0.00    -0.004 C 
ATOM      2  C   UNL     1       3.244  -1.877   2.072  0.00  0.00    +0.023 C 
ATOM      3  C   UNL     1       3.689  -2.101   3.520  0.00  0.00    +0.107 C 
ATOM      4  N   UNL     1       5.069  -2.606   3.518  0.00  0.00    -0.314 N 
ATOM      5  C   UNL     1       6.098  -1.847   2.795  0.00  0.00    +0.107 C 
ATOM      6  C   UNL     1       5.626  -1.625   1.355  0.00  0.00    +0.023 C 
ATOM      7  C   UNL     1       5.395  -3.779   4.189  0.00  0.00    +0.147 A 
ATOM      8  C   UNL     1       5.864  -3.738   5.503  0.00  0.00    +0.105 A 
ATOM      9  C   UNL     1       6.176  -4.945   6.130  0.00  0.00    +0.142 A 
ATOM     10  N   UNL     1       6.015  -6.082   5.455  0.00  0.00    -0.219 NA
ATOM     11  C   UNL     1       5.569  -6.077   4.216  0.00  0.00    +0.225 A 
ATOM     12  N   UNL     1       5.259  -4.960   3.589  0.00  0.00    -0.219 NA
ENDROOT
BRANCH   9  13
ATOM     13  N   UNL     1       6.647  -4.961   7.437  0.00  0.00    -0.342 N 
ATOM     14  H   UNL     1       6.761  -4.128   7.921  0.00  0.00    +0.144 HD
ATOM     15  H   UNL     1       6.861  -5.804   7.865  0.00  0.00    +0.144 HD
ENDBRANCH   9  13
BRANCH   8  16
ATOM     16  N   UNL     1       6.018  -2.515   6.176  0.00  0.00    -0.353 N 
ATOM     17  H   UNL     1       5.714  -1.692   5.762  0.00  0.00    +0.143 HD
ATOM     18  H   UNL     1       6.429  -2.493   7.054  0.00  0.00    +0.143 HD
ENDBRANCH   8  16
BRANCH   1  19
ATOM     19  C   UNL     1       3.789  -0.705  -0.067  0.00  0.00    +0.038 C 
BRANCH  19  23
ATOM     20  C   UNL     1       0.109   1.464  -0.025  0.00  0.00    +0.000 A 
ATOM     21  C   UNL     1       1.313   2.144  -0.043  0.00  0.00    +0.000 A 
ATOM     22  C   UNL     1       2.503   1.442  -0.056  0.00  0.00    +0.003 A 
ATOM     23  C   UNL     1       2.491   0.060  -0.051  0.00  0.00    -0.047 A 
ATOM     24  C   UNL     1       1.288  -0.620  -0.033  0.00  0.00    +0.003 A 
ATOM     25  C   UNL     1       0.097   0.082  -0.021  0.00  0.00    +0.000 A 
ENDBRANCH  19  23
ENDBRANCH   1  19
TORSDOF 4
