REMARK  Name = ZINC06134170
REMARK  15 active torsions:
REMARK  status: ('A' for Active; 'I' for Inactive)
REMARK    1  A    between atoms: C_1  and  C_2
REMARK    2  A    between atoms: C_2  and  C_3
REMARK    3  A    between atoms: C_2  and  C_4
REMARK    4  A    between atoms: C_4  and  C_5
REMARK    5  A    between atoms: C_5  and  N_6
REMARK    6  A    between atoms: C_7  and  C_9
REMARK    7  A    between atoms: C_9  and  C_11
REMARK    8  A    between atoms: C_9  and  N_18
REMARK    9  A    between atoms: N_18  and  C_19
REMARK   10  A    between atoms: C_22  and  C_25
REMARK   11  A    between atoms: C_25  and  C_26
REMARK   12  A    between atoms: C_25  and  C_27
REMARK   13  A    between atoms: C_28  and  C_30
REMARK   14  A    between atoms: C_31  and  N_38
REMARK   15  A    between atoms: C_32  and  C_35
REMARK                            x       y       z     vdW  Elec       q    Type
REMARK                         _______ _______ _______ _____ _____    ______ ____
ROOT
ATOM      1  N   UNL     1      -0.633   3.082   1.173  0.00  0.00    -0.251 N 
ATOM      2  C   UNL     1      -0.127   4.175   0.570  0.00  0.00    +0.262 C 
ATOM      3  O   UNL     1      -0.283   5.274   1.071  0.00  0.00    -0.269 OA
ENDROOT
BRANCH   1   4
ATOM      4  C   UNL     1      -1.447   3.220   2.302  0.00  0.00    +0.038 A 
ATOM      5  C   UNL     1      -1.855   2.095   3.007  0.00  0.00    +0.024 A 
ATOM      6  C   UNL     1      -2.655   2.235   4.125  0.00  0.00    +0.006 A 
ATOM      7  C   UNL     1      -3.058   3.492   4.535  0.00  0.00    -0.045 A 
ATOM      8  C   UNL     1      -2.659   4.614   3.832  0.00  0.00    +0.006 A 
ATOM      9  C   UNL     1      -1.855   4.481   2.717  0.00  0.00    +0.024 A 
BRANCH   7  10
ATOM     10  C   UNL     1      -3.936   3.640   5.751  0.00  0.00    +0.013 C 
ATOM     11  C   UNL     1      -5.247   2.885   5.529  0.00  0.00    +0.012 C 
ATOM     12  C   UNL     1      -3.216   3.065   6.973  0.00  0.00    +0.012 C 
ENDBRANCH   7  10
ENDBRANCH   1   4
BRANCH   2  13
ATOM     13  C   UNL     1       0.610   4.042  -0.688  0.00  0.00    +0.116 A 
ATOM     14  C   UNL     1       1.762   4.707  -1.113  0.00  0.00    +0.076 A 
ATOM     15  C   UNL     1       2.172   4.305  -2.384  0.00  0.00    +0.155 A 
ATOM     16  N   UNL     1       1.472   3.398  -3.029  0.00  0.00    -0.203 NA
ATOM     17  S   UNL     1       0.274   2.995  -2.088  0.00  0.00    +0.019 S 
BRANCH  15  18
ATOM     18  C   UNL     1       3.375   4.894  -3.000  0.00  0.00    +0.262 C 
ATOM     19  O   UNL     1       4.018   5.733  -2.397  0.00  0.00    -0.269 OA
ATOM     20  N   UNL     1       3.762   4.505  -4.231  0.00  0.00    -0.324 N 
ATOM     21  H   UNL     1       3.249   3.836  -4.711  0.00  0.00    +0.145 HD
ATOM     22  H   UNL     1       4.553   4.893  -4.636  0.00  0.00    +0.145 HD
ENDBRANCH  15  18
BRANCH  14  23
ATOM     23  N   UNL     1       2.428   5.660  -0.353  0.00  0.00    -0.355 N 
ATOM     24  H   UNL     1       2.095   5.897   0.527  0.00  0.00    +0.142 HD
ATOM     25  H   UNL     1       3.225   6.088  -0.702  0.00  0.00    +0.142 HD
ENDBRANCH  14  23
ENDBRANCH   2  13
BRANCH   1  26
ATOM     26  C   UNL     1      -0.331   1.748   0.646  0.00  0.00    +0.197 C 
BRANCH  26  27
ATOM     27  C   UNL     1      -1.613   1.063   0.248  0.00  0.00    -0.018 A 
ATOM     28  C   UNL     1      -2.825   1.698   0.445  0.00  0.00    +0.009 A 
ATOM     29  C   UNL     1      -4.002   1.068   0.085  0.00  0.00    +0.038 A 
ATOM     30  C   UNL     1      -3.966  -0.199  -0.473  0.00  0.00    +0.123 A 
ATOM     31  C   UNL     1      -2.751  -0.833  -0.670  0.00  0.00    +0.038 A 
ATOM     32  C   UNL     1      -1.576  -0.201  -0.310  0.00  0.00    +0.009 A 
ATOM     33  F   UNL     1      -5.115  -0.815  -0.826  0.00  0.00    -0.205 F 
ENDBRANCH  26  27
BRANCH  26  35
ATOM     34  N   UNL     1       0.740  -0.333   1.446  0.00  0.00    -0.313 N 
ATOM     35  C   UNL     1       0.364   0.935   1.707  0.00  0.00    +0.238 C 
ATOM     36  O   UNL     1       0.586   1.421   2.796  0.00  0.00    -0.273 OA
ATOM     37  H   UNL     1       0.563  -0.721   0.575  0.00  0.00    +0.149 HD
BRANCH  34  38
ATOM     38  C   UNL     1       1.417  -1.123   2.478  0.00  0.00    +0.104 C 
BRANCH  38  39
ATOM     39  C   UNL     1       1.732  -2.516   1.927  0.00  0.00    +0.022 C 
BRANCH  39  41
ATOM     40  C   UNL     1       1.482  -3.576   4.176  0.00  0.00    +0.007 C 
ATOM     41  C   UNL     1       2.438  -3.341   3.005  0.00  0.00    -0.016 C 
ATOM     42  C   UNL     1       2.865  -4.688   2.417  0.00  0.00    +0.007 C 
ENDBRANCH  39  41
ENDBRANCH  38  39
ENDBRANCH  34  38
ENDBRANCH  26  35
ENDBRANCH   1  26
TORSDOF 11
