REMARK  Name = ZINC63864642
REMARK  9 active torsions:
REMARK  status: ('A' for Active; 'I' for Inactive)
REMARK    1  A    between atoms: C_7  and  C_10
REMARK    2  A    between atoms: C_10  and  C_11
REMARK    3  A    between atoms: C_11  and  C_13
REMARK    4  A    between atoms: C_11  and  N_27
REMARK    5  A    between atoms: C_13  and  O_15
REMARK    6  A    between atoms: O_15  and  C_16
REMARK    7  A    between atoms: C_16  and  C_17
REMARK    8  A    between atoms: N_19  and  C_20
REMARK    9  A    between atoms: C_28  and  C_30
REMARK                            x       y       z     vdW  Elec       q    Type
REMARK                         _______ _______ _______ _____ _____    ______ ____
ROOT
ATOM      1  C   UNL     1       0.451  -3.648  -1.418  0.00  0.00    +0.186 C 
ENDROOT
BRANCH   1   2
ATOM      2  N   UNL     1      -0.246  -2.592  -2.156  0.00  0.00    -0.298 N 
ATOM      3  C   UNL     1      -1.458  -2.170  -1.744  0.00  0.00    +0.246 C 
ATOM      4  O   UNL     1      -1.972  -2.665  -0.760  0.00  0.00    -0.270 OA
ATOM      5  H   UNL     1       0.164  -2.197  -2.942  0.00  0.00    +0.150 HD
BRANCH   3   6
ATOM      6  C   UNL     1      -2.162  -1.105  -2.488  0.00  0.00    +0.055 A 
ATOM      7  C   UNL     1      -1.577  -0.538  -3.623  0.00  0.00    +0.014 A 
ATOM      8  C   UNL     1      -2.239   0.455  -4.313  0.00  0.00    +0.001 A 
ATOM      9  C   UNL     1      -3.481   0.891  -3.884  0.00  0.00    +0.001 A 
ATOM     10  C   UNL     1      -4.066   0.336  -2.762  0.00  0.00    +0.021 A 
ATOM     11  C   UNL     1      -3.417  -0.664  -2.064  0.00  0.00    +0.053 A 
ATOM     12 CL   UNL     1      -4.157  -1.367  -0.659  0.00  0.00    -0.083 Cl
ENDBRANCH   3   6
ENDBRANCH   1   2
BRANCH   1  13
ATOM     13  C   UNL     1      -0.389  -4.899  -1.416  0.00  0.00    +0.328 C 
ATOM     14  O   UNL     1      -1.575  -4.830  -1.637  0.00  0.00    -0.249 OA
BRANCH  13  15
ATOM     15  O   UNL     1       0.179  -6.089  -1.168  0.00  0.00    -0.454 OA
BRANCH  15  16
ATOM     16  C   UNL     1      -0.677  -7.233  -1.182  0.00  0.00    +0.328 C 
BRANCH  16  17
ATOM     17  C   UNL     1       0.131  -8.470  -0.885  0.00  0.00    +0.255 C 
ATOM     18  O   UNL     1       1.324  -8.381  -0.682  0.00  0.00    -0.272 OA
ATOM     19  N   UNL     1      -0.471  -9.675  -0.846  0.00  0.00    -0.280 N 
ATOM     20  H   UNL     1      -1.434  -9.740  -0.944  0.00  0.00    +0.155 HD
BRANCH  19  21
ATOM     21  C   UNL     1       0.294 -10.834  -0.663  0.00  0.00    +0.069 A 
ATOM     22  C   UNL     1       1.422 -10.803   0.145  0.00  0.00    +0.026 A 
ATOM     23  C   UNL     1       2.174 -11.948   0.324  0.00  0.00    +0.002 A 
ATOM     24  C   UNL     1       1.805 -13.125  -0.301  0.00  0.00    +0.003 A 
ATOM     25  C   UNL     1       0.683 -13.161  -1.107  0.00  0.00    +0.040 A 
ATOM     26  C   UNL     1      -0.079 -12.020  -1.286  0.00  0.00    +0.144 A 
ATOM     27  F   UNL     1      -1.179 -12.056  -2.069  0.00  0.00    -0.204 F 
ENDBRANCH  19  21
ENDBRANCH  16  17
ENDBRANCH  15  16
ENDBRANCH  13  15
ENDBRANCH   1  13
BRANCH   1  28
ATOM     28  C   UNL     1       0.690  -3.192   0.022  0.00  0.00    +0.067 C 
BRANCH  28  35
ATOM     29  C   UNL     1      -0.019   1.341   0.093  0.00  0.00    +0.001 A 
ATOM     30  C   UNL     1       1.163   2.095   0.088  0.00  0.00    +0.002 A 
ATOM     31  C   UNL     1       2.388   1.530   0.065  0.00  0.00    +0.026 A 
ATOM     32  C   UNL     1       2.527   0.115   0.044  0.00  0.00    +0.043 A 
ATOM     33  N   UNL     1       3.585  -0.659   0.019  0.00  0.00    -0.380 N 
ATOM     34  C   UNL     1       3.142  -2.057   0.006  0.00  0.00    +0.144 C 
ATOM     35  C   UNL     1       1.630  -2.014   0.027  0.00  0.00    -0.039 C 
ATOM     36  C   UNL     1       1.293  -0.704   0.049  0.00  0.00    -0.001 A 
ATOM     37  C   UNL     1       0.000  -0.011   0.075  0.00  0.00    +0.010 A 
ATOM     38  H   UNL     1       4.507  -0.357   0.011  0.00  0.00    +0.160 HD
ENDBRANCH  28  35
ENDBRANCH   1  28
TORSDOF 9
