REMARK  Name = ZINC43687386
REMARK  5 active torsions:
REMARK  status: ('A' for Active; 'I' for Inactive)
REMARK    1  A    between atoms: C_1  and  C_2
REMARK    2  A    between atoms: C_2  and  C_3
REMARK    3  A    between atoms: C_3  and  C_17
REMARK    4  A    between atoms: N_6  and  C_10
REMARK    5  A    between atoms: C_10  and  C_11
REMARK                            x       y       z     vdW  Elec       q    Type
REMARK                         _______ _______ _______ _____ _____    ______ ____
ROOT
ATOM      1  C   UNL     1       0.718  -0.497  -1.257  0.00  0.00    +0.110 C 
ATOM      2  C   UNL     1       0.555  -1.997  -1.410  0.00  0.00    +0.247 C 
ATOM      3  O   UNL     1       0.935  -2.857  -0.645  0.00  0.00    -0.273 OA
ATOM      4  N   UNL     1      -0.101  -2.175  -2.574  0.00  0.00    -0.219 N 
ATOM      5  C   UNL     1      -0.371  -1.008  -3.171  0.00  0.00    +0.310 C 
ATOM      6  O   UNL     1      -0.955  -0.913  -4.233  0.00  0.00    -0.252 OA
ATOM      7  N   UNL     1       0.075   0.046  -2.466  0.00  0.00    -0.285 N 
ATOM      8  C   UNL     1       2.199  -0.115  -1.216  0.00  0.00    +0.041 C 
ATOM      9  H   UNL     1      -0.010   0.982  -2.706  0.00  0.00    +0.151 HD
ENDROOT
BRANCH   1  11
ATOM     10  C   UNL     1      -0.019   1.526   0.010  0.00  0.00    +0.006 C 
ATOM     11  C   UNL     1       0.002  -0.004   0.002  0.00  0.00    +0.031 C 
ENDBRANCH   1  11
BRANCH   4  12
ATOM     12  C   UNL     1      -0.470  -3.483  -3.119  0.00  0.00    +0.160 C 
BRANCH  12  13
ATOM     13  C   UNL     1      -1.838  -3.869  -2.616  0.00  0.00    +0.009 A 
ATOM     14  C   UNL     1      -3.051  -3.621  -3.168  0.00  0.00    +0.028 A 
ATOM     15  C   UNL     1      -4.186  -4.075  -2.523  0.00  0.00    +0.025 A 
ATOM     16  C   UNL     1      -4.052  -4.755  -1.358  0.00  0.00    +0.060 A 
ATOM     17  S   UNL     1      -2.280  -4.776  -1.144  0.00  0.00    -0.099 S 
ATOM     18 BR   UNL     1      -5.900  -3.753  -3.255  0.00  0.00    -0.050 Br
ENDBRANCH  12  13
ENDBRANCH   4  12
TORSDOF 3
