REMARK  Name = ZINC16022199
REMARK  7 active torsions:
REMARK  status: ('A' for Active; 'I' for Inactive)
REMARK    1  A    between atoms: C_1  and  C_2
REMARK    2  A    between atoms: C_2  and  C_3
REMARK    3  A    between atoms: C_2  and  C_4
REMARK    4  A    between atoms: C_2  and  N_5
REMARK    5  A    between atoms: C_10  and  C_28
REMARK    6  A    between atoms: C_28  and  C_29
REMARK    7  A    between atoms: C_29  and  C_30
REMARK                            x       y       z     vdW  Elec       q    Type
REMARK                         _______ _______ _______ _____ _____    ______ ____
ROOT
ATOM      1  N   UNL     1       0.688  -0.476  -1.203  0.00  0.00    -0.236 N 
ATOM      2  C   UNL     1       0.091  -1.247  -2.120  0.00  0.00    +0.228 C 
ATOM      3  O   UNL     1      -1.056  -1.636  -2.069  0.00  0.00    -0.275 OA
ATOM      4  C   UNL     1       1.069  -1.556  -3.231  0.00  0.00    +0.107 C 
ATOM      5  C   UNL     1       1.425  -3.058  -3.187  0.00  0.00    +0.068 C 
ATOM      6  N   UNL     1       2.905  -3.103  -3.323  0.00  0.00    -0.295 NA
ATOM      7  C   UNL     1       3.376  -1.952  -2.529  0.00  0.00    +0.136 C 
ATOM      8  C   UNL     1       2.360  -0.812  -2.788  0.00  0.00    +0.122 C 
ATOM      9  C   UNL     1       1.960  -0.168  -1.480  0.00  0.00    +0.229 C 
ATOM     10  O   UNL     1       2.681   0.518  -0.787  0.00  0.00    -0.275 OA
ATOM     11  C   UNL     1       4.767  -1.546  -2.923  0.00  0.00    +0.004 A 
ATOM     12  C   UNL     1       5.333  -1.124  -4.106  0.00  0.00    +0.023 A 
ATOM     13  C   UNL     1       6.681  -0.815  -4.158  0.00  0.00    +0.018 A 
ATOM     14  C   UNL     1       7.458  -0.930  -3.019  0.00  0.00    +0.017 A 
ATOM     15  C   UNL     1       6.895  -1.350  -1.831  0.00  0.00    +0.025 A 
ATOM     16  C   UNL     1       5.539  -1.663  -1.771  0.00  0.00    +0.039 A 
ATOM     17  N   UNL     1       4.750  -2.102  -0.705  0.00  0.00    -0.283 N 
ATOM     18  C   UNL     1       3.467  -2.295  -1.067  0.00  0.00    +0.243 C 
ATOM     19  O   UNL     1       2.562  -2.672  -0.354  0.00  0.00    -0.273 OA
ATOM     20 BR   UNL     1       7.460  -0.238  -5.782  0.00  0.00    -0.050 Br
ATOM     21  H   UNL     1       3.275  -3.969  -2.959  0.00  0.00    +0.123 HD
ATOM     22  H   UNL     1       5.087  -2.251   0.193  0.00  0.00    +0.155 HD
ENDROOT
BRANCH   1  24
ATOM     23  C   UNL     1      -0.019   1.526   0.010  0.00  0.00    +0.031 C 
ATOM     24  C   UNL     1       0.002  -0.004   0.002  0.00  0.00    +0.036 C 
ATOM     25  C   UNL     1       0.742  -0.511   1.242  0.00  0.00    +0.031 C 
ATOM     26  C   UNL     1      -1.433  -0.534   0.013  0.00  0.00    +0.031 C 
ENDBRANCH   1  24
BRANCH   5  27
ATOM     27  C   UNL     1       0.759  -3.796  -4.349  0.00  0.00    +0.028 C 
BRANCH  27  28
ATOM     28  C   UNL     1       1.021  -5.298  -4.216  0.00  0.00    +0.097 C 
BRANCH  28  29
ATOM     29  C   UNL     1       0.364  -6.026  -5.361  0.00  0.00    +0.211 C 
ATOM     30  O   UNL     1      -0.252  -5.405  -6.201  0.00  0.00    -0.276 OA
ATOM     31  N   UNL     1       0.463  -7.367  -5.452  0.00  0.00    -0.329 N 
ATOM     32  H   UNL     1       0.956  -7.864  -4.781  0.00  0.00    +0.145 HD
ATOM     33  H   UNL     1       0.040  -7.835  -6.189  0.00  0.00    +0.145 HD
ENDBRANCH  28  29
ENDBRANCH  27  28
ENDBRANCH   5  27
TORSDOF 4
