REMARK  Name = ZINC64613549
REMARK  5 active torsions:
REMARK  status: ('A' for Active; 'I' for Inactive)
REMARK    1  A    between atoms: C_1  and  C_2
REMARK    2  A    between atoms: C_5  and  C_27
REMARK    3  A    between atoms: C_6  and  C_8
REMARK    4  A    between atoms: C_10  and  C_14
REMARK    5  A    between atoms: C_17  and  C_20
REMARK                            x       y       z     vdW  Elec       q    Type
REMARK                         _______ _______ _______ _____ _____    ______ ____
ROOT
ATOM      1  C   UNL     1      -0.203  -2.505   2.625  0.00  0.00    +0.091 C 
ATOM      2  C   UNL     1      -0.256  -3.822   2.900  0.00  0.00    +0.037 C 
ATOM      3  C   UNL     1      -0.371  -3.874   4.413  0.00  0.00    +0.215 C 
ATOM      4  N   UNL     1      -0.366  -2.453   4.799  0.00  0.00    -0.174 NA
ATOM      5  N   UNL     1      -0.267  -1.778   3.772  0.00  0.00    -0.154 NA
ENDROOT
BRANCH   1  11
ATOM      6  C   UNL     1      -1.919  -2.069  -2.043  0.00  0.00    +0.044 C 
ATOM      7  C   UNL     1      -0.909  -1.716  -0.983  0.00  0.00    -0.050 A 
ATOM      8  C   UNL     1       0.130  -0.852  -1.279  0.00  0.00    +0.003 A 
ATOM      9  C   UNL     1       1.061  -0.524  -0.309  0.00  0.00    +0.004 A 
ATOM     10  C   UNL     1       0.957  -1.057   0.959  0.00  0.00    -0.041 A 
ATOM     11  C   UNL     1      -0.087  -1.928   1.263  0.00  0.00    +0.005 A 
ATOM     12  C   UNL     1      -1.025  -2.251   0.284  0.00  0.00    +0.013 A 
ATOM     13  C   UNL     1       1.972  -0.699   2.014  0.00  0.00    +0.044 C 
ENDBRANCH   1  11
BRANCH   3  14
ATOM     14  C   UNL     1       0.827  -4.607   5.021  0.00  0.00    +0.322 C 
ATOM     15  N   UNL     1       0.671  -4.723   6.479  0.00  0.00    -0.287 N 
ATOM     16  C   UNL     1       1.735  -4.049   7.050  0.00  0.00    +0.168 C 
ATOM     17  N   UNL     1       2.508  -3.544   6.145  0.00  0.00    -0.067 NA
ATOM     18  O   UNL     1       2.027  -3.838   4.845  0.00  0.00    -0.367 OA
ATOM     19  H   UNL     1      -0.041  -5.184   6.950  0.00  0.00    +0.151 HD
BRANCH  16  20
ATOM     20  C   UNL     1       1.959  -3.921   8.508  0.00  0.00    +0.021 A 
ATOM     21  C   UNL     1       1.069  -4.507   9.407  0.00  0.00    +0.011 A 
ATOM     22  C   UNL     1       1.282  -4.386  10.765  0.00  0.00    +0.003 A 
ATOM     23  C   UNL     1       2.377  -3.684  11.236  0.00  0.00    +0.038 A 
ATOM     24  C   UNL     1       3.265  -3.098  10.349  0.00  0.00    +0.124 A 
ATOM     25  C   UNL     1       3.065  -3.219   8.987  0.00  0.00    +0.049 A 
ATOM     26  F   UNL     1       4.332  -2.413  10.816  0.00  0.00    -0.205 F 
ENDBRANCH  16  20
ENDBRANCH   3  14
TORSDOF 3
