REMARK  Name = ZINC66631199
REMARK  12 active torsions:
REMARK  status: ('A' for Active; 'I' for Inactive)
REMARK    1  A    between atoms: C_1  and  C_2
REMARK    2  A    between atoms: C_2  and  C_3
REMARK    3  A    between atoms: C_3  and  C_4
REMARK    4  A    between atoms: C_10  and  C_12
REMARK    5  A    between atoms: N_14  and  N_15
REMARK    6  A    between atoms: C_16  and  C_18
REMARK    7  A    between atoms: C_21  and  C_23
REMARK    8  A    between atoms: C_23  and  N_24
REMARK    9  A    between atoms: N_24  and  C_25
REMARK   10  A    between atoms: N_24  and  C_27
REMARK   11  A    between atoms: C_25  and  C_26
REMARK   12  A    between atoms: C_27  and  C_28
REMARK                            x       y       z     vdW  Elec       q    Type
REMARK                         _______ _______ _______ _____ _____    ______ ____
ROOT
ATOM      1  N   UNL     1       3.470  -5.662  -0.265  0.00  0.00    -0.228 N 
ATOM      2  C   UNL     1       3.667  -6.994  -0.328  0.00  0.00    +0.295 C 
ATOM      3  O   UNL     1       3.437  -7.595  -1.361  0.00  0.00    -0.265 OA
ATOM      4  H   UNL     1       3.653  -5.184   0.559  0.00  0.00    +0.173 HD
ENDROOT
BRANCH   2   5
ATOM      5  C   UNL     1       4.158  -7.720   0.848  0.00  0.00    +0.191 A 
ATOM      6  C   UNL     1       4.404  -9.061   0.918  0.00  0.00    +0.055 A 
ATOM      7  C   UNL     1       4.857  -9.320   2.221  0.00  0.00    +0.043 A 
ATOM      8  C   UNL     1       4.868  -8.141   2.881  0.00  0.00    +0.090 A 
ATOM      9  O   UNL     1       4.451  -7.178   2.048  0.00  0.00    -0.457 OA
BRANCH   8  10
ATOM     10  C   UNL     1       5.284  -7.941   4.315  0.00  0.00    -0.003 C 
BRANCH  10  11
ATOM     11  N   UNL     1       6.725  -7.659   4.372  0.00  0.00    +0.384 N 
ATOM     12  H   UNL     1       7.231  -8.396   3.905  0.00  0.00    -0.081 HD
BRANCH  11  13
ATOM     13  C   UNL     1       6.999  -6.378   3.706  0.00  0.00    -0.082 C 
ATOM     14  C   UNL     1       8.511  -6.154   3.634  0.00  0.00    -0.017 C 
ENDBRANCH  11  13
BRANCH  11  15
ATOM     15  C   UNL     1       7.154  -7.583   5.774  0.00  0.00    -0.082 C 
ATOM     16  C   UNL     1       7.001  -8.957   6.430  0.00  0.00    -0.017 C 
ENDBRANCH  11  15
ENDBRANCH  10  11
ENDBRANCH   8  10
ENDBRANCH   2   5
BRANCH   1  19
ATOM     17  C   UNL     1       2.804  -3.637  -1.325  0.00  0.00    +0.250 C 
ATOM     18  O   UNL     1       3.033  -3.039  -0.295  0.00  0.00    -0.272 OA
ATOM     19  N   UNL     1       3.001  -4.969  -1.388  0.00  0.00    -0.233 N 
ATOM     20  H   UNL     1       2.818  -5.448  -2.212  0.00  0.00    +0.173 HD
BRANCH  17  27
ATOM     21  C   UNL     1       1.406  -1.068  -1.167  0.00  0.00    +0.217 C 
ATOM     22  O   UNL     1       0.788  -1.875  -0.507  0.00  0.00    -0.276 OA
ATOM     23  N   UNL     1       2.179  -1.485  -2.190  0.00  0.00    -0.280 N 
ATOM     24  C   UNL     1       2.954  -0.534  -3.017  0.00  0.00    +0.178 C 
ATOM     25  S   UNL     1       4.265  -1.641  -3.701  0.00  0.00    -0.139 S 
ATOM     26  C   UNL     1       3.245  -3.182  -3.725  0.00  0.00    +0.102 C 
ATOM     27  C   UNL     1       2.299  -2.892  -2.533  0.00  0.00    +0.174 C 
BRANCH  21  28
ATOM     28  C   UNL     1       1.310   0.401  -0.846  0.00  0.00    +0.096 C 
BRANCH  28  30
ATOM     29  C   UNL     1       0.277   2.093   0.675  0.00  0.00    +0.004 C 
ATOM     30  C   UNL     1       0.375   0.601   0.349  0.00  0.00    +0.006 C 
ENDBRANCH  28  30
ENDBRANCH  21  28
ENDBRANCH  17  27
ENDBRANCH   1  19
TORSDOF 9
