REMARK  Name = ZINC24736747
REMARK  8 active torsions:
REMARK  status: ('A' for Active; 'I' for Inactive)
REMARK    1  A    between atoms: C_1  and  C_2
REMARK    2  A    between atoms: C_5  and  O_24
REMARK    3  A    between atoms: C_6  and  C_8
REMARK    4  A    between atoms: C_8  and  O_10
REMARK    5  A    between atoms: O_10  and  C_11
REMARK    6  A    between atoms: C_11  and  C_12
REMARK    7  A    between atoms: N_14  and  C_15
REMARK    8  A    between atoms: N_14  and  C_18
REMARK                            x       y       z     vdW  Elec       q    Type
REMARK                         _______ _______ _______ _____ _____    ______ ____
ROOT
ATOM      1  C   UNL     1      -0.071  -0.004  -4.854  0.00  0.00    +0.328 C 
ENDROOT
BRANCH   1   2
ATOM      2  C   UNL     1      -0.078  -0.847  -6.104  0.00  0.00    +0.258 C 
ATOM      3  O   UNL     1       0.029  -2.052  -6.023  0.00  0.00    -0.272 OA
ATOM      4  N   UNL     1      -0.202  -0.261  -7.311  0.00  0.00    -0.270 N 
BRANCH   4   5
ATOM      5  C   UNL     1      -0.330  -1.044  -8.455  0.00  0.00    +0.010 C 
ATOM      6  C   UNL     1      -0.360  -0.441  -9.611  0.00  0.00    -0.008 C 
ATOM      7  C   UNL     1      -0.503  -1.152 -10.924  0.00  0.00    +0.029 C 
ATOM      8  C   UNL     1      -0.183  -2.639 -10.756  0.00  0.00    +0.004 C 
ATOM      9  C   UNL     1      -0.978  -3.175  -9.558  0.00  0.00    +0.006 C 
ATOM     10  C   UNL     1      -0.420  -2.532  -8.284  0.00  0.00    +0.051 C 
ENDBRANCH   4   5
BRANCH   4  11
ATOM     11  C   UNL     1      -0.202   1.200  -7.420  0.00  0.00    +0.081 C 
ATOM     12  C   UNL     1       0.769   1.834  -8.418  0.00  0.00    +0.025 C 
ATOM     13  C   UNL     1       1.034   1.946  -6.914  0.00  0.00    +0.025 C 
ENDBRANCH   4  11
ENDBRANCH   1   2
BRANCH   1  14
ATOM     14  O   UNL     1      -0.047  -0.868  -3.688  0.00  0.00    -0.452 OA
BRANCH  14  15
ATOM     15  C   UNL     1      -0.039  -0.267  -2.482  0.00  0.00    +0.343 C 
ATOM     16  O   UNL     1      -0.050   0.946  -2.407  0.00  0.00    -0.245 OA
BRANCH  15  22
ATOM     17  C   UNL     1       0.032  -4.736  -0.271  0.00  0.00    +0.044 C 
ATOM     18  C   UNL     1       0.019  -3.231  -0.182  0.00  0.00    -0.049 A 
ATOM     19  C   UNL     1       0.022  -2.614   1.058  0.00  0.00    +0.007 A 
ATOM     20  C   UNL     1       0.010  -1.237   1.153  0.00  0.00    +0.046 A 
ATOM     21  C   UNL     1      -0.006  -0.461   0.004  0.00  0.00    +0.131 A 
ATOM     22  C   UNL     1      -0.015  -1.081  -1.253  0.00  0.00    +0.101 A 
ATOM     23  C   UNL     1       0.003  -2.476  -1.334  0.00  0.00    +0.022 A 
BRANCH  21  24
ATOM     24  O   UNL     1      -0.018   0.893   0.096  0.00  0.00    -0.506 OA
ATOM     25  H   UNL     1      -0.031   1.506  -0.817  0.00  0.00    +0.292 HD
ENDBRANCH  21  24
ENDBRANCH  15  22
ENDBRANCH  14  15
ENDBRANCH   1  14
TORSDOF 7
