REMARK  Name = ZINC09170204
REMARK  8 active torsions:
REMARK  status: ('A' for Active; 'I' for Inactive)
REMARK    1  A    between atoms: C_1  and  C_2
REMARK    2  A    between atoms: N_4  and  C_5
REMARK    3  A    between atoms: C_8  and  S_12
REMARK    4  A    between atoms: S_12  and  N_15
REMARK    5  A    between atoms: N_15  and  C_16
REMARK    6  A    between atoms: N_22  and  C_30
REMARK    7  A    between atoms: C_25  and  C_28
REMARK    8  A    between atoms: C_25  and  C_29
REMARK                            x       y       z     vdW  Elec       q    Type
REMARK                         _______ _______ _______ _____ _____    ______ ____
ROOT
ATOM      1  N   UNL     1      -3.260   6.997  -2.095  0.00  0.00    -0.216 N 
ATOM      2  H   UNL     1      -3.543   7.418  -1.268  0.00  0.00    +0.174 HD
ENDROOT
BRANCH   1   3
ATOM      3  C   UNL     1      -2.733   5.701  -2.077  0.00  0.00    +0.050 A 
ATOM      4  C   UNL     1      -1.590   5.407  -2.808  0.00  0.00    +0.028 A 
ATOM      5  C   UNL     1      -1.064   4.128  -2.791  0.00  0.00    +0.049 A 
ATOM      6  C   UNL     1      -1.679   3.136  -2.045  0.00  0.00    +0.142 A 
ATOM      7  C   UNL     1      -2.829   3.428  -1.314  0.00  0.00    +0.080 A 
ATOM      8  C   UNL     1      -3.354   4.710  -1.329  0.00  0.00    +0.051 A 
ATOM      9  N   UNL     1      -3.448   2.413  -0.573  0.00  0.00    -0.271 N 
ATOM     10  C   UNL     1      -2.699   1.637   0.242  0.00  0.00    +0.229 C 
ATOM     11  O   UNL     1      -3.208   0.713   0.841  0.00  0.00    -0.275 OA
ATOM     12  C   UNL     1      -1.233   1.925   0.402  0.00  0.00    +0.076 C 
ATOM     13  C   UNL     1      -0.467   1.481  -0.842  0.00  0.00    +0.244 C 
ATOM     14  O   UNL     1      -1.166   1.877  -2.020  0.00  0.00    -0.489 OA
ATOM     15  C   UNL     1      -0.703   1.169   1.621  0.00  0.00    +0.024 C 
ATOM     16  C   UNL     1      -1.032   3.427   0.613  0.00  0.00    +0.024 C 
ATOM     17  C   UNL     1      -4.892   2.193  -0.682  0.00  0.00    +0.138 C 
ENDBRANCH   1   3
BRANCH   1  18
ATOM     18  S   UNL     1      -3.402   7.814  -3.529  0.00  0.00    +0.072 S 
ATOM     19  O   UNL     1      -3.987   9.072  -3.223  0.00  0.00    -0.150 OA
ATOM     20  O   UNL     1      -2.150   7.696  -4.189  0.00  0.00    -0.150 OA
BRANCH  18  24
ATOM     21  C   UNL     1      -6.413   5.564  -6.058  0.00  0.00    +0.069 A 
ATOM     22  C   UNL     1      -5.064   5.247  -6.135  0.00  0.00    +0.028 A 
ATOM     23  C   UNL     1      -4.148   5.939  -5.366  0.00  0.00    +0.031 A 
ATOM     24  C   UNL     1      -4.574   6.939  -4.512  0.00  0.00    +0.111 A 
ATOM     25  C   UNL     1      -5.917   7.260  -4.433  0.00  0.00    +0.069 A 
ATOM     26  C   UNL     1      -6.839   6.575  -5.203  0.00  0.00    +0.146 A 
ATOM     27  F   UNL     1      -8.151   6.887  -5.125  0.00  0.00    -0.203 F 
BRANCH  21  31
ATOM     28  C   UNL     1      -8.006   2.922  -8.215  0.00  0.00    +0.109 C 
ATOM     29  C   UNL     1      -7.065   3.621  -7.268  0.00  0.00    +0.214 C 
ATOM     30  O   UNL     1      -6.057   3.062  -6.892  0.00  0.00    -0.276 OA
ATOM     31  N   UNL     1      -7.344   4.868  -6.840  0.00  0.00    -0.283 N 
ATOM     32  H   UNL     1      -8.189   5.284  -7.074  0.00  0.00    +0.155 HD
ENDBRANCH  21  31
ENDBRANCH  18  24
ENDBRANCH   1  18
TORSDOF 4
