REMARK  Name = ZINC66121258
REMARK  6 active torsions:
REMARK  status: ('A' for Active; 'I' for Inactive)
REMARK    1  A    between atoms: N_7  and  C_10
REMARK    2  A    between atoms: C_10  and  C_11
REMARK    3  A    between atoms: C_11  and  N_12
REMARK    4  A    between atoms: C_19  and  C_22
REMARK    5  A    between atoms: C_22  and  C_23
REMARK    6  A    between atoms: C_23  and  C_24
REMARK                            x       y       z     vdW  Elec       q    Type
REMARK                         _______ _______ _______ _____ _____    ______ ____
ROOT
ATOM      1  N   UNL     1      -4.323  -3.467  -1.249  0.00  0.00    -0.301 N 
ATOM      2  C   UNL     1      -5.407  -3.220  -2.010  0.00  0.00    +0.302 C 
ATOM      3  O   UNL     1      -5.448  -2.223  -2.705  0.00  0.00    -0.253 OA
ATOM      4  N   UNL     1      -6.447  -4.078  -2.002  0.00  0.00    -0.285 N 
ATOM      5  C   UNL     1      -6.464  -5.224  -1.083  0.00  0.00    +0.109 C 
ATOM      6  C   UNL     1      -6.702  -6.502  -1.892  0.00  0.00    +0.019 C 
ATOM      7  C   UNL     1      -7.977  -6.344  -2.724  0.00  0.00    +0.006 C 
ATOM      8  C   UNL     1      -7.810  -5.178  -3.700  0.00  0.00    +0.007 C 
ATOM      9  C   UNL     1      -7.587  -3.881  -2.907  0.00  0.00    +0.112 C 
ATOM     10  H   UNL     1      -4.320  -4.222  -0.640  0.00  0.00    +0.150 HD
ENDROOT
BRANCH   1  11
ATOM     11  C   UNL     1      -3.149  -2.596  -1.341  0.00  0.00    +0.087 C 
BRANCH  11  12
ATOM     12  C   UNL     1      -2.068  -3.094  -0.380  0.00  0.00    -0.059 C 
BRANCH  12  19
ATOM     13  C   UNL     1      -0.012   1.385   0.004  0.00  0.00    +0.009 A 
ATOM     14  C   UNL     1       1.151   2.077  -0.004  0.00  0.00    +0.045 A 
ATOM     15  S   UNL     1       2.362   0.763  -0.023  0.00  0.00    -0.101 S 
ATOM     16  C   UNL     1       1.233  -0.600  -0.017  0.00  0.00    -0.011 A 
ATOM     17  C   UNL     1       0.006  -0.007  -0.003  0.00  0.00    -0.054 A 
ATOM     18  C   UNL     1      -1.247  -0.877   0.001  0.00  0.00    -0.042 C 
ATOM     19  N   UNL     1      -0.891  -2.220  -0.473  0.00  0.00    +0.384 N 
ATOM     20  C   UNL     1       0.197  -2.787   0.336  0.00  0.00    -0.073 C 
ATOM     21  C   UNL     1       1.509  -2.068  -0.021  0.00  0.00    +0.024 C 
ATOM     22  H   UNL     1      -0.594  -2.165  -1.436  0.00  0.00    -0.081 HD
ENDBRANCH  12  19
ENDBRANCH  11  12
ENDBRANCH   1  11
BRANCH   8  23
ATOM     23  C   UNL     1      -9.072  -5.042  -4.554  0.00  0.00    +0.014 C 
BRANCH  23  24
ATOM     24  C   UNL     1      -8.858  -3.958  -5.613  0.00  0.00    +0.096 C 
BRANCH  24  25
ATOM     25  C   UNL     1     -10.101  -3.825  -6.454  0.00  0.00    +0.210 C 
ATOM     26  O   UNL     1     -11.064  -4.527  -6.229  0.00  0.00    -0.276 OA
ATOM     27  N   UNL     1     -10.143  -2.925  -7.457  0.00  0.00    -0.329 N 
ATOM     28  H   UNL     1      -9.373  -2.363  -7.637  0.00  0.00    +0.145 HD
ATOM     29  H   UNL     1     -10.943  -2.839  -7.998  0.00  0.00    +0.145 HD
ENDBRANCH  24  25
ENDBRANCH  23  24
ENDBRANCH   8  23
TORSDOF 6
