REMARK  Name = ZINC22064602
REMARK  9 active torsions:
REMARK  status: ('A' for Active; 'I' for Inactive)
REMARK    1  A    between atoms: C_3  and  N_25
REMARK    2  A    between atoms: C_6  and  C_7
REMARK    3  A    between atoms: C_7  and  S_8
REMARK    4  A    between atoms: S_8  and  C_9
REMARK    5  A    between atoms: C_11  and  O_24
REMARK    6  A    between atoms: C_13  and  O_23
REMARK    7  A    between atoms: C_15  and  O_22
REMARK    8  A    between atoms: C_17  and  C_20
REMARK    9  A    between atoms: C_20  and  O_21
REMARK                            x       y       z     vdW  Elec       q    Type
REMARK                         _______ _______ _______ _____ _____    ______ ____
ROOT
ATOM      1  C   UNL     1      -0.666   3.111   1.312  0.00  0.00    +0.207 C 
ATOM      2  C   UNL     1      -0.720   1.582   1.273  0.00  0.00    +0.184 C 
ATOM      3  C   UNL     1      -0.013   1.086   0.008  0.00  0.00    +0.177 C 
ATOM      4  C   UNL     1       1.424   1.618  -0.003  0.00  0.00    +0.176 C 
ATOM      5  C   UNL     1       1.394   3.146   0.085  0.00  0.00    +0.176 C 
ATOM      6  O   UNL     1       0.696   3.540   1.268  0.00  0.00    -0.355 OA
ENDROOT
BRANCH   4   7
ATOM      7  O   UNL     1       2.137   1.089   1.116  0.00  0.00    -0.386 OA
ATOM      8  H   UNL     1       3.191   1.361   1.276  0.00  0.00    +0.210 HD
ENDBRANCH   4   7
BRANCH   3   9
ATOM      9  O   UNL     1      -0.707   1.561  -1.147  0.00  0.00    -0.386 OA
ATOM     10  H   UNL     1      -0.343   1.303  -2.152  0.00  0.00    +0.210 HD
ENDBRANCH   3   9
BRANCH   2  11
ATOM     11  O   UNL     1      -2.082   1.152   1.258  0.00  0.00    -0.386 OA
ATOM     12  H   UNL     1      -2.320   0.078   1.231  0.00  0.00    +0.210 HD
ENDBRANCH   2  11
BRANCH   1  13
ATOM     13  S   UNL     1      -1.439   3.705   2.842  0.00  0.00    -0.122 S 
BRANCH  13  14
ATOM     14  C   UNL     1      -1.569   5.498   2.600  0.00  0.00    +0.106 C 
BRANCH  14  20
ATOM     15  C   UNL     1      -3.576   6.271   3.881  0.00  0.00    +0.006 A 
ATOM     16  C   UNL     1      -4.158   6.841   4.997  0.00  0.00    +0.033 A 
ATOM     17  C   UNL     1      -3.367   7.273   6.045  0.00  0.00    +0.126 A 
ATOM     18  C   UNL     1      -1.993   7.130   5.978  0.00  0.00    +0.033 A 
ATOM     19  C   UNL     1      -1.412   6.556   4.863  0.00  0.00    +0.006 A 
ATOM     20  C   UNL     1      -2.203   6.124   3.816  0.00  0.00    -0.037 A 
BRANCH  17  21
ATOM     21  N   UNL     1      -3.990   7.888   7.239  0.00  0.00    +0.056 N 
ATOM     22  O   UNL     1      -3.292   8.268   8.162  0.00  0.00    -0.126 OA
ATOM     23  O   UNL     1      -5.199   8.014   7.298  0.00  0.00    -0.126 OA
ENDBRANCH  17  21
ENDBRANCH  14  20
ENDBRANCH  13  14
ENDBRANCH   1  13
BRANCH   5  24
ATOM     24  C   UNL     1       2.826   3.682   0.135  0.00  0.00    +0.190 C 
BRANCH  24  25
ATOM     25  O   UNL     1       2.802   5.110   0.100  0.00  0.00    -0.392 OA
ATOM     26  H   UNL     1       3.744   5.677   0.128  0.00  0.00    +0.210 HD
ENDBRANCH  24  25
ENDBRANCH   5  24
TORSDOF 9
