REMARK  Name = ZINC67344636
REMARK  9 active torsions:
REMARK  status: ('A' for Active; 'I' for Inactive)
REMARK    1  A    between atoms: C_1  and  C_2
REMARK    2  A    between atoms: C_2  and  O_3
REMARK    3  A    between atoms: O_3  and  C_4
REMARK    4  A    between atoms: C_9  and  N_10
REMARK    5  A    between atoms: N_13  and  C_14
REMARK    6  A    between atoms: C_14  and  C_15
REMARK    7  A    between atoms: C_15  and  C_17
REMARK    8  A    between atoms: C_15  and  O_28
REMARK    9  A    between atoms: C_17  and  N_18
REMARK                            x       y       z     vdW  Elec       q    Type
REMARK                         _______ _______ _______ _____ _____    ______ ____
ROOT
ATOM      1  N   UNL     1      -3.902  -1.565   0.031  0.00  0.00    -0.266 N 
ATOM      2  C   UNL     1      -5.138  -2.095  -0.062  0.00  0.00    +0.304 C 
ATOM      3  O   UNL     1      -5.282  -3.303  -0.067  0.00  0.00    -0.253 OA
ATOM      4  N   UNL     1      -6.213  -1.288  -0.149  0.00  0.00    -0.297 N 
ATOM      5  H   UNL     1      -3.792  -0.605   0.118  0.00  0.00    +0.156 HD
ATOM      6  H   UNL     1      -6.098  -0.325  -0.144  0.00  0.00    +0.150 HD
ENDROOT
BRANCH   1  12
ATOM      7  C   UNL     1      -1.583  -1.982   0.585  0.00  0.00    +0.142 A 
ATOM      8  C   UNL     1      -0.475  -2.812   0.560  0.00  0.00    +0.050 A 
ATOM      9  C   UNL     1      -0.552  -4.052  -0.049  0.00  0.00    +0.042 A 
ATOM     10  C   UNL     1      -1.737  -4.466  -0.634  0.00  0.00    +0.125 A 
ATOM     11  C   UNL     1      -2.848  -3.641  -0.612  0.00  0.00    +0.065 A 
ATOM     12  C   UNL     1      -2.777  -2.400   0.002  0.00  0.00    +0.079 A 
ATOM     13  F   UNL     1      -1.808  -5.678  -1.227  0.00  0.00    -0.205 F 
BRANCH   7  14
ATOM     14  O   UNL     1      -1.507  -0.763   1.184  0.00  0.00    -0.490 OA
BRANCH  14  16
ATOM     15  C   UNL     1      -0.358   0.994   2.382  0.00  0.00    +0.048 C 
ATOM     16  C   UNL     1      -0.251  -0.401   1.761  0.00  0.00    +0.226 C 
ENDBRANCH  14  16
ENDBRANCH   7  14
ENDBRANCH   1  12
BRANCH   4  17
ATOM     17  C   UNL     1      -7.556  -1.865  -0.250  0.00  0.00    +0.135 C 
BRANCH  17  18
ATOM     18  C   UNL     1      -8.589  -0.740  -0.335  0.00  0.00    +0.115 C 
BRANCH  18  19
ATOM     19  O   UNL     1      -8.507   0.073   0.838  0.00  0.00    -0.392 OA
ATOM     20  H   UNL     1      -8.674  -0.406   1.661  0.00  0.00    +0.210 HD
ENDBRANCH  18  19
BRANCH  18  21
ATOM     21  C   UNL     1      -9.992  -1.342  -0.440  0.00  0.00    -0.045 C 
BRANCH  21  22
ATOM     22  N   UNL     1     -10.973  -0.267  -0.642  0.00  0.00    +0.384 N 
ATOM     23  C   UNL     1     -12.331  -0.833  -0.635  0.00  0.00    -0.074 C 
ATOM     24  C   UNL     1     -13.336   0.315  -0.537  0.00  0.00    +0.017 C 
ATOM     25  C   UNL     1     -13.031   1.352  -1.588  0.00  0.00    -0.048 A 
ATOM     26  C   UNL     1     -14.004   2.288  -1.901  0.00  0.00    +0.004 A 
ATOM     27  C   UNL     1     -13.760   3.255  -2.856  0.00  0.00    +0.000 A 
ATOM     28  C   UNL     1     -12.538   3.289  -3.503  0.00  0.00    +0.000 A 
ATOM     29  C   UNL     1     -11.569   2.356  -3.193  0.00  0.00    +0.002 A 
ATOM     30  C   UNL     1     -11.814   1.383  -2.235  0.00  0.00    -0.061 A 
ATOM     31  C   UNL     1     -10.732   0.380  -1.935  0.00  0.00    -0.043 C 
ATOM     32  H   UNL     1     -10.885   0.413   0.098  0.00  0.00    -0.081 HD
ENDBRANCH  21  22
ENDBRANCH  18  21
ENDBRANCH  17  18
ENDBRANCH   4  17
TORSDOF 8
