REMARK  Name = ZINC58313349
REMARK  12 active torsions:
REMARK  status: ('A' for Active; 'I' for Inactive)
REMARK    1  A    between atoms: C_1  and  C_2
REMARK    2  A    between atoms: C_4  and  S_24
REMARK    3  A    between atoms: C_7  and  N_8
REMARK    4  A    between atoms: N_11  and  C_12
REMARK    5  A    between atoms: C_12  and  C_14
REMARK    6  A    between atoms: C_12  and  C_20
REMARK    7  A    between atoms: C_14  and  N_15
REMARK    8  A    between atoms: C_20  and  C_21
REMARK    9  A    between atoms: C_20  and  C_22
REMARK   10  A    between atoms: C_20  and  C_23
REMARK   11  A    between atoms: S_24  and  C_25
REMARK   12  A    between atoms: C_27  and  C_30
REMARK                            x       y       z     vdW  Elec       q    Type
REMARK                         _______ _______ _______ _____ _____    ______ ____
ROOT
ATOM      1  N   UNL     1       0.027  -0.009   2.418  0.00  0.00    -0.269 N 
ATOM      2  C   UNL     1       0.150  -0.687   3.576  0.00  0.00    +0.304 C 
ATOM      3  O   UNL     1       0.350  -1.887   3.560  0.00  0.00    -0.252 OA
ATOM      4  N   UNL     1       0.051  -0.037   4.752  0.00  0.00    -0.294 N 
ATOM      5  H   UNL     1      -0.075   0.956   2.430  0.00  0.00    +0.156 HD
ATOM      6  H   UNL     1      -0.108   0.920   4.765  0.00  0.00    +0.151 HD
ENDROOT
BRANCH   1  13
ATOM      7  C   UNL     1      -1.295   1.170   0.193  0.00  0.00    +0.046 C 
ATOM      8  C   UNL     1      -0.588  -0.157   0.086  0.00  0.00    -0.028 A 
ATOM      9  C   UNL     1      -0.565  -0.832  -1.118  0.00  0.00    +0.020 A 
ATOM     10  C   UNL     1       0.087  -2.054  -1.216  0.00  0.00    +0.015 A 
ATOM     11  C   UNL     1       0.717  -2.597  -0.103  0.00  0.00    +0.017 A 
ATOM     12  C   UNL     1       0.693  -1.922   1.101  0.00  0.00    +0.025 A 
ATOM     13  C   UNL     1       0.046  -0.697   1.197  0.00  0.00    +0.038 A 
BRANCH  10  14
ATOM     14  S   UNL     1       0.116  -2.916  -2.753  0.00  0.00    -0.063 S 
BRANCH  14  15
ATOM     15  C   UNL     1       1.485  -2.213  -3.611  0.00  0.00    +0.139 A 
ATOM     16  N   UNL     1       1.990  -2.565  -4.774  0.00  0.00    -0.238 NA
ATOM     17  C   UNL     1       3.030  -1.931  -5.287  0.00  0.00    +0.047 A 
ATOM     18  C   UNL     1       3.546  -0.909  -4.562  0.00  0.00    +0.070 A 
ATOM     19  S   UNL     1       2.460  -0.923  -3.145  0.00  0.00    -0.069 S 
ATOM     20  C   UNL     1       3.615  -2.327  -6.617  0.00  0.00    +0.066 C 
ENDBRANCH  14  15
ENDBRANCH  10  14
ENDBRANCH   1  13
BRANCH   4  21
ATOM     21  C   UNL     1       0.185  -0.774   6.011  0.00  0.00    +0.099 C 
BRANCH  21  22
ATOM     22  C   UNL     1       1.666  -0.901   6.373  0.00  0.00    -0.018 C 
ATOM     23  C   UNL     1       2.274   0.494   6.532  0.00  0.00    +0.012 C 
ATOM     24  C   UNL     1       1.806  -1.672   7.687  0.00  0.00    +0.012 C 
ATOM     25  C   UNL     1       2.400  -1.653   5.261  0.00  0.00    +0.012 C 
ENDBRANCH  21  22
BRANCH  21  26
ATOM     26  C   UNL     1      -0.549  -0.022   7.123  0.00  0.00    +0.145 C 
BRANCH  26  27
ATOM     27  N   UNL     1      -1.985  -0.005   6.835  0.00  0.00    -0.337 N 
ATOM     28  C   UNL     1      -2.657   0.945   6.114  0.00  0.00    +0.104 A 
ATOM     29  C   UNL     1      -3.952   0.575   6.094  0.00  0.00    +0.101 A 
ATOM     30  N   UNL     1      -4.067  -0.570   6.784  0.00  0.00    -0.352 N 
ATOM     31  C   UNL     1      -2.892  -0.925   7.226  0.00  0.00    +0.173 A 
ATOM     32  H   UNL     1      -4.893  -1.058   6.928  0.00  0.00    +0.166 HD
ENDBRANCH  26  27
ENDBRANCH  21  26
ENDBRANCH   4  21
TORSDOF 7
