REMARK  Name = ZINC55541269
REMARK  11 active torsions:
REMARK  status: ('A' for Active; 'I' for Inactive)
REMARK    1  A    between atoms: C_1  and  C_2
REMARK    2  A    between atoms: C_3  and  C_15
REMARK    3  A    between atoms: C_4  and  C_14
REMARK    4  A    between atoms: C_8  and  C_11
REMARK    5  A    between atoms: C_15  and  C_16
REMARK    6  A    between atoms: C_16  and  C_17
REMARK    7  A    between atoms: N_19  and  C_20
REMARK    8  A    between atoms: C_20  and  C_21
REMARK    9  A    between atoms: C_21  and  C_23
REMARK   10  A    between atoms: C_21  and  C_24
REMARK   11  A    between atoms: C_24  and  N_25
REMARK                            x       y       z     vdW  Elec       q    Type
REMARK                         _______ _______ _______ _____ _____    ______ ____
ROOT
ATOM      1  C   UNL     1      -0.018   1.503   0.010  0.00  0.00    +0.066 C 
ATOM      2  C   UNL     1       0.002  -0.004   0.002  0.00  0.00    +0.045 A 
ATOM      3  C   UNL     1      -1.201  -0.719   0.004  0.00  0.00    -0.005 A 
ATOM      4  C   UNL     1      -1.169  -2.076  -0.004  0.00  0.00    +0.047 A 
ATOM      5  N   UNL     1       0.037  -2.712  -0.013  0.00  0.00    -0.218 N 
ATOM      6  C   UNL     1       1.190  -1.978  -0.014  0.00  0.00    +0.168 A 
ATOM      7  N   UNL     1       1.150  -0.645  -0.012  0.00  0.00    -0.232 NA
ATOM      8  C   UNL     1       2.255  -2.898  -0.025  0.00  0.00    +0.100 A 
ATOM      9  C   UNL     1       1.686  -4.184  -0.029  0.00  0.00    +0.150 A 
ATOM     10  N   UNL     1       0.385  -4.067  -0.022  0.00  0.00    -0.172 NA
ATOM     11  C   UNL     1      -2.450  -2.870  -0.001  0.00  0.00    +0.066 C 
ENDROOT
BRANCH   8  12
ATOM     12  C   UNL     1       3.686  -2.577  -0.030  0.00  0.00    +0.247 C 
ATOM     13  O   UNL     1       4.048  -1.415  -0.025  0.00  0.00    -0.270 OA
ATOM     14  N   UNL     1       4.599  -3.568  -0.039  0.00  0.00    -0.325 N 
ATOM     15  H   UNL     1       4.310  -4.494  -0.043  0.00  0.00    +0.145 HD
ATOM     16  H   UNL     1       5.545  -3.355  -0.043  0.00  0.00    +0.145 HD
ENDBRANCH   8  12
BRANCH   3  17
ATOM     17  C   UNL     1      -2.520   0.010   0.015  0.00  0.00    +0.048 C 
BRANCH  17  18
ATOM     18  C   UNL     1      -2.898   0.359   1.456  0.00  0.00    +0.100 C 
BRANCH  18  19
ATOM     19  C   UNL     1      -4.217   1.089   1.466  0.00  0.00    +0.213 C 
ATOM     20  O   UNL     1      -4.797   1.308   0.424  0.00  0.00    -0.276 OA
ATOM     21  N   UNL     1      -4.751   1.497   2.634  0.00  0.00    -0.315 N 
ATOM     22  H   UNL     1      -4.287   1.321   3.468  0.00  0.00    +0.149 HD
BRANCH  21  23
ATOM     23  C   UNL     1      -6.033   2.206   2.645  0.00  0.00    +0.105 C 
BRANCH  23  24
ATOM     24  C   UNL     1      -6.411   2.555   4.086  0.00  0.00    -0.014 C 
ATOM     25  C   UNL     1      -6.655   1.267   4.875  0.00  0.00    +0.007 C 
BRANCH  24  26
ATOM     26  C   UNL     1      -7.685   3.403   4.088  0.00  0.00    -0.074 C 
BRANCH  26  27
ATOM     27  N   UNL     1      -7.981   3.837   5.459  0.00  0.00    +0.380 N 
ATOM     28  C   UNL     1      -6.960   4.813   5.919  0.00  0.00    -0.079 C 
ATOM     29  C   UNL     1      -7.682   5.569   7.063  0.00  0.00    -0.020 C 
ATOM     30  C   UNL     1      -9.133   5.680   6.543  0.00  0.00    -0.020 C 
ATOM     31  C   UNL     1      -9.273   4.557   5.498  0.00  0.00    -0.079 C 
ATOM     32  H   UNL     1      -8.008   3.042   6.079  0.00  0.00    -0.082 HD
ENDBRANCH  26  27
ENDBRANCH  24  26
ENDBRANCH  23  24
ENDBRANCH  21  23
ENDBRANCH  18  19
ENDBRANCH  17  18
ENDBRANCH   3  17
TORSDOF 8
