REMARK  Name = ZINC67273493
REMARK  4 active torsions:
REMARK  status: ('A' for Active; 'I' for Inactive)
REMARK    1  A    between atoms: C_1  and  C_2
REMARK    2  A    between atoms: C_2  and  C_4
REMARK    3  A    between atoms: C_2  and  N_15
REMARK    4  A    between atoms: C_16  and  C_18
REMARK                            x       y       z     vdW  Elec       q    Type
REMARK                         _______ _______ _______ _____ _____    ______ ____
ROOT
ATOM      1  N   UNL     1       0.235  -0.849  -1.170  0.00  0.00    -0.304 N 
ATOM      2  C   UNL     1      -0.708  -0.944  -2.129  0.00  0.00    +0.217 C 
ATOM      3  O   UNL     1      -1.746  -0.327  -2.022  0.00  0.00    -0.275 OA
ATOM      4  H   UNL     1       1.066  -1.342  -1.256  0.00  0.00    +0.149 HD
ENDROOT
BRANCH   2   5
ATOM      5  C   UNL     1      -0.470  -1.816  -3.335  0.00  0.00    +0.075 C 
ATOM      6  C   UNL     1       0.771  -1.325  -4.083  0.00  0.00    +0.015 C 
ATOM      7  C   UNL     1       1.018  -2.219  -5.301  0.00  0.00    +0.036 C 
ATOM      8  C   UNL     1      -0.198  -2.179  -6.220  0.00  0.00    +0.112 C 
ATOM      9  C   UNL     1      -1.448  -2.642  -5.481  0.00  0.00    +0.036 C 
ATOM     10  C   UNL     1      -1.686  -1.746  -4.262  0.00  0.00    +0.015 C 
ATOM     11  C   UNL     1      -0.396  -0.787  -6.773  0.00  0.00    +0.244 C 
ATOM     12  O   UNL     1      -0.616   0.227  -6.146  0.00  0.00    -0.273 OA
ATOM     13  N   UNL     1      -0.277  -0.911  -8.111  0.00  0.00    -0.238 N 
ATOM     14  C   UNL     1      -0.034  -2.177  -8.469  0.00  0.00    +0.307 C 
ATOM     15  O   UNL     1       0.112  -2.538  -9.621  0.00  0.00    -0.252 OA
ATOM     16  N   UNL     1       0.031  -3.007  -7.411  0.00  0.00    -0.285 N 
ATOM     17  H   UNL     1      -0.359  -0.173  -8.736  0.00  0.00    +0.159 HD
ATOM     18  H   UNL     1       0.197  -3.963  -7.431  0.00  0.00    +0.151 HD
ENDBRANCH   2   5
BRANCH   1  20
ATOM     19  C   UNL     1       0.400   1.440  -0.325  0.00  0.00    +0.038 C 
ATOM     20  C   UNL     1       0.004  -0.001   0.002  0.00  0.00    +0.156 C 
BRANCH  20  21
ATOM     21  C   UNL     1       0.835  -0.501   1.155  0.00  0.00    +0.240 C 
ATOM     22  O   UNL     1       1.863  -1.109   0.943  0.00  0.00    -0.273 OA
ATOM     23  N   UNL     1       0.436  -0.273   2.422  0.00  0.00    -0.269 N 
ATOM     24  C   UNL     1      -0.836   0.346   2.804  0.00  0.00    +0.118 C 
ATOM     25  C   UNL     1      -0.821   0.384   4.341  0.00  0.00    +0.056 C 
ATOM     26  C   UNL     1       0.503  -0.237   4.724  0.00  0.00    -0.024 A 
ATOM     27  C   UNL     1       1.173  -0.598   3.566  0.00  0.00    +0.040 A 
ATOM     28  C   UNL     1       2.427  -1.202   3.668  0.00  0.00    +0.024 A 
ATOM     29  C   UNL     1       2.986  -1.438   4.906  0.00  0.00    +0.002 A 
ATOM     30  C   UNL     1       2.308  -1.078   6.056  0.00  0.00    +0.000 A 
ATOM     31  C   UNL     1       1.069  -0.472   5.962  0.00  0.00    +0.005 A 
ENDBRANCH  20  21
ENDBRANCH   1  20
TORSDOF 3
