REMARK  Name = ZINC17010261
REMARK  7 active torsions:
REMARK  status: ('A' for Active; 'I' for Inactive)
REMARK    1  A    between atoms: C_1  and  C_2
REMARK    2  A    between atoms: C_4  and  C_30
REMARK    3  A    between atoms: C_5  and  S_9
REMARK    4  A    between atoms: C_7  and  C_8
REMARK    5  A    between atoms: S_9  and  N_12
REMARK    6  A    between atoms: N_12  and  C_13
REMARK    7  A    between atoms: C_23  and  C_25
REMARK                            x       y       z     vdW  Elec       q    Type
REMARK                         _______ _______ _______ _____ _____    ______ ____
ROOT
ATOM      1  C   UNL     1      -0.308   4.396   0.579  0.00  0.00    +0.050 A 
ATOM      2  C   UNL     1      -1.273   3.482   0.173  0.00  0.00    +0.025 A 
ATOM      3  C   UNL     1      -0.918   2.178  -0.103  0.00  0.00    +0.007 A 
ATOM      4  C   UNL     1       0.402   1.771   0.011  0.00  0.00    -0.026 A 
ATOM      5  C   UNL     1       1.368   2.681   0.412  0.00  0.00    +0.042 A 
ATOM      6  C   UNL     1       1.014   3.994   0.697  0.00  0.00    +0.048 A 
ATOM      7  N   UNL     1       2.710   2.296   0.533  0.00  0.00    -0.265 N 
ATOM      8  C   UNL     1       3.042   0.865   0.523  0.00  0.00    +0.114 C 
ATOM      9  C   UNL     1       2.242   0.206  -0.609  0.00  0.00    +0.024 C 
ATOM     10  C   UNL     1       0.750   0.340  -0.302  0.00  0.00    +0.038 C 
ATOM     11  C   UNL     1       3.680   3.223   0.658  0.00  0.00    +0.286 C 
ATOM     12  O   UNL     1       3.410   4.405   0.548  0.00  0.00    -0.266 OA
ENDROOT
BRANCH  11  13
ATOM     13  C   UNL     1       5.061   2.808   0.925  0.00  0.00    +0.190 A 
ATOM     14  C   UNL     1       6.154   3.626   0.946  0.00  0.00    +0.054 A 
ATOM     15  C   UNL     1       7.260   2.813   1.241  0.00  0.00    +0.042 A 
ATOM     16  C   UNL     1       6.799   1.551   1.385  0.00  0.00    +0.196 A 
ATOM     17  O   UNL     1       5.472   1.553   1.199  0.00  0.00    -0.458 OA
ENDBRANCH  11  13
BRANCH   1  18
ATOM     18  N   UNL     1      -0.667   5.715   0.864  0.00  0.00    -0.216 N 
ATOM     19  H   UNL     1      -0.314   6.154   1.654  0.00  0.00    +0.174 HD
BRANCH  18  20
ATOM     20  S   UNL     1      -1.696   6.531  -0.145  0.00  0.00    +0.073 S 
ATOM     21  O   UNL     1      -1.805   7.852   0.367  0.00  0.00    -0.150 OA
ATOM     22  O   UNL     1      -1.262   6.261  -1.471  0.00  0.00    -0.150 OA
BRANCH  20  27
ATOM     23  C   UNL     1      -7.143   4.000   0.436  0.00  0.00    +0.044 C 
ATOM     24  C   UNL     1      -5.782   4.632   0.291  0.00  0.00    -0.047 A 
ATOM     25  C   UNL     1      -5.200   5.275   1.368  0.00  0.00    +0.009 A 
ATOM     26  C   UNL     1      -3.953   5.855   1.235  0.00  0.00    -0.024 A 
ATOM     27  C   UNL     1      -3.286   5.791   0.025  0.00  0.00    +0.112 A 
ATOM     28  C   UNL     1      -3.870   5.153  -1.053  0.00  0.00    +0.032 A 
ATOM     29  C   UNL     1      -5.116   4.569  -0.918  0.00  0.00    -0.046 A 
ATOM     30  C   UNL     1      -5.751   3.868  -2.092  0.00  0.00    +0.044 C 
ATOM     31  C   UNL     1      -3.318   6.556   2.408  0.00  0.00    +0.046 C 
ENDBRANCH  20  27
ENDBRANCH  18  20
ENDBRANCH   1  18
TORSDOF 4
