REMARK  Name = ZINC16692128
REMARK  8 active torsions:
REMARK  status: ('A' for Active; 'I' for Inactive)
REMARK    1  A    between atoms: C_1  and  C_2
REMARK    2  A    between atoms: C_2  and  O_3
REMARK    3  A    between atoms: O_3  and  C_4
REMARK    4  A    between atoms: C_7  and  C_11
REMARK    5  A    between atoms: N_13  and  C_14
REMARK    6  A    between atoms: C_14  and  N_16
REMARK    7  A    between atoms: N_16  and  C_17
REMARK    8  A    between atoms: C_18  and  C_25
REMARK                            x       y       z     vdW  Elec       q    Type
REMARK                         _______ _______ _______ _____ _____    ______ ____
ROOT
ATOM      1  C   UNL     1       1.834  -7.847  -3.088  0.00  0.00    +0.141 C 
ATOM      2  S   UNL     1       1.175  -8.905  -1.915  0.00  0.00    -0.018 S 
ENDROOT
BRANCH   1   5
ATOM      3  C   UNL     1       1.106  -6.011  -1.843  0.00  0.00    +0.250 C 
ATOM      4  O   UNL     1       0.638  -6.763  -1.010  0.00  0.00    -0.270 OA
ATOM      5  N   UNL     1       1.730  -6.513  -2.928  0.00  0.00    -0.264 N 
ATOM      6  H   UNL     1       2.103  -5.914  -3.593  0.00  0.00    +0.157 HD
BRANCH   3  10
ATOM      7  C   UNL     1       0.777  -1.808  -1.336  0.00  0.00    +0.134 A 
ATOM      8  C   UNL     1       0.240  -2.666  -0.383  0.00  0.00    +0.047 A 
ATOM      9  C   UNL     1       0.345  -4.029  -0.543  0.00  0.00    +0.017 A 
ATOM     10  C   UNL     1       0.992  -4.551  -1.667  0.00  0.00    +0.038 A 
ATOM     11  C   UNL     1       1.530  -3.686  -2.624  0.00  0.00    +0.032 A 
ATOM     12  C   UNL     1       1.416  -2.323  -2.458  0.00  0.00    +0.060 A 
ATOM     13 BR   UNL     1       2.136  -1.151  -3.756  0.00  0.00    -0.046 Br
BRANCH   7  14
ATOM     14  O   UNL     1       0.671  -0.465  -1.174  0.00  0.00    -0.491 OA
BRANCH  14  16
ATOM     15  C   UNL     1      -0.019   1.526   0.010  0.00  0.00    +0.048 C 
ATOM     16  C   UNL     1       0.002  -0.004   0.002  0.00  0.00    +0.226 C 
ENDBRANCH  14  16
ENDBRANCH   7  14
ENDBRANCH   3  10
ENDBRANCH   1   5
BRANCH   1  17
ATOM     17  N   UNL     1       2.458  -8.348  -4.173  0.00  0.00    -0.291 N 
ATOM     18  H   UNL     1       2.832  -7.749  -4.838  0.00  0.00    +0.154 HD
BRANCH  17  19
ATOM     19  C   UNL     1       2.566  -9.720  -4.338  0.00  0.00    +0.084 A 
ATOM     20  C   UNL     1       3.170 -10.407  -5.374  0.00  0.00    +0.068 A 
ATOM     21  C   UNL     1       3.148 -11.868  -5.312  0.00  0.00    -0.023 A 
ATOM     22  C   UNL     1       2.526 -12.361  -4.228  0.00  0.00    -0.004 A 
ATOM     23  S   UNL     1       1.999 -10.928  -3.322  0.00  0.00    -0.077 S 
ATOM     24  C   UNL     1       2.528 -13.866  -4.216  0.00  0.00    +0.043 C 
ATOM     25  C   UNL     1       2.869 -14.267  -5.668  0.00  0.00    +0.010 C 
ATOM     26  C   UNL     1       3.653 -13.034  -6.160  0.00  0.00    +0.037 C 
BRANCH  20  27
ATOM     27  C   UNL     1       3.807  -9.700  -6.490  0.00  0.00    +0.244 C 
ATOM     28  O   UNL     1       4.984  -9.398  -6.426  0.00  0.00    -0.270 OA
ATOM     29  N   UNL     1       3.088  -9.384  -7.585  0.00  0.00    -0.325 N 
ATOM     30  H   UNL     1       2.150  -9.625  -7.636  0.00  0.00    +0.145 HD
ATOM     31  H   UNL     1       3.509  -8.916  -8.323  0.00  0.00    +0.145 HD
ENDBRANCH  20  27
ENDBRANCH  17  19
ENDBRANCH   1  17
TORSDOF 7
