REMARK  Name = ZINC43286757
REMARK  8 active torsions:
REMARK  status: ('A' for Active; 'I' for Inactive)
REMARK    1  A    between atoms: C_1  and  C_2
REMARK    2  A    between atoms: C_2  and  C_4
REMARK    3  A    between atoms: C_2  and  N_21
REMARK    4  A    between atoms: C_4  and  C_6
REMARK    5  A    between atoms: C_4  and  N_12
REMARK    6  A    between atoms: N_12  and  C_13
REMARK    7  A    between atoms: N_12  and  C_14
REMARK    8  A    between atoms: C_14  and  C_15
REMARK                            x       y       z     vdW  Elec       q    Type
REMARK                         _______ _______ _______ _____ _____    ______ ____
ROOT
ATOM      1  C   UNL     1       0.742  -0.511   1.242  0.00  0.00    +0.079 C 
ENDROOT
BRANCH   1   2
ATOM      2  C   UNL     1       2.188  -0.092   1.170  0.00  0.00    +0.006 A 
ATOM      3  C   UNL     1       3.268  -0.816   0.786  0.00  0.00    +0.028 A 
ATOM      4  C   UNL     1       4.515  -0.218   0.800  0.00  0.00    +0.025 A 
ATOM      5  C   UNL     1       4.620   1.075   1.196  0.00  0.00    +0.060 A 
ATOM      6  S   UNL     1       2.921   1.488   1.560  0.00  0.00    -0.099 S 
ATOM      7 BR   UNL     1       6.050  -1.188   0.274  0.00  0.00    -0.050 Br
ENDBRANCH   1   2
BRANCH   1   9
ATOM      8  C   UNL     1      -0.019   1.526   0.010  0.00  0.00    -0.012 C 
ATOM      9  C   UNL     1       0.002  -0.004   0.002  0.00  0.00    -0.056 C 
BRANCH   9  10
ATOM     10  N   UNL     1       0.690  -0.478  -1.207  0.00  0.00    +0.381 N 
ATOM     11  H   UNL     1       1.636  -0.129  -1.214  0.00  0.00    -0.090 HD
ATOM     12  H   UNL     1       0.703  -1.487  -1.212  0.00  0.00    -0.090 HD
ATOM     13  H   UNL     1       0.202  -0.144  -2.024  0.00  0.00    -0.090 HD
ENDBRANCH   9  10
ENDBRANCH   1   9
BRANCH   1  14
ATOM     14  N   UNL     1       0.126   0.060   2.447  0.00  0.00    -0.295 NA
ATOM     15  C   UNL     1       0.869  -0.330   3.653  0.00  0.00    +0.105 C 
BRANCH  14  16
ATOM     16  C   UNL     1      -1.287  -0.328   2.550  0.00  0.00    +0.127 C 
BRANCH  16  17
ATOM     17  C   UNL     1      -1.946   0.464   3.650  0.00  0.00    +0.005 A 
ATOM     18  C   UNL     1      -2.580   1.659   3.577  0.00  0.00    +0.014 A 
ATOM     19  C   UNL     1      -3.117   2.205   4.729  0.00  0.00    +0.028 A 
ATOM     20  C   UNL     1      -2.991   1.527   5.897  0.00  0.00    +0.078 A 
ATOM     21  S   UNL     1      -2.100   0.068   5.384  0.00  0.00    -0.080 S 
ATOM     22 CL   UNL     1      -3.556   1.963   7.480  0.00  0.00    -0.076 Cl
ENDBRANCH  16  17
ENDBRANCH  14  16
ENDBRANCH   1  14
TORSDOF 6
