REMARK  Name = ZINC11730260
REMARK  4 active torsions:
REMARK  status: ('A' for Active; 'I' for Inactive)
REMARK    1  A    between atoms: C_1  and  O_2
REMARK    2  A    between atoms: O_2  and  C_3
REMARK    3  A    between atoms: C_8  and  O_9
REMARK    4  A    between atoms: O_9  and  C_10
REMARK                            x       y       z     vdW  Elec       q    Type
REMARK                         _______ _______ _______ _____ _____    ______ ____
ROOT
ATOM      1  C   UNL     1       4.903   3.507  -2.931  0.00  0.00    +0.165 A 
ATOM      2  C   UNL     1       5.285   4.505  -2.046  0.00  0.00    +0.050 A 
ATOM      3  C   UNL     1       4.531   4.745  -0.911  0.00  0.00    +0.017 A 
ATOM      4  C   UNL     1       3.399   3.986  -0.668  0.00  0.00    +0.047 A 
ATOM      5  C   UNL     1       2.994   2.984  -1.560  0.00  0.00    +0.176 A 
ATOM      6  C   UNL     1       3.763   2.748  -2.694  0.00  0.00    +0.204 A 
ATOM      7  O   UNL     1       1.873   2.247  -1.341  0.00  0.00    -0.476 OA
ATOM      8  C   UNL     1       1.450   1.992  -0.001  0.00  0.00    +0.144 C 
ATOM      9  C   UNL     1      -0.019   1.536   0.011  0.00  0.00    +0.053 C 
ATOM     10  C   UNL     1       0.002  -0.004   0.002  0.00  0.00    +0.004 C 
ATOM     11  C   UNL     1       1.487  -0.424  -0.023  0.00  0.00    +0.004 C 
ATOM     12  C   UNL     1       2.237   0.794   0.573  0.00  0.00    +0.053 C 
ATOM     13  C   UNL     1       1.646   3.203   0.830  0.00  0.00    +0.062 A 
ATOM     14  C   UNL     1       2.568   4.195   0.560  0.00  0.00    +0.091 A 
ATOM     15  N   UNL     1       2.619   5.221   1.409  0.00  0.00    -0.225 NA
ATOM     16  C   UNL     1       1.827   5.295   2.465  0.00  0.00    +0.156 A 
ATOM     17  S   UNL     1       0.877   3.785   2.308  0.00  0.00    -0.053 S 
ATOM     18  N   UNL     1       1.751   6.280   3.436  0.00  0.00    -0.337 N 
ATOM     19  H   UNL     1       2.337   7.052   3.390  0.00  0.00    +0.144 HD
ATOM     20  H   UNL     1       1.113   6.199   4.161  0.00  0.00    +0.144 HD
ENDROOT
BRANCH   1  22
ATOM     21  C   UNL     1       6.811   4.083  -4.229  0.00  0.00    +0.277 C 
ATOM     22  O   UNL     1       5.651   3.270  -4.042  0.00  0.00    -0.491 OA
ENDBRANCH   1  22
BRANCH   6  23
ATOM     23  O   UNL     1       3.399   1.774  -3.572  0.00  0.00    -0.488 OA
ATOM     24  C   UNL     1       2.528   2.155  -4.639  0.00  0.00    +0.277 C 
ENDBRANCH   6  23
TORSDOF 2
