REMARK  Name = ZINC07957172
REMARK  5 active torsions:
REMARK  status: ('A' for Active; 'I' for Inactive)
REMARK    1  A    between atoms: C_1  and  C_2
REMARK    2  A    between atoms: C_7  and  N_8
REMARK    3  A    between atoms: C_9  and  C_11
REMARK    4  A    between atoms: C_11  and  C_12
REMARK    5  A    between atoms: C_23  and  C_25
REMARK                            x       y       z     vdW  Elec       q    Type
REMARK                         _______ _______ _______ _____ _____    ______ ____
ROOT
ATOM      1  C   UNL     1      -0.959   1.003   4.542  0.00  0.00    +0.123 C 
ENDROOT
BRANCH   1   2
ATOM      2  C   UNL     1      -1.889   1.143   3.336  0.00  0.00    +0.120 C 
ATOM      3  C   UNL     1      -3.122   0.301   3.547  0.00  0.00    -0.019 A 
ATOM      4  C   UNL     1      -4.219   0.813   4.204  0.00  0.00    +0.006 A 
ATOM      5  C   UNL     1      -5.337   0.021   4.403  0.00  0.00    +0.000 A 
ATOM      6  C   UNL     1      -5.360  -1.285   3.948  0.00  0.00    +0.001 A 
ATOM      7  C   UNL     1      -4.270  -1.808   3.283  0.00  0.00    +0.008 A 
ATOM      8  C   UNL     1      -3.144  -1.013   3.071  0.00  0.00    -0.019 A 
ATOM      9  C   UNL     1      -1.981  -1.533   2.327  0.00  0.00    +0.023 C 
ATOM     10  C   UNL     1      -1.050  -0.680   1.892  0.00  0.00    +0.079 C 
ATOM     11  N   UNL     1      -1.197   0.681   2.127  0.00  0.00    -0.270 N 
ATOM     12  C   UNL     1      -0.710   1.576   1.244  0.00  0.00    +0.217 C 
ATOM     13  O   UNL     1      -0.844   2.764   1.448  0.00  0.00    -0.276 OA
ATOM     14  C   UNL     1      -0.000   1.100   0.003  0.00  0.00    +0.109 C 
ENDBRANCH   1   2
BRANCH   1  16
ATOM     15  N   UNL     1       1.175   1.979   5.327  0.00  0.00    -0.285 N 
ATOM     16  C   UNL     1       0.218   1.931   4.379  0.00  0.00    +0.219 C 
ATOM     17  O   UNL     1       0.304   2.634   3.395  0.00  0.00    -0.275 OA
ATOM     18  H   UNL     1       1.067   1.478   6.151  0.00  0.00    +0.155 HD
BRANCH  15  25
ATOM     19  C   UNL     1       2.579   2.926   7.613  0.00  0.00    +0.045 C 
ATOM     20  C   UNL     1       3.038   3.235   6.212  0.00  0.00    -0.029 A 
ATOM     21  C   UNL     1       4.174   3.994   6.008  0.00  0.00    +0.006 A 
ATOM     22  C   UNL     1       4.594   4.282   4.723  0.00  0.00    +0.020 A 
ATOM     23  C   UNL     1       3.881   3.806   3.636  0.00  0.00    +0.043 A 
ATOM     24  C   UNL     1       2.747   3.042   3.834  0.00  0.00    +0.043 A 
ATOM     25  C   UNL     1       2.323   2.752   5.124  0.00  0.00    +0.038 A 
ATOM     26 CL   UNL     1       4.412   4.170   2.024  0.00  0.00    -0.083 Cl
ENDBRANCH  15  25
ENDBRANCH   1  16
TORSDOF 3
