REMARK  Name = ZINC09440083
REMARK  10 active torsions:
REMARK  status: ('A' for Active; 'I' for Inactive)
REMARK    1  A    between atoms: C_1  and  C_2
REMARK    2  A    between atoms: C_7  and  O_8
REMARK    3  A    between atoms: O_8  and  C_9
REMARK    4  A    between atoms: C_9  and  C_10
REMARK    5  A    between atoms: N_12  and  N_13
REMARK    6  A    between atoms: C_14  and  C_16
REMARK    7  A    between atoms: C_16  and  N_17
REMARK    8  A    between atoms: C_18  and  C_20
REMARK    9  A    between atoms: C_20  and  N_21
REMARK   10  A    between atoms: C_22  and  C_24
REMARK                            x       y       z     vdW  Elec       q    Type
REMARK                         _______ _______ _______ _____ _____    ______ ____
ROOT
ATOM      1  C   UNL     1       4.797   0.282  -0.042  0.00  0.00    +0.201 C 
ENDROOT
BRANCH   1   3
ATOM      2  N   UNL     1       7.268   0.395  -0.065  0.00  0.00    -0.233 N 
ATOM      3  C   UNL     1       6.091   1.053  -0.051  0.00  0.00    +0.246 C 
ATOM      4  O   UNL     1       6.075   2.266  -0.044  0.00  0.00    -0.273 OA
ATOM      5  H   UNL     1       7.281  -0.575  -0.070  0.00  0.00    +0.173 HD
BRANCH   2   8
ATOM      6  C   UNL     1       9.648   0.454  -0.088  0.00  0.00    +0.267 C 
ATOM      7  O   UNL     1       9.664  -0.759  -0.094  0.00  0.00    -0.271 OA
ATOM      8  N   UNL     1       8.471   1.112  -0.073  0.00  0.00    -0.232 N 
ATOM      9  H   UNL     1       8.458   2.082  -0.068  0.00  0.00    +0.173 HD
BRANCH   6  10
ATOM     10  C   UNL     1      10.942   1.225  -0.096  0.00  0.00    +0.326 C 
BRANCH  10  11
ATOM     11  O   UNL     1      12.041   0.311  -0.111  0.00  0.00    -0.482 OA
BRANCH  11  18
ATOM     12  C   UNL     1      14.226  -1.478  -0.142  0.00  0.00    +0.047 C 
ATOM     13  C   UNL     1      14.402   0.019  -0.135  0.00  0.00    -0.009 A 
ATOM     14  C   UNL     1      15.670   0.567  -0.144  0.00  0.00    +0.007 A 
ATOM     15  C   UNL     1      15.831   1.940  -0.139  0.00  0.00    +0.000 A 
ATOM     16  C   UNL     1      14.724   2.768  -0.124  0.00  0.00    +0.004 A 
ATOM     17  C   UNL     1      13.454   2.226  -0.120  0.00  0.00    +0.046 A 
ATOM     18  C   UNL     1      13.289   0.848  -0.120  0.00  0.00    +0.124 A 
ENDBRANCH  11  18
ENDBRANCH  10  11
ENDBRANCH   6  10
ENDBRANCH   2   8
ENDBRANCH   1   3
BRANCH   1  19
ATOM     19  N   UNL     1       3.671   1.218  -0.026  0.00  0.00    -0.305 N 
ATOM     20  C   UNL     1       2.406   0.752  -0.017  0.00  0.00    +0.231 C 
ATOM     21  O   UNL     1       2.201  -0.443  -0.021  0.00  0.00    -0.274 OA
ATOM     22  H   UNL     1       3.835   2.174  -0.023  0.00  0.00    +0.149 HD
BRANCH  20  23
ATOM     23  C   UNL     1       1.248   1.716  -0.001  0.00  0.00    +0.200 C 
BRANCH  23  24
ATOM     24  N   UNL     1      -0.011   0.966   0.007  0.00  0.00    -0.303 N 
ATOM     25  C   UNL     1      -1.187   1.624   0.017  0.00  0.00    +0.246 C 
ATOM     26  O   UNL     1      -1.204   2.839   0.023  0.00  0.00    -0.270 OA
ATOM     27  H   UNL     1       0.002  -0.004   0.002  0.00  0.00    +0.150 HD
BRANCH  25  28
ATOM     28  C   UNL     1      -2.456   0.868   0.018  0.00  0.00    +0.055 A 
ATOM     29  C   UNL     1      -2.441  -0.529   0.011  0.00  0.00    +0.016 A 
ATOM     30  C   UNL     1      -3.628  -1.228   0.013  0.00  0.00    +0.021 A 
ATOM     31  C   UNL     1      -4.837  -0.550   0.023  0.00  0.00    +0.042 A 
ATOM     32  C   UNL     1      -4.860   0.834   0.031  0.00  0.00    +0.040 A 
ATOM     33  C   UNL     1      -3.678   1.547   0.034  0.00  0.00    +0.054 A 
ATOM     34 CL   UNL     1      -3.708   3.283   0.051  0.00  0.00    -0.083 Cl
ATOM     35 CL   UNL     1      -6.327  -1.440   0.025  0.00  0.00    -0.083 Cl
ENDBRANCH  25  28
ENDBRANCH  23  24
ENDBRANCH  20  23
ENDBRANCH   1  19
TORSDOF 9
