REMARK  Name = ZINC06865519
REMARK  9 active torsions:
REMARK  status: ('A' for Active; 'I' for Inactive)
REMARK    1  A    between atoms: C_1  and  C_2
REMARK    2  A    between atoms: C_5  and  N_9
REMARK    3  A    between atoms: C_7  and  C_8
REMARK    4  A    between atoms: C_10  and  C_12
REMARK    5  A    between atoms: C_12  and  S_13
REMARK    6  A    between atoms: S_13  and  C_14
REMARK    7  A    between atoms: C_20  and  C_29
REMARK    8  A    between atoms: C_22  and  C_28
REMARK    9  A    between atoms: C_25  and  C_27
REMARK                            x       y       z     vdW  Elec       q    Type
REMARK                         _______ _______ _______ _____ _____    ______ ____
ROOT
ATOM      1  C   UNL     1       3.386   3.864  -1.233  0.00  0.00    +0.197 A 
ATOM      2  N   UNL     1       4.200   4.812  -0.808  0.00  0.00    -0.122 NA
ATOM      3  N   UNL     1       3.528   5.731  -0.218  0.00  0.00    -0.129 NA
ATOM      4  C   UNL     1       2.248   5.411  -0.229  0.00  0.00    +0.162 A 
ATOM      5  N   UNL     1       2.153   4.121  -0.714  0.00  0.00    -0.270 N 
ATOM      6  C   UNL     1       0.949   3.446  -0.637  0.00  0.00    +0.061 A 
ATOM      7  C   UNL     1       0.830   2.068  -0.671  0.00  0.00    -0.026 A 
ATOM      8  C   UNL     1      -0.409   1.475  -0.830  0.00  0.00    +0.008 A 
ATOM      9  C   UNL     1      -1.557   2.246  -0.892  0.00  0.00    -0.050 A 
ATOM     10  C   UNL     1      -1.478   3.610  -0.713  0.00  0.00    +0.013 A 
ATOM     11  C   UNL     1      -0.235   4.208  -0.491  0.00  0.00    +0.002 A 
ATOM     12  C   UNL     1      -0.135   5.613  -0.088  0.00  0.00    -0.038 A 
ATOM     13  C   UNL     1       1.090   6.158   0.084  0.00  0.00    +0.052 A 
ATOM     14  C   UNL     1      -1.366   6.441   0.174  0.00  0.00    +0.044 C 
ATOM     15  C   UNL     1      -2.892   1.597  -1.150  0.00  0.00    +0.044 C 
ATOM     16  C   UNL     1       2.017   1.164  -0.452  0.00  0.00    +0.046 C 
ENDROOT
BRANCH   1  17
ATOM     17  S   UNL     1       3.849   2.566  -2.331  0.00  0.00    -0.076 S 
BRANCH  17  18
ATOM     18  C   UNL     1       5.612   2.930  -2.525  0.00  0.00    +0.173 C 
BRANCH  18  20
ATOM     19  N   UNL     1       7.549   1.992  -3.743  0.00  0.00    -0.285 N 
ATOM     20  C   UNL     1       6.235   1.918  -3.450  0.00  0.00    +0.227 C 
ATOM     21  O   UNL     1       5.555   1.036  -3.932  0.00  0.00    -0.275 OA
ATOM     22  H   UNL     1       8.076   2.739  -3.420  0.00  0.00    +0.155 HD
BRANCH  19  27
ATOM     23  C   UNL     1       9.992  -2.068  -6.864  0.00  0.00    +0.044 C 
ATOM     24  C   UNL     1       9.343  -0.989  -6.035  0.00  0.00    -0.047 A 
ATOM     25  C   UNL     1       8.306  -1.309  -5.176  0.00  0.00    +0.005 A 
ATOM     26  C   UNL     1       7.714  -0.324  -4.411  0.00  0.00    +0.023 A 
ATOM     27  C   UNL     1       8.152   0.990  -4.512  0.00  0.00    +0.034 A 
ATOM     28  C   UNL     1       9.192   1.308  -5.375  0.00  0.00    +0.027 A 
ATOM     29  C   UNL     1       9.785   0.317  -6.133  0.00  0.00    -0.046 A 
ATOM     30  C   UNL     1      10.915   0.660  -7.070  0.00  0.00    +0.044 C 
ENDBRANCH  19  27
ENDBRANCH  18  20
ENDBRANCH  17  18
ENDBRANCH   1  17
TORSDOF 4
