REMARK  Name = ZINC57816315
REMARK  7 active torsions:
REMARK  status: ('A' for Active; 'I' for Inactive)
REMARK    1  A    between atoms: C_1  and  C_2
REMARK    2  A    between atoms: C_3  and  C_11
REMARK    3  A    between atoms: C_8  and  C_10
REMARK    4  A    between atoms: C_11  and  C_12
REMARK    5  A    between atoms: C_12  and  C_13
REMARK    6  A    between atoms: N_15  and  N_16
REMARK    7  A    between atoms: C_17  and  C_19
REMARK                            x       y       z     vdW  Elec       q    Type
REMARK                         _______ _______ _______ _____ _____    ______ ____
ROOT
ATOM      1  C   UNL     1      -4.332   0.876  -1.407  0.00  0.00    +0.229 C 
ATOM      2  O   UNL     1      -4.816   1.240  -0.356  0.00  0.00    -0.274 OA
ATOM      3  N   UNL     1      -4.979   1.115  -2.566  0.00  0.00    -0.234 N 
ATOM      4  H   UNL     1      -4.592   0.825  -3.406  0.00  0.00    +0.173 HD
ENDROOT
BRANCH   3   5
ATOM      5  N   UNL     1      -6.211   1.783  -2.555  0.00  0.00    -0.229 N 
ATOM      6  C   UNL     1      -6.858   2.022  -3.713  0.00  0.00    +0.276 C 
ATOM      7  O   UNL     1      -6.372   1.658  -4.768  0.00  0.00    -0.267 OA
ATOM      8  H   UNL     1      -6.598   2.074  -1.714  0.00  0.00    +0.173 HD
BRANCH   6   9
ATOM      9  C   UNL     1      -8.147   2.721  -3.702  0.00  0.00    +0.104 A 
ATOM     10  C   UNL     1      -8.918   3.026  -4.804  0.00  0.00    +0.047 A 
ATOM     11  C   UNL     1     -10.057   3.690  -4.338  0.00  0.00    +0.036 A 
ATOM     12  C   UNL     1      -9.964   3.777  -2.989  0.00  0.00    +0.098 A 
ATOM     13  N   UNL     1      -8.810   3.187  -2.590  0.00  0.00    -0.356 N 
ATOM     14  H   UNL     1      -8.502   3.109  -1.673  0.00  0.00    +0.166 HD
ATOM     15 BR   UNL     1     -11.475   4.349  -5.401  0.00  0.00    -0.049 Br
ENDBRANCH   6   9
ENDBRANCH   3   5
BRANCH   1  16
ATOM     16  C   UNL     1      -3.008   0.158  -1.419  0.00  0.00    +0.102 C 
BRANCH  16  17
ATOM     17  C   UNL     1      -2.492   0.017   0.015  0.00  0.00    +0.051 C 
BRANCH  17  20
ATOM     18  C   UNL     1      -0.018   1.503   0.010  0.00  0.00    +0.066 C 
ATOM     19  C   UNL     1       0.002  -0.004   0.002  0.00  0.00    +0.049 A 
ATOM     20  C   UNL     1      -1.167  -0.702   0.004  0.00  0.00    +0.038 A 
ATOM     21  C   UNL     1      -1.113  -2.111  -0.005  0.00  0.00    +0.255 A 
ATOM     22  O   UNL     1      -2.136  -2.774  -0.004  0.00  0.00    -0.268 OA
ATOM     23  N   UNL     1       0.097  -2.710  -0.014  0.00  0.00    -0.311 N 
ATOM     24  H   UNL     1       0.160  -3.678  -0.020  0.00  0.00    +0.170 HD
ATOM     25  C   UNL     1       1.218  -1.962  -0.015  0.00  0.00    +0.107 A 
ATOM     26  N   UNL     1       1.167  -0.657  -0.013  0.00  0.00    -0.239 NA
ATOM     27  C   UNL     1       2.560  -2.647  -0.026  0.00  0.00    +0.086 C 
ENDBRANCH  17  20
ENDBRANCH  16  17
ENDBRANCH   1  16
TORSDOF 5
