REMARK  Name = ZINC09314928
REMARK  6 active torsions:
REMARK  status: ('A' for Active; 'I' for Inactive)
REMARK    1  A    between atoms: C_1  and  C_2
REMARK    2  A    between atoms: C_2  and  C_19
REMARK    3  A    between atoms: N_5  and  C_9
REMARK    4  A    between atoms: C_9  and  C_10
REMARK    5  A    between atoms: N_15  and  C_16
REMARK    6  A    between atoms: C_16  and  C_17
REMARK                            x       y       z     vdW  Elec       q    Type
REMARK                         _______ _______ _______ _____ _____    ______ ____
ROOT
ATOM      1  C   UNL     1       1.043   4.404  -1.244  0.00  0.00    +0.047 C 
ATOM      2  C   UNL     1       0.587   3.664   0.015  0.00  0.00    +0.141 C 
ATOM      3  C   UNL     1       1.087   2.233   0.004  0.00  0.00    +0.252 C 
ATOM      4  O   UNL     1       2.240   1.861  -0.008  0.00  0.00    -0.272 OA
ATOM      5  N   UNL     1      -0.018   1.461   0.010  0.00  0.00    -0.215 N 
ATOM      6  C   UNL     1      -1.135   2.197   0.019  0.00  0.00    +0.310 C 
ATOM      7  O   UNL     1      -2.255   1.726   0.022  0.00  0.00    -0.252 OA
ATOM      8  N   UNL     1      -0.879   3.518   0.028  0.00  0.00    -0.281 N 
ATOM      9  H   UNL     1      -1.533   4.235   0.037  0.00  0.00    +0.152 HD
ENDROOT
BRANCH   2  10
ATOM     10  C   UNL     1       1.059   4.381   1.254  0.00  0.00    +0.022 A 
ATOM     11  C   UNL     1       0.463   5.389   1.936  0.00  0.00    +0.014 A 
ATOM     12  C   UNL     1       1.087   5.899   3.059  0.00  0.00    +0.008 A 
ATOM     13  C   UNL     1       2.275   5.374   3.446  0.00  0.00    +0.045 A 
ATOM     14  S   UNL     1       2.544   4.116   2.208  0.00  0.00    -0.099 S 
ENDBRANCH   2  10
BRANCH   5  15
ATOM     15  C   UNL     1       0.002  -0.004   0.002  0.00  0.00    +0.214 C 
BRANCH  15  16
ATOM     16  C   UNL     1       0.022  -0.514   1.420  0.00  0.00    +0.238 C 
ATOM     17  O   UNL     1       0.021   0.269   2.346  0.00  0.00    -0.274 OA
ATOM     18  N   UNL     1       0.043  -1.840   1.659  0.00  0.00    -0.239 N 
ATOM     19  C   UNL     1       0.061  -2.296   2.927  0.00  0.00    +0.306 C 
ATOM     20  O   UNL     1       0.059  -1.512   3.855  0.00  0.00    -0.252 OA
ATOM     21  N   UNL     1       0.081  -3.623   3.166  0.00  0.00    -0.296 N 
ATOM     22  H   UNL     1       0.044  -2.466   0.918  0.00  0.00    +0.159 HD
ATOM     23  H   UNL     1       0.083  -4.249   2.425  0.00  0.00    +0.151 HD
BRANCH  21  24
ATOM     24  C   UNL     1       0.101  -4.118   4.545  0.00  0.00    +0.132 C 
BRANCH  24  25
ATOM     25  C   UNL     1       0.122  -5.625   4.536  0.00  0.00    -0.016 C 
ATOM     26  C   UNL     1       1.066  -6.271   5.175  0.00  0.00    +0.005 C 
ENDBRANCH  24  25
ENDBRANCH  21  24
ENDBRANCH  15  16
ENDBRANCH   5  15
TORSDOF 5
