REMARK  Name = ZINC54261327
REMARK  6 active torsions:
REMARK  status: ('A' for Active; 'I' for Inactive)
REMARK    1  A    between atoms: C_1  and  C_2
REMARK    2  A    between atoms: C_5  and  C_7
REMARK    3  A    between atoms: C_7  and  C_9
REMARK    4  A    between atoms: C_7  and  N_10
REMARK    5  A    between atoms: C_11  and  C_13
REMARK    6  A    between atoms: N_21  and  C_24
REMARK                            x       y       z     vdW  Elec       q    Type
REMARK                         _______ _______ _______ _____ _____    ______ ____
ROOT
ATOM      1  C   UNL     1       3.711  -5.387  -2.392  0.00  0.00    +0.039 A 
ATOM      2  C   UNL     1       4.467  -4.233  -2.648  0.00  0.00    +0.014 A 
ATOM      3  C   UNL     1       5.548  -4.277  -3.475  0.00  0.00    +0.016 A 
ATOM      4  C   UNL     1       5.915  -5.487  -4.081  0.00  0.00    +0.065 A 
ATOM      5  C   UNL     1       5.159  -6.662  -3.832  0.00  0.00    +0.080 A 
ATOM      6  C   UNL     1       4.052  -6.598  -2.973  0.00  0.00    +0.041 A 
ATOM      7  N   UNL     1       5.523  -7.811  -4.419  0.00  0.00    -0.222 NA
ATOM      8  C   UNL     1       6.574  -7.856  -5.224  0.00  0.00    +0.183 A 
ATOM      9  N   UNL     1       7.322  -6.773  -5.492  0.00  0.00    -0.290 N 
ATOM     10  C   UNL     1       7.029  -5.574  -4.944  0.00  0.00    +0.262 A 
ATOM     11  O   UNL     1       7.778  -4.491  -5.213  0.00  0.00    -0.267 OA
ATOM     12  C   UNL     1       8.473  -6.894  -6.391  0.00  0.00    +0.154 C 
ATOM     13  S   UNL     1       6.995  -9.349  -5.948  0.00  0.00    -0.011 S 
ENDROOT
BRANCH   1  15
ATOM     14  N   UNL     1       2.201  -4.137  -0.921  0.00  0.00    -0.304 N 
ATOM     15  C   UNL     1       2.539  -5.311  -1.489  0.00  0.00    +0.245 C 
ATOM     16  O   UNL     1       1.883  -6.308  -1.260  0.00  0.00    -0.270 OA
ATOM     17  H   UNL     1       2.725  -3.341  -1.103  0.00  0.00    +0.150 HD
BRANCH  14  18
ATOM     18  C   UNL     1       1.043  -4.062  -0.027  0.00  0.00    +0.107 C 
ATOM     19  C   UNL     1       1.465  -4.458   1.389  0.00  0.00    +0.033 C 
BRANCH  18  24
ATOM     20  C   UNL     1      -0.018   1.503   0.010  0.00  0.00    +0.051 C 
ATOM     21  C   UNL     1       0.002  -0.004   0.002  0.00  0.00    -0.013 A 
ATOM     22  C   UNL     1      -1.039  -0.872   0.002  0.00  0.00    +0.011 A 
ATOM     23  C   UNL     1      -0.780  -2.230  -0.007  0.00  0.00    +0.013 A 
ATOM     24  C   UNL     1       0.507  -2.653  -0.016  0.00  0.00    +0.010 A 
ATOM     25  S   UNL     1       1.404  -1.109  -0.018  0.00  0.00    -0.097 S 
ENDBRANCH  18  24
ENDBRANCH  14  18
ENDBRANCH   1  15
TORSDOF 3
