REMARK  Name = ZINC58056669
REMARK  6 active torsions:
REMARK  status: ('A' for Active; 'I' for Inactive)
REMARK    1  A    between atoms: C_1  and  C_2
REMARK    2  A    between atoms: C_2  and  C_3
REMARK    3  A    between atoms: C_2  and  C_4
REMARK    4  A    between atoms: C_2  and  C_5
REMARK    5  A    between atoms: C_8  and  C_11
REMARK    6  A    between atoms: C_15  and  N_19
REMARK                            x       y       z     vdW  Elec       q    Type
REMARK                         _______ _______ _______ _____ _____    ______ ____
ROOT
ATOM      1  C   UNL     1       2.696  -1.860  -4.732  0.00  0.00    +0.121 A 
ATOM      2  N   UNL     1       2.334  -3.023  -5.271  0.00  0.00    -0.307 N 
ATOM      3  C   UNL     1       2.943  -3.488  -6.378  0.00  0.00    +0.276 A 
ATOM      4  O   UNL     1       2.573  -4.661  -6.915  0.00  0.00    -0.266 OA
ATOM      5  C   UNL     1       3.964  -2.735  -6.960  0.00  0.00    +0.155 A 
ATOM      6  C   UNL     1       4.316  -1.520  -6.368  0.00  0.00    +0.276 A 
ATOM      7  O   UNL     1       5.292  -0.765  -6.896  0.00  0.00    -0.266 OA
ATOM      8  N   UNL     1       3.662  -1.114  -5.265  0.00  0.00    -0.307 N 
ATOM      9  H   UNL     1       3.899  -0.270  -4.850  0.00  0.00    +0.170 HD
ATOM     10  H   UNL     1       1.624  -3.542  -4.861  0.00  0.00    +0.170 HD
ENDROOT
BRANCH   1  14
ATOM     11  C   UNL     1       0.707  -0.490  -1.238  0.00  0.00    -0.042 A 
ATOM     12  C   UNL     1       0.033  -1.285  -2.147  0.00  0.00    +0.005 A 
ATOM     13  C   UNL     1       0.672  -1.733  -3.284  0.00  0.00    +0.012 A 
ATOM     14  C   UNL     1       2.004  -1.383  -3.516  0.00  0.00    +0.016 A 
ATOM     15  C   UNL     1       2.679  -0.581  -2.595  0.00  0.00    +0.012 A 
ATOM     16  C   UNL     1       2.025  -0.135  -1.464  0.00  0.00    +0.005 A 
BRANCH  11  18
ATOM     17  C   UNL     1      -0.019   1.526   0.010  0.00  0.00    +0.015 C 
ATOM     18  C   UNL     1       0.002  -0.004   0.002  0.00  0.00    -0.013 C 
ATOM     19  C   UNL     1       0.742  -0.511   1.242  0.00  0.00    +0.015 C 
ATOM     20  C   UNL     1      -1.433  -0.534   0.013  0.00  0.00    +0.015 C 
ENDBRANCH  11  18
ENDBRANCH   1  14
BRANCH   5  21
ATOM     21  N   UNL     1       4.623  -3.189  -8.117  0.00  0.00    -0.350 N 
ATOM     22  H   UNL     1       4.370  -4.035  -8.519  0.00  0.00    +0.143 HD
ATOM     23  H   UNL     1       5.331  -2.657  -8.512  0.00  0.00    +0.143 HD
ENDBRANCH   5  21
TORSDOF 3
