REMARK  Name = ZINC12371924
REMARK  4 active torsions:
REMARK  status: ('A' for Active; 'I' for Inactive)
REMARK    1  A    between atoms: C_1  and  S_2
REMARK    2  A    between atoms: S_2  and  C_3
REMARK    3  A    between atoms: C_26  and  C_29
REMARK    4  A    between atoms: C_27  and  N_28
REMARK                            x       y       z     vdW  Elec       q    Type
REMARK                         _______ _______ _______ _____ _____    ______ ____
ROOT
ATOM      1  C   UNL     1      -7.794   0.242   0.228  0.00  0.00    +0.160 A 
ATOM      2  N   UNL     1      -8.140   1.516   0.109  0.00  0.00    -0.133 NA
ATOM      3  N   UNL     1      -7.281   2.439   0.070  0.00  0.00    -0.124 NA
ATOM      4  C   UNL     1      -5.983   2.192   0.135  0.00  0.00    +0.194 A 
ATOM      5  S   UNL     1      -6.012   0.408   0.282  0.00  0.00    -0.024 S 
ATOM      6  N   UNL     1      -4.902   3.071   0.103  0.00  0.00    -0.237 N 
ATOM      7  C   UNL     1      -4.392   3.560   1.277  0.00  0.00    +0.027 C 
ATOM      8  C   UNL     1      -3.144   4.075   1.323  0.00  0.00    +0.037 C 
ATOM      9  C   UNL     1      -2.611   4.580   2.521  0.00  0.00    +0.162 C 
ATOM     10  O   UNL     1      -1.490   5.050   2.524  0.00  0.00    -0.292 OA
ATOM     11  C   UNL     1      -3.403   4.549   3.800  0.00  0.00    +0.080 C 
ATOM     12  C   UNL     1      -4.377   3.368   3.754  0.00  0.00    +0.014 C 
ATOM     13  C   UNL     1      -5.258   3.514   2.512  0.00  0.00    +0.052 C 
ATOM     14  C   UNL     1      -2.284   4.120   0.086  0.00  0.00    +0.141 C 
ATOM     15  C   UNL     1      -1.203   3.085   0.162  0.00  0.00    -0.002 A 
ATOM     16  C   UNL     1      -1.262   1.710   0.221  0.00  0.00    +0.007 A 
ATOM     17  C   UNL     1      -0.051   1.029   0.289  0.00  0.00    +0.000 A 
ATOM     18  C   UNL     1       1.153   1.704   0.287  0.00  0.00    +0.002 A 
ATOM     19  C   UNL     1       1.220   3.087   0.222  0.00  0.00    +0.023 A 
ATOM     20  C   UNL     1       0.011   3.782   0.159  0.00  0.00    +0.038 A 
ATOM     21  N   UNL     1      -0.217   5.144   0.086  0.00  0.00    -0.284 N 
ATOM     22  C   UNL     1      -1.533   5.436   0.039  0.00  0.00    +0.238 C 
ATOM     23  O   UNL     1      -2.024   6.543  -0.029  0.00  0.00    -0.274 OA
ATOM     24  C   UNL     1      -3.100   3.951  -1.160  0.00  0.00    +0.089 C 
ATOM     25  C   UNL     1      -4.357   3.438  -1.107  0.00  0.00    +0.109 C 
ATOM     26  H   UNL     1       0.487   5.812   0.072  0.00  0.00    +0.155 HD
ENDROOT
BRANCH  25  27
ATOM     27  N   UNL     1      -5.085   3.284  -2.262  0.00  0.00    -0.345 N 
ATOM     28  H   UNL     1      -4.738   3.622  -3.103  0.00  0.00    +0.144 HD
ATOM     29  H   UNL     1      -5.946   2.837  -2.238  0.00  0.00    +0.144 HD
ENDBRANCH  25  27
BRANCH   1  31
ATOM     30  C   UNL     1     -10.494  -0.564   0.192  0.00  0.00    +0.092 C 
ATOM     31  S   UNL     1      -8.800  -1.202   0.309  0.00  0.00    -0.100 S 
ENDBRANCH   1  31
BRANCH  24  32
ATOM     32  C   UNL     1      -2.547   4.337  -2.423  0.00  0.00    +0.100 C 
ATOM     33  N   UNL     1      -2.109   4.643  -3.426  0.00  0.00    -0.191 NA
ENDBRANCH  24  32
TORSDOF 3
