REMARK  Name = ZINC45545026
REMARK  11 active torsions:
REMARK  status: ('A' for Active; 'I' for Inactive)
REMARK    1  A    between atoms: C_1  and  C_2
REMARK    2  A    between atoms: C_2  and  C_3
REMARK    3  A    between atoms: C_2  and  C_18
REMARK    4  A    between atoms: C_2  and  N_21
REMARK    5  A    between atoms: C_3  and  C_4
REMARK    6  A    between atoms: C_4  and  C_5
REMARK    7  A    between atoms: C_5  and  C_6
REMARK    8  A    between atoms: C_6  and  O_7
REMARK    9  A    between atoms: O_7  and  C_8
REMARK   10  A    between atoms: C_12  and  S_14
REMARK   11  A    between atoms: S_14  and  C_17
REMARK                            x       y       z     vdW  Elec       q    Type
REMARK                         _______ _______ _______ _____ _____    ______ ____
ROOT
ATOM      1  C   UNL     1       2.178   0.019   1.231  0.00  0.00    +0.002 C 
ENDROOT
BRANCH   1   2
ATOM      2  C   UNL     1       0.742  -0.511   1.242  0.00  0.00    -0.004 C 
BRANCH   2   4
ATOM      3  C   UNL     1      -0.019   1.526   0.010  0.00  0.00    -0.001 C 
ATOM      4  C   UNL     1       0.002  -0.004   0.002  0.00  0.00    +0.004 C 
BRANCH   4   5
ATOM      5  C   UNL     1      -1.412  -0.526   0.013  0.00  0.00    +0.199 C 
ATOM      6  O   UNL     1      -1.939  -0.827   1.062  0.00  0.00    -0.278 OA
ATOM      7  N   UNL     1      -2.090  -0.657  -1.144  0.00  0.00    -0.330 N 
ATOM      8  H   UNL     1      -1.669  -0.416  -1.984  0.00  0.00    +0.145 HD
ATOM      9  H   UNL     1      -3.000  -0.993  -1.137  0.00  0.00    +0.145 HD
ENDBRANCH   4   5
BRANCH   4  10
ATOM     10  N   UNL     1       0.690  -0.478  -1.207  0.00  0.00    +0.387 N 
ATOM     11  H   UNL     1       1.636  -0.129  -1.214  0.00  0.00    -0.089 HD
ATOM     12  H   UNL     1       0.703  -1.487  -1.212  0.00  0.00    -0.089 HD
ATOM     13  H   UNL     1       0.202  -0.144  -2.024  0.00  0.00    -0.089 HD
ENDBRANCH   4  10
ENDBRANCH   2   4
ENDBRANCH   1   2
BRANCH   1  14
ATOM     14  C   UNL     1       2.917  -0.488   2.470  0.00  0.00    +0.041 C 
BRANCH  14  15
ATOM     15  C   UNL     1       4.353   0.041   2.459  0.00  0.00    +0.229 C 
BRANCH  15  16
ATOM     16  O   UNL     1       5.044  -0.432   3.617  0.00  0.00    -0.492 OA
BRANCH  16  17
ATOM     17  C   UNL     1       6.340  -0.050   3.761  0.00  0.00    +0.122 A 
ATOM     18  C   UNL     1       6.933   0.768   2.810  0.00  0.00    +0.046 A 
ATOM     19  C   UNL     1       8.251   1.156   2.959  0.00  0.00    +0.005 A 
ATOM     20  C   UNL     1       8.979   0.728   4.054  0.00  0.00    +0.027 A 
ATOM     21  C   UNL     1       8.390  -0.087   5.003  0.00  0.00    +0.091 A 
ATOM     22  C   UNL     1       7.071  -0.473   4.861  0.00  0.00    +0.072 A 
BRANCH  21  23
ATOM     23  S   UNL     1       9.322  -0.630   6.396  0.00  0.00    -0.006 S 
ATOM     24  O   UNL     1       8.708  -1.851   6.789  0.00  0.00    -0.170 OA
ATOM     25  O   UNL     1      10.674  -0.607   5.960  0.00  0.00    -0.170 OA
ATOM     26  C   UNL     1       9.051   0.641   7.662  0.00  0.00    +0.200 C 
ENDBRANCH  21  23
ENDBRANCH  16  17
ENDBRANCH  15  16
ENDBRANCH  14  15
ENDBRANCH   1  14
TORSDOF 9
