REMARK  Name = ZINC09970310
REMARK  14 active torsions:
REMARK  status: ('A' for Active; 'I' for Inactive)
REMARK    1  A    between atoms: C_1  and  C_2
REMARK    2  A    between atoms: N_4  and  C_5
REMARK    3  A    between atoms: C_5  and  C_29
REMARK    4  A    between atoms: C_6  and  C_27
REMARK    5  A    between atoms: C_6  and  O_28
REMARK    6  A    between atoms: C_7  and  C_25
REMARK    7  A    between atoms: C_7  and  O_26
REMARK    8  A    between atoms: C_8  and  C_22
REMARK    9  A    between atoms: C_8  and  C_23
REMARK   10  A    between atoms: C_10  and  C_11
REMARK   11  A    between atoms: C_10  and  O_12
REMARK   12  A    between atoms: O_12  and  C_13
REMARK   13  A    between atoms: C_16  and  N_19
REMARK   14  A    between atoms: C_23  and  O_24
REMARK                            x       y       z     vdW  Elec       q    Type
REMARK                         _______ _______ _______ _____ _____    ______ ____
ROOT
ATOM      1  C   UNL     1      -0.344   1.672   1.660  0.00  0.00    +0.128 C 
ATOM      2  C   UNL     1       0.656   1.436   2.778  0.00  0.00    +0.121 C 
ATOM      3  C   UNL     1       1.794   2.439   2.838  0.00  0.00    +0.124 C 
ATOM      4  C   UNL     1       1.349   3.879   2.616  0.00  0.00    +0.125 C 
ATOM      5  O   UNL     1       0.374   4.014   1.613  0.00  0.00    -0.326 OA
ATOM      6  C   UNL     1      -0.715   3.138   1.477  0.00  0.00    +0.234 C 
ATOM      7  C   UNL     1      -1.856   3.505   2.433  0.00  0.00    +0.091 C 
ATOM      8  C   UNL     1       0.872   4.479   3.945  0.00  0.00    +0.047 C 
ATOM      9  C   UNL     1       2.894   2.079   1.832  0.00  0.00    +0.047 C 
ATOM     10  C   UNL     1       1.261   0.027   2.597  0.00  0.00    +0.047 C 
ATOM     11  C   UNL     1       0.177   1.105   0.333  0.00  0.00    +0.041 C 
ENDROOT
BRANCH   1  15
ATOM     12  C   UNL     1      -3.896   0.215   1.490  0.00  0.00    +0.109 C 
ATOM     13  C   UNL     1      -2.635   0.966   1.151  0.00  0.00    +0.211 C 
ATOM     14  O   UNL     1      -2.566   1.601   0.120  0.00  0.00    -0.276 OA
ATOM     15  N   UNL     1      -1.583   0.933   1.993  0.00  0.00    -0.302 N 
ATOM     16  H   UNL     1      -1.638   0.426   2.818  0.00  0.00    +0.150 HD
ENDBRANCH   1  15
BRANCH   3  17
ATOM     17  O   UNL     1       2.384   2.362   4.155  0.00  0.00    -0.383 OA
ATOM     18  H   UNL     1       3.124   2.970   4.291  0.00  0.00    +0.210 HD
ENDBRANCH   3  17
BRANCH   2  19
ATOM     19  O   UNL     1      -0.039   1.435   4.038  0.00  0.00    -0.384 OA
ATOM     20  H   UNL     1       0.534   1.290   4.803  0.00  0.00    +0.210 HD
ENDBRANCH   2  19
BRANCH   6  21
ATOM     21  O   UNL     1      -1.235   3.284   0.133  0.00  0.00    -0.459 OA
BRANCH  21  22
ATOM     22  C   UNL     1      -1.540   4.544  -0.276  0.00  0.00    +0.124 A 
ATOM     23  C   UNL     1      -1.282   5.626   0.553  0.00  0.00    +0.048 A 
ATOM     24  C   UNL     1      -1.589   6.905   0.133  0.00  0.00    +0.036 A 
ATOM     25  C   UNL     1      -2.161   7.108  -1.109  0.00  0.00    +0.126 A 
ATOM     26  C   UNL     1      -2.423   6.031  -1.936  0.00  0.00    +0.036 A 
ATOM     27  C   UNL     1      -2.114   4.750  -1.522  0.00  0.00    +0.048 A 
BRANCH  25  28
ATOM     28  N   UNL     1      -2.494   8.479  -1.555  0.00  0.00    +0.056 N 
ATOM     29  O   UNL     1      -2.998   8.659  -2.649  0.00  0.00    -0.126 OA
ATOM     30  O   UNL     1      -2.263   9.429  -0.828  0.00  0.00    -0.126 OA
ENDBRANCH  25  28
ENDBRANCH  21  22
ENDBRANCH   6  21
BRANCH   4  31
ATOM     31  C   UNL     1       2.595   4.686   2.180  0.00  0.00    +0.193 C 
BRANCH  31  32
ATOM     32  O   UNL     1       2.253   6.069   2.072  0.00  0.00    -0.392 OA
ATOM     33  H   UNL     1       2.988   6.637   1.802  0.00  0.00    +0.210 HD
ENDBRANCH  31  32
ENDBRANCH   4  31
TORSDOF 8
