REMARK  Name = ZINC44862150
REMARK  7 active torsions:
REMARK  status: ('A' for Active; 'I' for Inactive)
REMARK    1  A    between atoms: C_1  and  C_2
REMARK    2  A    between atoms: C_9  and  C_11
REMARK    3  A    between atoms: C_11  and  C_13
REMARK    4  A    between atoms: C_11  and  C_16
REMARK    5  A    between atoms: C_13  and  C_14
REMARK    6  A    between atoms: C_13  and  C_15
REMARK    7  A    between atoms: N_17  and  O_18
REMARK                            x       y       z     vdW  Elec       q    Type
REMARK                         _______ _______ _______ _____ _____    ______ ____
ROOT
ATOM      1  C   UNL     1       0.672  -4.287  -2.123  0.00  0.00    +0.144 C 
ENDROOT
BRANCH   1   9
ATOM      2  C   UNL     1       2.297   1.675  -2.593  0.00  0.00    +0.039 C 
ATOM      3  C   UNL     1       2.384   0.191  -2.229  0.00  0.00    +0.132 C 
ATOM      4  C   UNL     1       1.242  -0.571  -2.910  0.00  0.00    +0.139 C 
ATOM      5  N   UNL     1       1.454  -2.012  -2.700  0.00  0.00    -0.296 N 
ATOM      6  C   UNL     1       2.777  -2.570  -3.022  0.00  0.00    +0.136 C 
ATOM      7  C   UNL     1       3.845  -1.711  -2.336  0.00  0.00    +0.179 C 
ATOM      8  O   UNL     1       3.635  -0.338  -2.675  0.00  0.00    -0.374 OA
ATOM      9  C   UNL     1       0.467  -2.797  -2.225  0.00  0.00    +0.226 C 
ATOM     10  O   UNL     1      -0.587  -2.305  -1.881  0.00  0.00    -0.275 OA
ENDBRANCH   1   9
BRANCH   1  11
ATOM     11  C   UNL     1       0.280  -4.938  -3.425  0.00  0.00    +0.144 C 
ATOM     12  N   UNL     1      -0.908  -5.422  -3.572  0.00  0.00    -0.076 NA
ATOM     13  N   UNL     1       1.189  -5.016  -4.457  0.00  0.00    -0.343 N 
ATOM     14  H   UNL     1       2.081  -4.653  -4.346  0.00  0.00    +0.144 HD
ATOM     15  H   UNL     1       0.937  -5.436  -5.294  0.00  0.00    +0.144 HD
BRANCH  12  16
ATOM     16  O   UNL     1      -1.277  -6.034  -4.795  0.00  0.00    -0.408 OA
ATOM     17  H   UNL     1      -2.185  -6.366  -4.811  0.00  0.00    +0.328 HD
ENDBRANCH  12  16
ENDBRANCH   1  11
BRANCH   1  18
ATOM     18  C   UNL     1      -0.195  -4.844  -0.993  0.00  0.00    +0.002 C 
ATOM     19  C   UNL     1       0.027  -6.354  -0.877  0.00  0.00    +0.008 C 
ATOM     20  C   UNL     1       0.190  -4.170   0.325  0.00  0.00    +0.008 C 
ENDBRANCH   1  18
TORSDOF 4
