REMARK  Name = ZINC56017328
REMARK  6 active torsions:
REMARK  status: ('A' for Active; 'I' for Inactive)
REMARK    1  A    between atoms: C_1  and  C_2
REMARK    2  A    between atoms: C_6  and  C_28
REMARK    3  A    between atoms: C_10  and  C_12
REMARK    4  A    between atoms: C_12  and  C_13
REMARK    5  A    between atoms: C_13  and  N_14
REMARK    6  A    between atoms: N_17  and  C_18
REMARK                            x       y       z     vdW  Elec       q    Type
REMARK                         _______ _______ _______ _____ _____    ______ ____
ROOT
ATOM      1  C   UNL     1       3.074   1.021   3.704  0.00  0.00    +0.115 C 
ENDROOT
BRANCH   1   2
ATOM      2  N   UNL     1       3.959   0.513   4.755  0.00  0.00    -0.299 N 
ATOM      3  C   UNL     1       4.652   1.373   5.526  0.00  0.00    +0.300 C 
ATOM      4  O   UNL     1       4.544   2.571   5.350  0.00  0.00    -0.253 OA
ATOM      5  N   UNL     1       5.466   0.905   6.494  0.00  0.00    -0.294 N 
ATOM      6  H   UNL     1       4.045  -0.443   4.896  0.00  0.00    +0.150 HD
ATOM      7  H   UNL     1       5.553  -0.050   6.634  0.00  0.00    +0.151 HD
BRANCH   5   8
ATOM      8  C   UNL     1       6.221   1.841   7.332  0.00  0.00    +0.037 C 
ATOM      9  C   UNL     1       5.247   2.755   8.078  0.00  0.00    +0.029 C 
ATOM     10  C   UNL     1       6.035   3.732   8.954  0.00  0.00    -0.008 C 
ATOM     11  C   UNL     1       6.874   2.948   9.964  0.00  0.00    +0.007 C 
ATOM     12  C   UNL     1       7.848   2.034   9.218  0.00  0.00    -0.008 C 
ATOM     13  C   UNL     1       7.060   1.057   8.342  0.00  0.00    +0.029 C 
ATOM     14  C   UNL     1       8.769   2.880   8.337  0.00  0.00    +0.007 C 
ATOM     15  C   UNL     1       7.929   3.664   7.326  0.00  0.00    -0.008 C 
ATOM     16  C   UNL     1       6.956   4.578   8.073  0.00  0.00    +0.007 C 
ATOM     17  C   UNL     1       7.142   2.687   6.451  0.00  0.00    +0.029 C 
ENDBRANCH   5   8
ENDBRANCH   1   2
BRANCH   1  18
ATOM     18  C   UNL     1       2.412  -0.154   2.982  0.00  0.00    +0.114 C 
BRANCH  18  26
ATOM     19  C   UNL     1      -0.017   1.526   0.009  0.00  0.00    +0.028 C 
ATOM     20  C   UNL     1       0.003  -0.004   0.001  0.00  0.00    +0.073 C 
ATOM     21  C   UNL     1      -1.426  -0.537   0.144  0.00  0.00    +0.023 C 
ATOM     22  C   UNL     1      -1.387  -2.061   0.276  0.00  0.00    +0.016 C 
ATOM     23  C   UNL     1      -0.600  -2.447   1.530  0.00  0.00    +0.092 C 
ATOM     24  C   UNL     1       0.838  -1.935   1.403  0.00  0.00    +0.120 C 
ATOM     25  N   UNL     1       0.808  -0.492   1.130  0.00  0.00    -0.298 N 
ATOM     26  C   UNL     1       1.502   0.368   1.901  0.00  0.00    +0.217 C 
ATOM     27  O   UNL     1       1.393   1.563   1.725  0.00  0.00    -0.276 OA
BRANCH  23  28
ATOM     28  C   UNL     1      -0.590  -3.946   1.677  0.00  0.00    +0.215 C 
ATOM     29  O   UNL     1      -1.157  -4.639   0.859  0.00  0.00    -0.276 OA
ATOM     30  N   UNL     1       0.048  -4.518   2.718  0.00  0.00    -0.329 N 
ATOM     31  H   UNL     1       0.501  -3.963   3.372  0.00  0.00    +0.145 HD
ATOM     32  H   UNL     1       0.054  -5.483   2.812  0.00  0.00    +0.145 HD
ENDBRANCH  23  28
ENDBRANCH  18  26
ENDBRANCH   1  18
TORSDOF 5
