REMARK  Name = ZINC41326616
REMARK  7 active torsions:
REMARK  status: ('A' for Active; 'I' for Inactive)
REMARK    1  A    between atoms: C_3  and  O_25
REMARK    2  A    between atoms: C_6  and  C_7
REMARK    3  A    between atoms: C_7  and  N_8
REMARK    4  A    between atoms: C_9  and  C_11
REMARK    5  A    between atoms: N_13  and  C_14
REMARK    6  A    between atoms: C_17  and  S_20
REMARK    7  A    between atoms: S_20  and  C_21
REMARK                            x       y       z     vdW  Elec       q    Type
REMARK                         _______ _______ _______ _____ _____    ______ ____
ROOT
ATOM      1  C   UNL     1      -3.311  -1.937  -3.011  0.00  0.00    +0.303 C 
ATOM      2  O   UNL     1      -2.647  -1.521  -3.938  0.00  0.00    -0.265 OA
ATOM      3  N   UNL     1      -4.452  -2.614  -3.250  0.00  0.00    -0.278 N 
ATOM      4  H   UNL     1      -4.947  -3.004  -2.513  0.00  0.00    +0.155 HD
ENDROOT
BRANCH   3   5
ATOM      5  C   UNL     1      -4.920  -2.755  -4.560  0.00  0.00    +0.034 A 
ATOM      6  C   UNL     1      -6.286  -2.747  -4.814  0.00  0.00    +0.024 A 
ATOM      7  C   UNL     1      -6.748  -2.886  -6.107  0.00  0.00    +0.017 A 
ATOM      8  C   UNL     1      -5.848  -3.033  -7.155  0.00  0.00    +0.016 A 
ATOM      9  C   UNL     1      -4.481  -3.041  -6.901  0.00  0.00    +0.017 A 
ATOM     10  C   UNL     1      -4.019  -2.897  -5.608  0.00  0.00    +0.024 A 
BRANCH   8  11
ATOM     11  S   UNL     1      -6.438  -3.211  -8.806  0.00  0.00    -0.016 S 
BRANCH  11  12
ATOM     12  C   UNL     1      -4.927  -3.368  -9.797  0.00  0.00    +0.448 C 
ATOM     13  F   UNL     1      -4.204  -4.488  -9.372  0.00  0.00    -0.160 F 
ATOM     14  F   UNL     1      -5.268  -3.517 -11.146  0.00  0.00    -0.160 F 
ATOM     15  F   UNL     1      -4.144  -2.220  -9.639  0.00  0.00    -0.160 F 
ENDBRANCH  11  12
ENDBRANCH   8  11
ENDBRANCH   3   5
BRANCH   1  17
ATOM     16  N   UNL     1      -1.725  -1.020  -1.367  0.00  0.00    -0.303 N 
ATOM     17  C   UNL     1      -2.865  -1.698  -1.606  0.00  0.00    +0.300 C 
ATOM     18  O   UNL     1      -3.529  -2.113  -0.679  0.00  0.00    -0.265 OA
ATOM     19  H   UNL     1      -1.194  -0.688  -2.108  0.00  0.00    +0.149 HD
BRANCH  16  20
ATOM     20  C   UNL     1      -1.287  -0.785   0.011  0.00  0.00    +0.140 C 
BRANCH  20  26
ATOM     21  C   UNL     1      -0.017   1.371   0.019  0.00  0.00    +0.009 A 
ATOM     22  C   UNL     1       1.167   2.082   0.012  0.00  0.00    +0.046 A 
ATOM     23  C   UNL     1       2.380   1.409  -0.012  0.00  0.00    +0.117 A 
ATOM     24  C   UNL     1       2.400   0.022  -0.028  0.00  0.00    +0.046 A 
ATOM     25  C   UNL     1       1.213  -0.685  -0.021  0.00  0.00    +0.009 A 
ATOM     26  C   UNL     1       0.006  -0.012   0.003  0.00  0.00    -0.030 A 
BRANCH  23  27
ATOM     27  O   UNL     1       3.546   2.107  -0.020  0.00  0.00    -0.507 OA
ATOM     28  H   UNL     1       3.895   2.299   0.861  0.00  0.00    +0.292 HD
ENDBRANCH  23  27
ENDBRANCH  20  26
ENDBRANCH  16  20
ENDBRANCH   1  17
TORSDOF 7
