REMARK  Name = ZINC40172479
REMARK  11 active torsions:
REMARK  status: ('A' for Active; 'I' for Inactive)
REMARK    1  A    between atoms: C_1  and  C_2
REMARK    2  A    between atoms: C_2  and  C_3
REMARK    3  A    between atoms: C_3  and  C_5
REMARK    4  A    between atoms: C_3  and  N_17
REMARK    5  A    between atoms: N_7  and  C_8
REMARK    6  A    between atoms: C_9  and  C_15
REMARK    7  A    between atoms: C_10  and  C_14
REMARK    8  A    between atoms: C_11  and  C_13
REMARK    9  A    between atoms: C_21  and  S_22
REMARK   10  A    between atoms: S_22  and  C_23
REMARK   11  A    between atoms: C_23  and  C_24
REMARK                            x       y       z     vdW  Elec       q    Type
REMARK                         _______ _______ _______ _____ _____    ______ ____
ROOT
ATOM      1  C   UNL     1       0.737  -0.606  -1.201  0.00  0.00    +0.178 C 
ENDROOT
BRANCH   1   2
ATOM      2  N   UNL     1       0.546  -2.058  -1.240  0.00  0.00    -0.279 N 
ATOM      3  C   UNL     1       0.915  -2.944  -0.268  0.00  0.00    +0.216 A 
ATOM      4  N   UNL     1       0.578  -4.146  -0.665  0.00  0.00    -0.113 NA
ATOM      5  N   UNL     1      -0.024  -4.033  -1.925  0.00  0.00    -0.121 NA
ATOM      6  C   UNL     1      -0.040  -2.764  -2.254  0.00  0.00    +0.194 A 
ATOM      7  N   UNL     1       1.539  -2.626   0.931  0.00  0.00    -0.328 N 
ATOM      8  H   UNL     1       1.751  -1.702   1.138  0.00  0.00    +0.145 HD
ATOM      9  H   UNL     1       1.764  -3.327   1.562  0.00  0.00    +0.145 HD
BRANCH   6  10
ATOM     10  S   UNL     1      -0.696  -2.087  -3.743  0.00  0.00    -0.086 S 
BRANCH  10  11
ATOM     11  C   UNL     1      -1.314  -3.534  -4.647  0.00  0.00    +0.074 C 
ATOM     12  C   UNL     1      -1.919  -3.083  -5.978  0.00  0.00    +0.016 C 
ENDBRANCH  10  11
ENDBRANCH   6  10
ENDBRANCH   1   2
BRANCH   1  13
ATOM     13  C   UNL     1       2.208  -0.296  -1.092  0.00  0.00    +0.242 C 
ATOM     14  O   UNL     1       3.021  -1.196  -1.122  0.00  0.00    -0.273 OA
ATOM     15  N   UNL     1       2.620   0.980  -0.963  0.00  0.00    -0.254 N 
ATOM     16  H   UNL     1       1.977   1.704  -1.010  0.00  0.00    +0.158 HD
BRANCH  15  17
ATOM     17  C   UNL     1       3.961   1.258  -0.762  0.00  0.00    +0.210 A 
ATOM     18  C   UNL     1       4.519   2.517  -0.608  0.00  0.00    +0.115 A 
ATOM     19  C   UNL     1       5.960   2.285  -0.425  0.00  0.00    +0.010 A 
ATOM     20  C   UNL     1       6.134   0.958  -0.484  0.00  0.00    +0.109 A 
ATOM     21  O   UNL     1       4.949   0.355  -0.678  0.00  0.00    -0.445 OA
ATOM     22  C   UNL     1       7.457   0.248  -0.347  0.00  0.00    +0.086 C 
ATOM     23  C   UNL     1       7.026   3.330  -0.215  0.00  0.00    +0.049 C 
BRANCH  18  24
ATOM     24  C   UNL     1       3.837   3.776  -0.624  0.00  0.00    +0.105 C 
ATOM     25  N   UNL     1       3.295   4.774  -0.636  0.00  0.00    -0.191 NA
ENDBRANCH  18  24
ENDBRANCH  15  17
ENDBRANCH   1  13
BRANCH   1  27
ATOM     26  C   UNL     1      -1.504  -0.220  -0.166  0.00  0.00    +0.006 C 
ATOM     27  C   UNL     1       0.004  -0.028   0.011  0.00  0.00    +0.031 C 
ENDBRANCH   1  27
TORSDOF 7
