REMARK  Name = ZINC15879980
REMARK  6 active torsions:
REMARK  status: ('A' for Active; 'I' for Inactive)
REMARK    1  A    between atoms: C_1  and  C_2
REMARK    2  A    between atoms: C_4  and  C_18
REMARK    3  A    between atoms: C_5  and  S_9
REMARK    4  A    between atoms: C_7  and  C_8
REMARK    5  A    between atoms: S_9  and  N_12
REMARK    6  A    between atoms: N_12  and  C_13
REMARK                            x       y       z     vdW  Elec       q    Type
REMARK                         _______ _______ _______ _____ _____    ______ ____
ROOT
ATOM      1  S   UNL     1       0.063  -4.530  -0.023  0.00  0.00    +0.095 S 
ATOM      2  O   UNL     1       1.088  -4.918  -0.927  0.00  0.00    -0.148 OA
ATOM      3  O   UNL     1       0.049  -4.944   1.337  0.00  0.00    -0.148 OA
ENDROOT
BRANCH   1   8
ATOM      4  C   UNL     1      -0.018   1.503   0.010  0.00  0.00    +0.044 C 
ATOM      5  C   UNL     1       0.002  -0.004   0.002  0.00  0.00    -0.047 A 
ATOM      6  C   UNL     1       0.006  -0.689  -1.199  0.00  0.00    +0.009 A 
ATOM      7  C   UNL     1       0.025  -2.071  -1.207  0.00  0.00    -0.024 A 
ATOM      8  C   UNL     1       0.040  -2.768  -0.013  0.00  0.00    +0.114 A 
ATOM      9  C   UNL     1       0.037  -2.084   1.188  0.00  0.00    +0.032 A 
ATOM     10  C   UNL     1       0.023  -0.702   1.195  0.00  0.00    -0.046 A 
ATOM     11  C   UNL     1       0.025   0.045   2.504  0.00  0.00    +0.044 C 
ATOM     12  C   UNL     1       0.027  -2.817  -2.516  0.00  0.00    +0.046 C 
ENDBRANCH   1   8
BRANCH   1  13
ATOM     13  N   UNL     1      -1.368  -5.035  -0.686  0.00  0.00    -0.058 NA
BRANCH  13  14
ATOM     14  C   UNL     1      -1.630  -6.389  -0.822  0.00  0.00    +0.256 A 
ATOM     15  N   UNL     1      -2.756  -6.948  -1.352  0.00  0.00    -0.313 N 
ATOM     16  C   UNL     1      -2.568  -8.301  -1.278  0.00  0.00    +0.223 A 
ATOM     17  N   UNL     1      -1.400  -8.501  -0.737  0.00  0.00    -0.136 NA
ATOM     18  N   UNL     1      -0.839  -7.375  -0.470  0.00  0.00    -0.110 NA
ATOM     19  H   UNL     1      -3.530  -6.483  -1.707  0.00  0.00    +0.170 HD
ENDBRANCH  13  14
ENDBRANCH   1  13
TORSDOF 3
