REMARK  Name = ZINC04088602
REMARK  7 active torsions:
REMARK  status: ('A' for Active; 'I' for Inactive)
REMARK    1  A    between atoms: C_1  and  C_2
REMARK    2  A    between atoms: C_13  and  C_15
REMARK    3  A    between atoms: C_15  and  C_17
REMARK    4  A    between atoms: C_15  and  O_18
REMARK    5  A    between atoms: N_21  and  C_24
REMARK    6  A    between atoms: C_24  and  C_25
REMARK    7  A    between atoms: C_25  and  C_26
REMARK                            x       y       z     vdW  Elec       q    Type
REMARK                         _______ _______ _______ _____ _____    ______ ____
ROOT
ATOM      1  C   UNL     1      11.217  -3.284  -1.644  0.00  0.00    +0.044 C 
ATOM      2  C   UNL     1      10.630  -2.060  -0.989  0.00  0.00    -0.050 A 
ATOM      3  C   UNL     1      11.461  -1.077  -0.484  0.00  0.00    +0.005 A 
ATOM      4  C   UNL     1      10.930   0.045   0.116  0.00  0.00    +0.024 A 
ATOM      5  C   UNL     1       9.549   0.198   0.217  0.00  0.00    +0.036 A 
ATOM      6  C   UNL     1       8.722  -0.798  -0.294  0.00  0.00    -0.027 A 
ATOM      7  C   UNL     1       9.257  -1.917  -0.892  0.00  0.00    +0.008 A 
ATOM      8  C   UNL     1       7.316  -0.339  -0.031  0.00  0.00    +0.050 C 
ATOM      9  C   UNL     1       6.514  -0.207  -1.332  0.00  0.00    +0.088 C 
ATOM     10  C   UNL     1       5.695  -1.524  -1.420  0.00  0.00    +0.075 C 
ATOM     11  C   UNL     1       6.096  -2.327  -0.165  0.00  0.00    -0.028 C 
ATOM     12  C   UNL     1       4.265  -1.057  -1.279  0.00  0.00    +0.224 C 
ATOM     13  O   UNL     1       3.289  -1.776  -1.285  0.00  0.00    -0.275 OA
ATOM     14  N   UNL     1       4.243   0.275  -1.147  0.00  0.00    -0.241 N 
ATOM     15  C   UNL     1       5.449   0.855  -1.172  0.00  0.00    +0.225 C 
ATOM     16  O   UNL     1       5.655   2.046  -1.077  0.00  0.00    -0.275 OA
ATOM     17  C   UNL     1       7.461   0.988   0.664  0.00  0.00    +0.211 C 
ATOM     18  O   UNL     1       6.562   1.704   1.053  0.00  0.00    -0.277 OA
ATOM     19  N   UNL     1       8.782   1.226   0.770  0.00  0.00    -0.286 N 
ATOM     20  H   UNL     1       9.158   2.020   1.182  0.00  0.00    +0.155 HD
ATOM     21  N   UNL     1       6.583  -1.307   0.767  0.00  0.00    +0.396 N 
ATOM     22  H   UNL     1       5.793  -0.852   1.240  0.00  0.00    -0.083 HD
ATOM     23  H   UNL     1       7.203  -1.732   1.466  0.00  0.00    -0.083 HD
ENDROOT
BRANCH  11  24
ATOM     24  C   UNL     1       4.885  -3.068   0.403  0.00  0.00    +0.098 C 
ATOM     25  C   UNL     1       4.437  -4.147  -0.586  0.00  0.00    +0.036 C 
BRANCH  24  26
ATOM     26  O   UNL     1       5.239  -3.679   1.645  0.00  0.00    -0.394 OA
ATOM     27  H   UNL     1       5.960  -4.321   1.577  0.00  0.00    +0.210 HD
ENDBRANCH  24  26
ENDBRANCH  11  24
BRANCH  14  28
ATOM     28  C   UNL     1       3.001   1.036  -0.994  0.00  0.00    +0.121 C 
BRANCH  28  29
ATOM     29  C   UNL     1       2.659   1.161   0.492  0.00  0.00    +0.054 C 
BRANCH  29  30
ATOM     30  C   UNL     1       1.380   1.944   0.649  0.00  0.00    -0.046 A 
ATOM     31  C   UNL     1       0.164   1.286   0.661  0.00  0.00    +0.004 A 
ATOM     32  C   UNL     1      -1.008   2.005   0.800  0.00  0.00    +0.000 A 
ATOM     33  C   UNL     1      -0.964   3.380   0.936  0.00  0.00    +0.000 A 
ATOM     34  C   UNL     1       0.252   4.037   0.924  0.00  0.00    +0.000 A 
ATOM     35  C   UNL     1       1.424   3.319   0.781  0.00  0.00    +0.004 A 
ENDBRANCH  29  30
ENDBRANCH  28  29
ENDBRANCH  14  28
TORSDOF 5
