REMARK  Name = ZINC22050795
REMARK  5 active torsions:
REMARK  status: ('A' for Active; 'I' for Inactive)
REMARK    1  A    between atoms: C_1  and  C_2
REMARK    2  A    between atoms: N_4  and  C_5
REMARK    3  A    between atoms: C_7  and  O_28
REMARK    4  A    between atoms: C_14  and  C_22
REMARK    5  A    between atoms: C_19  and  O_21
REMARK                            x       y       z     vdW  Elec       q    Type
REMARK                         _______ _______ _______ _____ _____    ______ ____
ROOT
ATOM      1  C   UNL     1       2.065   1.109   1.234  0.00  0.00    +0.132 C 
ATOM      2  C   UNL     1       1.304   1.530   2.494  0.00  0.00    +0.138 C 
ATOM      3  C   UNL     1       1.170   3.054   2.515  0.00  0.00    +0.041 C 
ATOM      4  C   UNL     1       0.409   3.524   1.278  0.00  0.00    +0.049 C 
ATOM      5  C   UNL     1      -1.000   2.924   1.268  0.00  0.00    +0.169 C 
ATOM      6  O   UNL     1      -1.654   3.307   0.054  0.00  0.00    -0.347 OA
ATOM      7  C   UNL     1      -0.956   2.913  -1.130  0.00  0.00    +0.282 C 
ATOM      8  O   UNL     1       0.357   3.479  -1.125  0.00  0.00    -0.341 OA
ATOM      9  C   UNL     1       1.144   3.086   0.008  0.00  0.00    +0.157 C 
ATOM     10  C   UNL     1       1.286   1.562  -0.002  0.00  0.00    +0.166 C 
ENDROOT
BRANCH   7  11
ATOM     11  C   UNL     1      -1.708   3.400  -2.341  0.00  0.00    +0.008 A 
ATOM     12  C   UNL     1      -1.100   4.267  -3.230  0.00  0.00    +0.008 A 
ATOM     13  C   UNL     1      -1.788   4.711  -4.343  0.00  0.00    +0.000 A 
ATOM     14  C   UNL     1      -3.088   4.294  -4.564  0.00  0.00    +0.000 A 
ATOM     15  C   UNL     1      -3.698   3.432  -3.672  0.00  0.00    +0.000 A 
ATOM     16  C   UNL     1      -3.008   2.985  -2.561  0.00  0.00    +0.008 A 
ENDBRANCH   7  11
BRANCH   1  20
ATOM     17  C   UNL     1       3.379  -2.434   1.847  0.00  0.00    +0.109 C 
ATOM     18  C   UNL     1       3.231  -0.935   1.867  0.00  0.00    +0.210 C 
ATOM     19  O   UNL     1       4.034  -0.255   2.471  0.00  0.00    -0.276 OA
ATOM     20  N   UNL     1       2.208  -0.349   1.214  0.00  0.00    -0.308 N 
ATOM     21  H   UNL     1       1.480  -0.966   0.666  0.00  0.00    +0.149 HD
ENDBRANCH   1  20
BRANCH  10  22
ATOM     22  O   UNL     1      -0.011   0.963   0.007  0.00  0.00    -0.387 OA
ATOM     23  H   UNL     1      -0.719   1.173  -0.808  0.00  0.00    +0.210 HD
ENDBRANCH  10  22
BRANCH   2  24
ATOM     24  O   UNL     1       0.004   0.936   2.488  0.00  0.00    -0.390 OA
ATOM     25  H   UNL     1      -0.691   1.126   3.319  0.00  0.00    +0.210 HD
ENDBRANCH   2  24
TORSDOF 4
