REMARK  Name = ZINC39673676
REMARK  8 active torsions:
REMARK  status: ('A' for Active; 'I' for Inactive)
REMARK    1  A    between atoms: C_1  and  C_2
REMARK    2  A    between atoms: C_2  and  C_3
REMARK    3  A    between atoms: C_3  and  C_4
REMARK    4  A    between atoms: C_4  and  C_6
REMARK    5  A    between atoms: C_4  and  N_7
REMARK    6  A    between atoms: C_8  and  C_10
REMARK    7  A    between atoms: C_21  and  C_23
REMARK    8  A    between atoms: C_27  and  C_30
REMARK                            x       y       z     vdW  Elec       q    Type
REMARK                         _______ _______ _______ _____ _____    ______ ____
ROOT
ATOM      1  C   UNL     1       2.161  -4.236   1.519  0.00  0.00    +0.100 C 
ATOM      2  C   UNL     1       2.037  -3.278   2.725  0.00  0.00    +0.121 C 
ATOM      3  N   UNL     1       0.970  -3.870   3.566  0.00  0.00    -0.296 N 
ATOM      4  C   UNL     1       1.210  -5.331   3.493  0.00  0.00    +0.115 C 
ATOM      5  C   UNL     1       1.621  -5.583   2.028  0.00  0.00    -0.004 C 
ATOM      6  C   UNL     1       0.407  -6.010   1.208  0.00  0.00    -0.010 C 
ATOM      7  C   UNL     1      -0.077  -7.378   1.695  0.00  0.00    -0.082 C 
ATOM      8  N   UNL     1       1.004  -8.361   1.554  0.00  0.00    +0.379 N 
ATOM      9  C   UNL     1       2.132  -7.992   2.418  0.00  0.00    -0.082 C 
ATOM     10  C   UNL     1       2.710  -6.649   1.961  0.00  0.00    -0.010 C 
ATOM     11  C   UNL     1      -0.001  -3.225   4.243  0.00  0.00    +0.251 C 
ATOM     12  O   UNL     1      -0.810  -3.857   4.894  0.00  0.00    -0.270 OA
ATOM     13  H   UNL     1       0.664  -9.273   1.819  0.00  0.00    -0.086 HD
ATOM     14  H   UNL     1       1.312  -8.385   0.594  0.00  0.00    -0.086 HD
ENDROOT
BRANCH  11  15
ATOM     15  C   UNL     1      -0.082  -1.752   4.195  0.00  0.00    +0.091 A 
ATOM     16  C   UNL     1      -0.847  -1.122   3.209  0.00  0.00    +0.056 A 
ATOM     17  C   UNL     1      -0.917   0.256   3.170  0.00  0.00    +0.021 A 
ATOM     18  C   UNL     1      -0.233   1.014   4.104  0.00  0.00    +0.007 A 
ATOM     19  C   UNL     1       0.526   0.400   5.082  0.00  0.00    -0.014 A 
ATOM     20  C   UNL     1       0.603  -0.979   5.139  0.00  0.00    +0.140 A 
ATOM     21  F   UNL     1       1.341  -1.579   6.099  0.00  0.00    -0.204 F 
ATOM     22  C   UNL     1       1.267   1.236   6.094  0.00  0.00    +0.047 C 
ATOM     23 CL   UNL     1      -1.705  -2.071   2.035  0.00  0.00    -0.083 Cl
ENDBRANCH  11  15
BRANCH   1  25
ATOM     24  N   UNL     1       1.673  -4.052  -0.899  0.00  0.00    -0.312 N 
ATOM     25  C   UNL     1       1.328  -3.739   0.366  0.00  0.00    +0.218 C 
ATOM     26  O   UNL     1       0.347  -3.057   0.576  0.00  0.00    -0.275 OA
ATOM     27  H   UNL     1       2.458  -4.597  -1.067  0.00  0.00    +0.149 HD
BRANCH  24  28
ATOM     28  C   UNL     1       0.864  -3.568  -2.020  0.00  0.00    +0.070 C 
ATOM     29  C   UNL     1      -0.304  -4.528  -2.257  0.00  0.00    +0.028 C 
BRANCH  28  30
ATOM     30  C   UNL     1       1.729  -3.497  -3.280  0.00  0.00    +0.022 C 
BRANCH  30  32
ATOM     31  C   UNL     1       3.688  -2.373  -4.348  0.00  0.00    +0.004 C 
ATOM     32  C   UNL     1       2.823  -2.445  -3.088  0.00  0.00    -0.002 C 
ENDBRANCH  30  32
ENDBRANCH  28  30
ENDBRANCH  24  28
ENDBRANCH   1  25
TORSDOF 5
