REMARK  Name = ZINC25412571
REMARK  7 active torsions:
REMARK  status: ('A' for Active; 'I' for Inactive)
REMARK    1  A    between atoms: C_1  and  C_2
REMARK    2  A    between atoms: C_5  and  N_9
REMARK    3  A    between atoms: C_10  and  C_12
REMARK    4  A    between atoms: C_12  and  C_14
REMARK    5  A    between atoms: C_12  and  N_15
REMARK    6  A    between atoms: C_17  and  C_24
REMARK    7  A    between atoms: C_20  and  C_23
REMARK                            x       y       z     vdW  Elec       q    Type
REMARK                         _______ _______ _______ _____ _____    ______ ____
ROOT
ATOM      1  N   UNL     1       0.068  -4.172  -0.023  0.00  0.00    -0.283 N 
ATOM      2  C   UNL     1      -0.036  -4.840  -1.189  0.00  0.00    +0.234 C 
ATOM      3  O   UNL     1      -0.050  -4.230  -2.238  0.00  0.00    -0.274 OA
ATOM      4  H   UNL     1       0.160  -4.662   0.809  0.00  0.00    +0.155 HD
ENDROOT
BRANCH   1   9
ATOM      5  C   UNL     1      -0.039   1.501   0.019  0.00  0.00    +0.044 C 
ATOM      6  C   UNL     1      -0.010  -0.005   0.008  0.00  0.00    -0.049 A 
ATOM      7  C   UNL     1      -0.605  -0.700  -1.030  0.00  0.00    +0.005 A 
ATOM      8  C   UNL     1      -0.581  -2.080  -1.043  0.00  0.00    +0.025 A 
ATOM      9  C   UNL     1       0.042  -2.773  -0.013  0.00  0.00    +0.052 A 
ATOM     10  C   UNL     1       0.640  -2.073   1.028  0.00  0.00    +0.062 A 
ATOM     11  C   UNL     1       0.616  -0.691   1.033  0.00  0.00    +0.025 A 
ATOM     12 CL   UNL     1       1.420  -2.933   2.319  0.00  0.00    -0.082 Cl
ENDBRANCH   1   9
BRANCH   2  13
ATOM     13  C   UNL     1      -0.136  -6.343  -1.191  0.00  0.00    +0.140 C 
ATOM     14  C   UNL     1      -1.444  -6.768  -0.520  0.00  0.00    +0.034 C 
BRANCH  13  15
ATOM     15  N   UNL     1      -0.114  -6.834  -2.575  0.00  0.00    -0.287 NA
ATOM     16  C   UNL     1       0.122  -8.285  -2.616  0.00  0.00    +0.116 C 
ATOM     17  C   UNL     1       0.197  -8.743  -4.075  0.00  0.00    +0.130 C 
ATOM     18  O   UNL     1      -1.008  -8.371  -4.749  0.00  0.00    -0.371 OA
ATOM     19  C   UNL     1      -1.268  -6.965  -4.729  0.00  0.00    +0.130 C 
ATOM     20  C   UNL     1      -1.358  -6.488  -3.277  0.00  0.00    +0.116 C 
ATOM     21  C   UNL     1      -2.590  -6.679  -5.444  0.00  0.00    +0.039 C 
ATOM     22  C   UNL     1       0.362 -10.264  -4.124  0.00  0.00    +0.039 C 
ENDBRANCH  13  15
ENDBRANCH   2  13
TORSDOF 3
