REMARK  Name = ZINC33017787
REMARK  6 active torsions:
REMARK  status: ('A' for Active; 'I' for Inactive)
REMARK    1  A    between atoms: C_1  and  C_2
REMARK    2  A    between atoms: N_6  and  C_25
REMARK    3  A    between atoms: C_8  and  C_10
REMARK    4  A    between atoms: N_12  and  C_13
REMARK    5  A    between atoms: C_13  and  C_14
REMARK    6  A    between atoms: C_14  and  N_15
REMARK                            x       y       z     vdW  Elec       q    Type
REMARK                         _______ _______ _______ _____ _____    ______ ____
ROOT
ATOM      1  C   UNL     1       0.087   0.128   0.587  0.00  0.00    +0.278 C 
ATOM      2  O   UNL     1      -0.990  -0.437   0.603  0.00  0.00    -0.267 OA
ATOM      3  N   UNL     1       0.159   1.447   0.855  0.00  0.00    -0.311 N 
ATOM      4  H   UNL     1       1.133   1.958   0.845  0.00  0.00    +0.149 HD
ENDROOT
BRANCH   1  11
ATOM      5  C   UNL     1       2.400  -3.117   1.851  0.00  0.00    +0.038 C 
ATOM      6  C   UNL     1       2.403  -2.834   0.348  0.00  0.00    +0.157 C 
ATOM      7  C   UNL     1       3.657  -2.081  -0.027  0.00  0.00    +0.259 C 
ATOM      8  O   UNL     1       4.672  -2.684  -0.308  0.00  0.00    -0.271 OA
ATOM      9  N   UNL     1       3.640  -0.733  -0.046  0.00  0.00    -0.157 N 
ATOM     10  N   UNL     1       2.470  -0.028   0.257  0.00  0.00    -0.152 NA
ATOM     11  C   UNL     1       1.313  -0.628   0.276  0.00  0.00    +0.200 C 
ATOM     12  N   UNL     1       1.246  -1.998   0.003  0.00  0.00    -0.313 N 
ATOM     13  H   UNL     1       0.357  -2.453  -0.459  0.00  0.00    +0.148 HD
BRANCH   9  14
ATOM     14  C   UNL     1       4.805  -0.031  -0.374  0.00  0.00    +0.060 A 
ATOM     15  C   UNL     1       4.762   0.987  -1.318  0.00  0.00    +0.025 A 
ATOM     16  C   UNL     1       5.913   1.681  -1.635  0.00  0.00    +0.002 A 
ATOM     17  C   UNL     1       7.109   1.356  -1.023  0.00  0.00    +0.000 A 
ATOM     18  C   UNL     1       7.157   0.340  -0.086  0.00  0.00    +0.002 A 
ATOM     19  C   UNL     1       6.008  -0.355   0.240  0.00  0.00    +0.025 A 
ENDBRANCH   9  14
ENDBRANCH   1  11
BRANCH   3  20
ATOM     20  C   UNL     1      -1.060   2.201   1.159  0.00  0.00    +0.086 C 
BRANCH  20  21
ATOM     21  C   UNL     1      -0.702   3.665   1.423  0.00  0.00    -0.059 C 
BRANCH  21  22
ATOM     22  N   UNL     1      -1.925   4.420   1.727  0.00  0.00    +0.384 N 
ATOM     23  C   UNL     1      -1.653   5.866   1.775  0.00  0.00    -0.074 C 
ATOM     24  C   UNL     1      -2.986   6.612   1.726  0.00  0.00    +0.017 C 
ATOM     25  C   UNL     1      -3.929   6.050   2.758  0.00  0.00    -0.048 A 
ATOM     26  C   UNL     1      -5.040   6.798   3.117  0.00  0.00    +0.004 A 
ATOM     27  C   UNL     1      -5.931   6.318   4.055  0.00  0.00    +0.000 A 
ATOM     28  C   UNL     1      -5.715   5.084   4.641  0.00  0.00    +0.000 A 
ATOM     29  C   UNL     1      -4.609   4.339   4.285  0.00  0.00    +0.002 A 
ATOM     30  C   UNL     1      -3.712   4.821   3.343  0.00  0.00    -0.061 A 
ATOM     31  C   UNL     1      -2.518   3.973   2.991  0.00  0.00    -0.043 C 
ATOM     32  H   UNL     1      -2.646   4.226   0.920  0.00  0.00    -0.081 HD
ENDBRANCH  21  22
ENDBRANCH  20  21
ENDBRANCH   3  20
TORSDOF 5
