REMARK  Name = ZINC43113913
REMARK  4 active torsions:
REMARK  status: ('A' for Active; 'I' for Inactive)
REMARK    1  A    between atoms: C_1  and  C_2
REMARK    2  A    between atoms: C_5  and  C_7
REMARK    3  A    between atoms: C_7  and  N_8
REMARK    4  A    between atoms: C_9  and  C_11
REMARK                            x       y       z     vdW  Elec       q    Type
REMARK                         _______ _______ _______ _____ _____    ______ ____
ROOT
ATOM      1  N   UNL     1       0.848  -2.495   2.828  0.00  0.00    -0.311 N 
ATOM      2  C   UNL     1       0.489  -3.639   3.443  0.00  0.00    +0.249 C 
ATOM      3  O   UNL     1      -0.498  -4.246   3.071  0.00  0.00    -0.270 OA
ATOM      4  H   UNL     1       1.590  -1.972   3.171  0.00  0.00    +0.149 HD
ENDROOT
BRANCH   2   5
ATOM      5  C   UNL     1       1.288  -4.154   4.565  0.00  0.00    +0.101 A 
ATOM      6  C   UNL     1       1.000  -5.393   5.132  0.00  0.00    +0.020 A 
ATOM      7  C   UNL     1       1.780  -5.848   6.195  0.00  0.00    +0.018 A 
ATOM      8  C   UNL     1       2.803  -5.088   6.663  0.00  0.00    +0.086 A 
ATOM      9  N   UNL     1       3.089  -3.882   6.117  0.00  0.00    -0.328 N 
ATOM     10  C   UNL     1       2.371  -3.399   5.085  0.00  0.00    +0.261 A 
ATOM     11  O   UNL     1       2.647  -2.314   4.604  0.00  0.00    -0.267 OA
ATOM     12  H   UNL     1       3.826  -3.360   6.472  0.00  0.00    +0.168 HD
ENDBRANCH   2   5
BRANCH   1  13
ATOM     13  C   UNL     1       0.119  -2.042   1.640  0.00  0.00    +0.108 C 
BRANCH  13  17
ATOM     14  C   UNL     1       0.021   1.502  -0.030  0.00  0.00    +0.008 C 
ATOM     15  C   UNL     1       0.027  -0.028  -0.026  0.00  0.00    -0.009 C 
ATOM     16  C   UNL     1       1.368  -0.730  -0.247  0.00  0.00    +0.009 C 
ATOM     17  C   UNL     1       0.725  -0.728   1.141  0.00  0.00    +0.009 C 
ENDBRANCH  13  17
ENDBRANCH   1  13
TORSDOF 3
