REMARK  Name = ZINC66158694
REMARK  7 active torsions:
REMARK  status: ('A' for Active; 'I' for Inactive)
REMARK    1  A    between atoms: C_1  and  C_2
REMARK    2  A    between atoms: C_2  and  C_3
REMARK    3  A    between atoms: C_3  and  C_4
REMARK    4  A    between atoms: C_3  and  C_5
REMARK    5  A    between atoms: C_3  and  O_22
REMARK    6  A    between atoms: C_5  and  N_6
REMARK    7  A    between atoms: N_9  and  C_10
REMARK                            x       y       z     vdW  Elec       q    Type
REMARK                         _______ _______ _______ _____ _____    ______ ____
ROOT
ATOM      1  N   UNL     1      -2.784  -2.571  -0.089  0.00  0.00    -0.296 N 
ATOM      2  C   UNL     1      -3.011  -3.899  -0.126  0.00  0.00    +0.304 C 
ATOM      3  O   UNL     1      -2.079  -4.677  -0.062  0.00  0.00    -0.253 OA
ATOM      4  N   UNL     1      -4.271  -4.364  -0.233  0.00  0.00    -0.268 N 
ATOM      5  H   UNL     1      -3.527  -1.950  -0.140  0.00  0.00    +0.150 HD
ATOM      6  H   UNL     1      -5.019  -3.746  -0.218  0.00  0.00    +0.156 HD
ENDROOT
BRANCH   4   7
ATOM      7  C   UNL     1      -4.501  -5.740  -0.366  0.00  0.00    +0.057 A 
ATOM      8  C   UNL     1      -3.676  -6.648   0.286  0.00  0.00    +0.074 A 
ATOM      9  C   UNL     1      -3.909  -8.005   0.151  0.00  0.00    +0.164 A 
ATOM     10  C   UNL     1      -4.961  -8.458  -0.633  0.00  0.00    +0.163 A 
ATOM     11  C   UNL     1      -5.783  -7.554  -1.284  0.00  0.00    +0.071 A 
ATOM     12  C   UNL     1      -5.557  -6.195  -1.146  0.00  0.00    +0.066 A 
ATOM     13 CL   UNL     1      -6.590  -5.058  -1.954  0.00  0.00    -0.081 Cl
ATOM     14  O   UNL     1      -5.181  -9.800  -0.758  0.00  0.00    -0.488 OA
ATOM     15  C   UNL     1      -4.188 -10.531  -1.482  0.00  0.00    +0.232 C 
ATOM     16  C   UNL     1      -3.033 -10.918  -0.572  0.00  0.00    +0.082 C 
ATOM     17  C   UNL     1      -2.273  -9.707  -0.054  0.00  0.00    +0.232 C 
ATOM     18  O   UNL     1      -3.107  -8.907   0.788  0.00  0.00    -0.488 OA
ENDBRANCH   4   7
BRANCH   1  19
ATOM     19  C   UNL     1      -1.413  -2.065   0.028  0.00  0.00    +0.140 C 
BRANCH  19  20
ATOM     20  C   UNL     1      -1.435  -0.535   0.048  0.00  0.00    +0.078 C 
ATOM     21  C   UNL     1      -2.172  -0.019  -1.189  0.00  0.00    +0.043 C 
BRANCH  20  23
ATOM     22  C   UNL     1      -0.020   1.524   0.064  0.00  0.00    +0.007 C 
ATOM     23  C   UNL     1       0.001  -0.005   0.044  0.00  0.00    +0.032 C 
ENDBRANCH  20  23
BRANCH  20  24
ATOM     24  O   UNL     1      -2.106  -0.083   1.226  0.00  0.00    -0.387 OA
ATOM     25  H   UNL     1      -1.693  -0.374   2.050  0.00  0.00    +0.210 HD
ENDBRANCH  20  24
ENDBRANCH  19  20
ENDBRANCH   1  19
TORSDOF 5
