REMARK  Name = ZINC35203806
REMARK  7 active torsions:
REMARK  status: ('A' for Active; 'I' for Inactive)
REMARK    1  A    between atoms: C_1  and  C_2
REMARK    2  A    between atoms: C_2  and  C_4
REMARK    3  A    between atoms: C_2  and  O_18
REMARK    4  A    between atoms: C_4  and  N_5
REMARK    5  A    between atoms: C_6  and  C_8
REMARK    6  A    between atoms: N_13  and  S_14
REMARK    7  A    between atoms: S_14  and  C_17
REMARK                            x       y       z     vdW  Elec       q    Type
REMARK                         _______ _______ _______ _____ _____    ______ ____
ROOT
ATOM      1  N   UNL     1      -1.922  -1.647   0.066  0.00  0.00    -0.312 N 
ATOM      2  C   UNL     1      -2.888  -2.531  -0.254  0.00  0.00    +0.232 C 
ATOM      3  O   UNL     1      -3.956  -2.137  -0.670  0.00  0.00    -0.274 OA
ATOM      4  H   UNL     1      -1.067  -1.962   0.399  0.00  0.00    +0.149 HD
ENDROOT
BRANCH   2   5
ATOM      5  C   UNL     1      -2.640  -4.009  -0.093  0.00  0.00    +0.165 C 
ATOM      6  C   UNL     1      -2.022  -4.581  -1.387  0.00  0.00    +0.031 C 
ATOM      7  C   UNL     1      -2.707  -5.967  -1.516  0.00  0.00    +0.019 C 
ATOM      8  C   UNL     1      -4.127  -5.664  -0.975  0.00  0.00    +0.110 C 
ATOM      9  N   UNL     1      -3.914  -4.708   0.131  0.00  0.00    -0.170 NA
BRANCH   9  10
ATOM     10  S   UNL     1      -4.936  -4.463   1.411  0.00  0.00    +0.030 S 
ATOM     11  O   UNL     1      -4.584  -3.183   1.917  0.00  0.00    -0.158 OA
ATOM     12  O   UNL     1      -6.236  -4.703   0.888  0.00  0.00    -0.158 OA
ATOM     13  C   UNL     1      -4.498  -5.751   2.611  0.00  0.00    +0.215 C 
ENDBRANCH   9  10
ENDBRANCH   2   5
BRANCH   1  14
ATOM     14  C   UNL     1      -2.163  -0.211  -0.090  0.00  0.00    +0.135 C 
BRANCH  14  16
ATOM     15  C   UNL     1      -1.167   2.065   0.177  0.00  0.00    +0.039 C 
ATOM     16  C   UNL     1      -0.916   0.565   0.340  0.00  0.00    +0.128 C 
BRANCH  16  17
ATOM     17  O   UNL     1      -0.623   0.277   1.708  0.00  0.00    -0.391 OA
ATOM     18  H   UNL     1       0.157   0.736   2.049  0.00  0.00    +0.210 HD
ENDBRANCH  16  17
ENDBRANCH  14  16
ENDBRANCH   1  14
TORSDOF 5
