REMARK  Name = ZINC53200691
REMARK  5 active torsions:
REMARK  status: ('A' for Active; 'I' for Inactive)
REMARK    1  A    between atoms: C_4  and  N_19
REMARK    2  A    between atoms: C_5  and  C_7
REMARK    3  A    between atoms: C_7  and  C_8
REMARK    4  A    between atoms: C_10  and  C_13
REMARK    5  A    between atoms: C_13  and  C_14
REMARK                            x       y       z     vdW  Elec       q    Type
REMARK                         _______ _______ _______ _____ _____    ______ ____
ROOT
ATOM      1  C   UNL     1       1.370  -2.696   1.389  0.00  0.00    +0.232 A 
ATOM      2  N   UNL     1       0.391  -2.973   2.206  0.00  0.00    -0.195 NA
ATOM      3  C   UNL     1       0.877  -3.400   3.376  0.00  0.00    +0.177 A 
ATOM      4  N   UNL     1       2.178  -3.401   3.319  0.00  0.00    -0.061 NA
ATOM      5  O   UNL     1       2.525  -2.946   2.019  0.00  0.00    -0.338 OA
ENDROOT
BRANCH   1   6
ATOM      6  C   UNL     1       1.226  -2.187  -0.022  0.00  0.00    +0.135 C 
BRANCH   6  11
ATOM      7  C   UNL     1      -0.017   1.378   0.010  0.00  0.00    +0.000 A 
ATOM      8  C   UNL     1       1.170   2.089   0.002  0.00  0.00    +0.002 A 
ATOM      9  C   UNL     1       2.377   1.420  -0.013  0.00  0.00    +0.023 A 
ATOM     10  C   UNL     1       2.400   0.031  -0.021  0.00  0.00    +0.028 A 
ATOM     11  C   UNL     1       1.207  -0.680  -0.013  0.00  0.00    -0.018 A 
ATOM     12  C   UNL     1       0.002  -0.004   0.002  0.00  0.00    +0.006 A 
BRANCH  10  13
ATOM     13  N   UNL     1       3.620  -0.649  -0.036  0.00  0.00    -0.358 N 
ATOM     14  H   UNL     1       4.452  -0.152  -0.042  0.00  0.00    +0.142 HD
ATOM     15  H   UNL     1       3.634  -1.619  -0.042  0.00  0.00    +0.142 HD
ENDBRANCH  10  13
ENDBRANCH   6  11
ENDBRANCH   1   6
BRANCH   3  16
ATOM     16  C   UNL     1       0.053  -3.814   4.568  0.00  0.00    +0.122 C 
BRANCH  16  17
ATOM     17  C   UNL     1      -0.244  -5.290   4.486  0.00  0.00    -0.003 A 
ATOM     18  C   UNL     1       0.466  -6.332   4.981  0.00  0.00    +0.011 A 
ATOM     19  C   UNL     1      -0.003  -7.617   4.784  0.00  0.00    +0.008 A 
ATOM     20  C   UNL     1      -1.159  -7.797   4.100  0.00  0.00    +0.045 A 
ATOM     21  S   UNL     1      -1.627  -6.117   3.717  0.00  0.00    -0.101 S 
ENDBRANCH  16  17
ENDBRANCH   3  16
TORSDOF 5
