REMARK  Name = ZINC66438116
REMARK  5 active torsions:
REMARK  status: ('A' for Active; 'I' for Inactive)
REMARK    1  A    between atoms: C_1  and  C_2
REMARK    2  A    between atoms: N_11  and  C_14
REMARK    3  A    between atoms: C_14  and  C_16
REMARK    4  A    between atoms: C_14  and  C_17
REMARK    5  A    between atoms: C_23  and  C_26
REMARK                            x       y       z     vdW  Elec       q    Type
REMARK                         _______ _______ _______ _____ _____    ______ ____
ROOT
ATOM      1  C   UNL     1      -3.289  -5.481   3.011  0.00  0.00    +0.016 C 
ATOM      2  C   UNL     1      -2.691  -6.701   2.307  0.00  0.00    -0.004 C 
ENDROOT
BRANCH   1  13
ATOM      3  C   UNL     1      -4.265   1.827  -0.763  0.00  0.00    +0.066 C 
ATOM      4  C   UNL     1      -3.559   0.496  -0.757  0.00  0.00    +0.047 A 
ATOM      5  C   UNL     1      -3.467  -0.261  -1.877  0.00  0.00    +0.071 A 
ATOM      6  S   UNL     1      -2.553  -1.663  -1.257  0.00  0.00    -0.060 S 
ATOM      7  C   UNL     1      -2.387  -1.148   0.336  0.00  0.00    +0.161 A 
ATOM      8  N   UNL     1      -2.997   0.018   0.339  0.00  0.00    -0.230 NA
ATOM      9  N   UNL     1      -1.755  -1.792   1.388  0.00  0.00    -0.311 N 
ATOM     10  C   UNL     1      -1.741  -1.143   2.715  0.00  0.00    +0.105 C 
ATOM     11  C   UNL     1      -1.997  -2.167   3.835  0.00  0.00    +0.000 C 
ATOM     12  C   UNL     1      -3.060  -3.146   3.389  0.00  0.00    -0.076 C 
ATOM     13  N   UNL     1      -2.420  -4.316   2.794  0.00  0.00    +0.388 N 
ATOM     14  C   UNL     1      -2.153  -4.210   1.411  0.00  0.00    -0.059 C 
ATOM     15  C   UNL     1      -1.138  -3.080   1.149  0.00  0.00    +0.088 C 
ATOM     16  H   UNL     1      -1.548  -4.481   3.275  0.00  0.00    -0.081 HD
ENDBRANCH   1  13
BRANCH   1  17
ATOM     17  C   UNL     1      -3.399  -5.757   4.488  0.00  0.00    +0.202 C 
ATOM     18  O   UNL     1      -2.621  -5.240   5.262  0.00  0.00    -0.277 OA
ATOM     19  N   UNL     1      -4.363  -6.578   4.950  0.00  0.00    -0.302 N 
ATOM     20  C   UNL     1      -5.372  -7.135   4.039  0.00  0.00    +0.108 C 
ATOM     21  C   UNL     1      -5.387  -8.659   4.191  0.00  0.00    +0.020 C 
ATOM     22  C   UNL     1      -5.603  -9.018   5.663  0.00  0.00    +0.016 C 
ATOM     23  C   UNL     1      -4.450  -8.461   6.500  0.00  0.00    +0.092 C 
ATOM     24  C   UNL     1      -4.420  -6.939   6.373  0.00  0.00    +0.120 C 
BRANCH  23  25
ATOM     25  C   UNL     1      -4.646  -8.844   7.944  0.00  0.00    +0.215 C 
ATOM     26  O   UNL     1      -4.752  -7.982   8.791  0.00  0.00    -0.276 OA
ATOM     27  N   UNL     1      -4.703 -10.144   8.295  0.00  0.00    -0.329 N 
ATOM     28  H   UNL     1      -4.619 -10.833   7.618  0.00  0.00    +0.145 HD
ATOM     29  H   UNL     1      -4.829 -10.390   9.225  0.00  0.00    +0.145 HD
ENDBRANCH  23  25
ENDBRANCH   1  17
TORSDOF 3
