REMARK  Name = ZINC41719254
REMARK  7 active torsions:
REMARK  status: ('A' for Active; 'I' for Inactive)
REMARK    1  A    between atoms: C_1  and  C_2
REMARK    2  A    between atoms: C_2  and  C_3
REMARK    3  A    between atoms: C_2  and  C_4
REMARK    4  A    between atoms: C_4  and  N_5
REMARK    5  A    between atoms: N_5  and  C_6
REMARK    6  A    between atoms: N_5  and  C_7
REMARK    7  A    between atoms: C_16  and  C_17
REMARK                            x       y       z     vdW  Elec       q    Type
REMARK                         _______ _______ _______ _____ _____    ______ ____
ROOT
ATOM      1  C   UNL     1      -1.222  -2.377  -1.214  0.00  0.00    +0.054 A 
ATOM      2  C   UNL     1      -2.213  -2.725  -2.163  0.00  0.00    +0.020 A 
ATOM      3  C   UNL     1      -3.552  -2.897  -1.785  0.00  0.00    +0.012 A 
ATOM      4  C   UNL     1      -4.480  -3.232  -2.725  0.00  0.00    +0.001 A 
ATOM      5  C   UNL     1      -4.114  -3.406  -4.057  0.00  0.00    +0.002 A 
ATOM      6  C   UNL     1      -2.821  -3.246  -4.456  0.00  0.00    +0.026 A 
ATOM      7  C   UNL     1      -1.838  -2.901  -3.516  0.00  0.00    +0.048 A 
ATOM      8  N   UNL     1      -0.560  -2.737  -3.890  0.00  0.00    -0.360 N 
ATOM      9  C   UNL     1       0.377  -2.416  -3.037  0.00  0.00    +0.100 A 
ATOM     10  C   UNL     1       0.096  -2.217  -1.673  0.00  0.00    +0.101 A 
ATOM     11  H   UNL     1      -0.324  -2.863  -4.822  0.00  0.00    +0.165 HD
ENDROOT
BRANCH  10  12
ATOM     12  C   UNL     1       1.168  -1.850  -0.740  0.00  0.00    +0.390 C 
ATOM     13  O   UNL     1       2.329  -1.814  -1.126  0.00  0.00    -0.240 OA
ATOM     14  O   UNL     1       0.901  -1.580   0.423  0.00  0.00    -0.240 OA
ENDBRANCH  10  12
BRANCH   1  15
ATOM     15  N   UNL     1      -1.539  -2.197   0.112  0.00  0.00    -0.332 N 
ATOM     16  C   UNL     1      -2.070  -0.910   0.570  0.00  0.00    +0.129 C 
BRANCH  15  17
ATOM     17  C   UNL     1      -1.347  -3.291   1.067  0.00  0.00    +0.107 C 
BRANCH  17  19
ATOM     18  C   UNL     1      -2.396  -5.328   2.062  0.00  0.00    +0.009 C 
ATOM     19  C   UNL     1      -2.639  -4.103   1.179  0.00  0.00    +0.000 C 
ATOM     20  C   UNL     1      -3.734  -3.234   1.802  0.00  0.00    +0.009 C 
ENDBRANCH  17  19
ENDBRANCH  15  17
ENDBRANCH   1  15
TORSDOF 4
