REMARK  Name = ZINC21040598
REMARK  12 active torsions:
REMARK  status: ('A' for Active; 'I' for Inactive)
REMARK    1  A    between atoms: C_1  and  C_2
REMARK    2  A    between atoms: C_2  and  C_3
REMARK    3  A    between atoms: C_3  and  C_4
REMARK    4  A    between atoms: C_4  and  O_5
REMARK    5  A    between atoms: O_5  and  C_6
REMARK    6  A    between atoms: C_10  and  N_12
REMARK    7  A    between atoms: C_13  and  C_15
REMARK    8  A    between atoms: C_15  and  S_16
REMARK    9  A    between atoms: S_16  and  C_17
REMARK   10  A    between atoms: N_22  and  N_23
REMARK   11  A    between atoms: C_24  and  C_25
REMARK   12  A    between atoms: C_30  and  O_31
REMARK                            x       y       z     vdW  Elec       q    Type
REMARK                         _______ _______ _______ _____ _____    ______ ____
ROOT
ATOM      1  C   UNL     1       2.576   9.802   0.488  0.00  0.00    +0.211 A 
ATOM      2  N   UNL     1       3.585  10.716   0.596  0.00  0.00    -0.186 NA
ATOM      3  C   UNL     1       3.022  11.960   0.678  0.00  0.00    +0.232 A 
ATOM      4  N   UNL     1       1.720  11.819   0.623  0.00  0.00    -0.245 N 
ATOM      5  N   UNL     1       1.437  10.453   0.497  0.00  0.00    -0.144 NA
ATOM      6  N   UNL     1       3.709  13.159   0.799  0.00  0.00    -0.205 N 
ATOM      7  H   UNL     1       4.808  13.162   0.837  0.00  0.00    +0.177 HD
ATOM      8  H   UNL     1       1.069  12.704   0.678  0.00  0.00    +0.192 HD
ENDROOT
BRANCH   6   9
ATOM      9  N   UNL     1       3.002  14.366   0.874  0.00  0.00    -0.187 NA
ATOM     10  C   UNL     1       3.645  15.489   0.987  0.00  0.00    +0.142 C 
BRANCH  10  11
ATOM     11  C   UNL     1       2.901  16.759   1.065  0.00  0.00    +0.036 A 
ATOM     12  C   UNL     1       3.588  17.969   1.192  0.00  0.00    +0.013 A 
ATOM     13  C   UNL     1       2.887  19.154   1.259  0.00  0.00    +0.001 A 
ATOM     14  C   UNL     1       1.503  19.150   1.212  0.00  0.00    +0.004 A 
ATOM     15  C   UNL     1       0.811  17.959   1.092  0.00  0.00    +0.046 A 
ATOM     16  C   UNL     1       1.501  16.760   1.018  0.00  0.00    +0.125 A 
BRANCH  16  17
ATOM     17  O   UNL     1       0.822  15.589   0.899  0.00  0.00    -0.506 OA
ATOM     18  H   UNL     1      -0.278  15.592   0.862  0.00  0.00    +0.292 HD
ENDBRANCH  16  17
ENDBRANCH  10  11
ENDBRANCH   6   9
BRANCH   1  19
ATOM     19  S   UNL     1       2.770   8.056   0.353  0.00  0.00    -0.075 S 
BRANCH  19  20
ATOM     20  C   UNL     1       1.070   7.433   0.245  0.00  0.00    +0.173 C 
BRANCH  20  22
ATOM     21  N   UNL     1      -0.064   5.245   0.029  0.00  0.00    -0.285 N 
ATOM     22  C   UNL     1       1.092   5.931   0.124  0.00  0.00    +0.227 C 
ATOM     23  O   UNL     1       2.151   5.339   0.111  0.00  0.00    -0.275 OA
ATOM     24  H   UNL     1      -1.019   5.785  -0.046  0.00  0.00    +0.155 HD
BRANCH  21  29
ATOM     25  C   UNL     1      -0.969   1.756  -0.714  0.00  0.00    +0.122 A 
ATOM     26  C   UNL     1      -0.015   1.076   0.030  0.00  0.00    +0.046 A 
ATOM     27  C   UNL     1       0.920   1.778   0.765  0.00  0.00    +0.005 A 
ATOM     28  C   UNL     1       0.906   3.160   0.766  0.00  0.00    +0.023 A 
ATOM     29  C   UNL     1      -0.050   3.846   0.028  0.00  0.00    +0.037 A 
ATOM     30  C   UNL     1      -0.990   3.142  -0.711  0.00  0.00    +0.069 A 
BRANCH  25  31
ATOM     31  O   UNL     1      -1.885   1.064  -1.442  0.00  0.00    -0.492 OA
BRANCH  31  32
ATOM     32  C   UNL     1      -1.807  -0.362  -1.395  0.00  0.00    +0.229 C 
BRANCH  32  33
ATOM     33  C   UNL     1      -2.910  -0.962  -2.269  0.00  0.00    +0.041 C 
BRANCH  33  35
ATOM     34  C   UNL     1      -3.930  -3.089  -3.094  0.00  0.00    +0.004 C 
ATOM     35  C   UNL     1      -2.827  -2.489  -2.219  0.00  0.00    -0.000 C 
ENDBRANCH  33  35
ENDBRANCH  32  33
ENDBRANCH  31  32
ENDBRANCH  25  31
ENDBRANCH  21  29
ENDBRANCH  20  22
ENDBRANCH  19  20
ENDBRANCH   1  19
TORSDOF 11
