REMARK  Name = ZINC39861931
REMARK  9 active torsions:
REMARK  status: ('A' for Active; 'I' for Inactive)
REMARK    1  A    between atoms: C_1  and  C_2
REMARK    2  A    between atoms: C_5  and  C_8
REMARK    3  A    between atoms: C_8  and  O_9
REMARK    4  A    between atoms: O_9  and  C_10
REMARK    5  A    between atoms: C_15  and  C_16
REMARK    6  A    between atoms: N_20  and  C_24
REMARK    7  A    between atoms: C_24  and  C_26
REMARK    8  A    between atoms: C_24  and  C_30
REMARK    9  A    between atoms: C_26  and  C_27
REMARK                            x       y       z     vdW  Elec       q    Type
REMARK                         _______ _______ _______ _____ _____    ______ ____
ROOT
ATOM      1  C   UNL     1       4.070  -5.699  -0.051  0.00  0.00    +0.031 C 
ATOM      2  C   UNL     1       5.198  -6.044   0.620  0.00  0.00    +0.077 C 
ATOM      3  C   UNL     1       6.433  -5.266   0.847  0.00  0.00    +0.259 C 
ATOM      4  O   UNL     1       6.566  -4.136   0.412  0.00  0.00    -0.269 OA
ATOM      5  N   UNL     1       7.386  -5.857   1.546  0.00  0.00    -0.241 N 
ATOM      6  C   UNL     1       7.235  -7.109   2.026  0.00  0.00    +0.121 C 
ATOM      7  S   UNL     1       8.342  -8.037   2.944  0.00  0.00    -0.027 S 
ATOM      8  S   UNL     1       5.596  -7.560   1.478  0.00  0.00    -0.061 S 
ENDROOT
BRANCH   1  14
ATOM      9  C   UNL     1       1.716  -6.291  -0.613  0.00  0.00    +0.128 A 
ATOM     10  C   UNL     1       0.735  -7.244  -0.834  0.00  0.00    +0.046 A 
ATOM     11  C   UNL     1       1.036  -8.588  -0.722  0.00  0.00    +0.004 A 
ATOM     12  C   UNL     1       2.318  -8.995  -0.389  0.00  0.00    +0.001 A 
ATOM     13  C   UNL     1       3.308  -8.064  -0.166  0.00  0.00    +0.011 A 
ATOM     14  C   UNL     1       3.019  -6.699  -0.282  0.00  0.00    +0.018 A 
BRANCH   9  15
ATOM     15  O   UNL     1       1.422  -4.971  -0.723  0.00  0.00    -0.487 OA
BRANCH  15  16
ATOM     16  C   UNL     1       0.076  -4.632  -1.063  0.00  0.00    +0.264 C 
BRANCH  16  21
ATOM     17  C   UNL     1      -0.454   1.115  -1.355  0.00  0.00    +0.044 C 
ATOM     18  C   UNL     1      -0.315  -0.384  -1.278  0.00  0.00    -0.050 A 
ATOM     19  C   UNL     1       0.035  -1.104  -2.405  0.00  0.00    +0.004 A 
ATOM     20  C   UNL     1       0.161  -2.479  -2.336  0.00  0.00    +0.007 A 
ATOM     21  C   UNL     1      -0.061  -3.134  -1.139  0.00  0.00    -0.010 A 
ATOM     22  C   UNL     1      -0.410  -2.414  -0.011  0.00  0.00    +0.007 A 
ATOM     23  C   UNL     1      -0.533  -1.038  -0.080  0.00  0.00    +0.004 A 
ENDBRANCH  16  21
ENDBRANCH  15  16
ENDBRANCH   9  15
ENDBRANCH   1  14
BRANCH   5  24
ATOM     24  C   UNL     1       8.636  -5.138   1.805  0.00  0.00    +0.204 C 
BRANCH  24  25
ATOM     25  C   UNL     1       9.790  -5.907   1.216  0.00  0.00    +0.377 C 
ATOM     26  O   UNL     1      10.779  -5.315   0.821  0.00  0.00    -0.244 OA
ATOM     27  O   UNL     1       9.734  -7.123   1.135  0.00  0.00    -0.244 OA
ENDBRANCH  24  25
BRANCH  24  28
ATOM     28  C   UNL     1       8.837  -4.993   3.315  0.00  0.00    +0.130 C 
BRANCH  28  29
ATOM     29  C   UNL     1       7.749  -4.120   3.885  0.00  0.00    +0.213 C 
ATOM     30  O   UNL     1       6.896  -3.659   3.155  0.00  0.00    -0.276 OA
ATOM     31  N   UNL     1       7.723  -3.851   5.205  0.00  0.00    -0.329 N 
ATOM     32  H   UNL     1       8.405  -4.219   5.789  0.00  0.00    +0.145 HD
ATOM     33  H   UNL     1       7.022  -3.289   5.572  0.00  0.00    +0.145 HD
ENDBRANCH  28  29
ENDBRANCH  24  28
ENDBRANCH   5  24
TORSDOF 8
