REMARK  Name = ZINC54498013
REMARK  5 active torsions:
REMARK  status: ('A' for Active; 'I' for Inactive)
REMARK    1  A    between atoms: C_1  and  C_2
REMARK    2  A    between atoms: C_2  and  C_3
REMARK    3  A    between atoms: C_3  and  N_4
REMARK    4  A    between atoms: C_8  and  C_9
REMARK    5  A    between atoms: C_14  and  N_15
REMARK                            x       y       z     vdW  Elec       q    Type
REMARK                         _______ _______ _______ _____ _____    ______ ____
ROOT
ATOM      1  C   UNL     1      -0.949  -2.415   2.470  0.00  0.00    +0.043 A 
ATOM      2  C   UNL     1      -1.791  -1.493   3.093  0.00  0.00    +0.033 A 
ATOM      3  C   UNL     1      -1.551  -1.112   4.397  0.00  0.00    +0.043 A 
ATOM      4  C   UNL     1      -0.475  -1.641   5.093  0.00  0.00    +0.042 A 
ATOM      5  C   UNL     1       0.366  -2.554   4.487  0.00  0.00    +0.064 A 
ATOM      6  C   UNL     1       0.134  -2.953   3.178  0.00  0.00    +0.054 A 
ATOM      7 CL   UNL     1       1.711  -3.210   5.368  0.00  0.00    -0.082 Cl
ATOM      8 CL   UNL     1      -2.600   0.036   5.170  0.00  0.00    -0.083 Cl
ENDROOT
BRANCH   1  13
ATOM      9  N   UNL     1      -1.437  -1.999   0.009  0.00  0.00    -0.313 N 
ATOM     10  C   UNL     1      -1.609  -2.817  -1.066  0.00  0.00    +0.225 A 
ATOM     11  N   UNL     1      -1.485  -4.047  -0.646  0.00  0.00    -0.138 NA
ATOM     12  N   UNL     1      -1.248  -4.060   0.618  0.00  0.00    -0.129 NA
ATOM     13  C   UNL     1      -1.202  -2.828   1.073  0.00  0.00    +0.166 A 
BRANCH   9  14
ATOM     14  C   UNL     1      -1.488  -0.535   0.023  0.00  0.00    +0.124 C 
BRANCH  14  16
ATOM     15  C   UNL     1      -0.119   1.554  -0.051  0.00  0.00    +0.005 C 
ATOM     16  C   UNL     1      -0.067   0.025  -0.066  0.00  0.00    +0.018 C 
ENDBRANCH  14  16
ENDBRANCH   9  14
ENDBRANCH   1  13
BRANCH   6  17
ATOM     17  N   UNL     1       0.979  -3.879   2.567  0.00  0.00    -0.356 N 
ATOM     18  H   UNL     1       0.818  -4.153   1.650  0.00  0.00    +0.142 HD
ATOM     19  H   UNL     1       1.729  -4.250   3.058  0.00  0.00    +0.142 HD
ENDBRANCH   6  17
TORSDOF 4
