REMARK  Name = ZINC40399303
REMARK  4 active torsions:
REMARK  status: ('A' for Active; 'I' for Inactive)
REMARK    1  A    between atoms: C_3  and  N_10
REMARK    2  A    between atoms: C_5  and  N_7
REMARK    3  A    between atoms: C_11  and  C_13
REMARK    4  A    between atoms: N_27  and  C_28
REMARK                            x       y       z     vdW  Elec       q    Type
REMARK                         _______ _______ _______ _____ _____    ______ ____
ROOT
ATOM      1  C   UNL     1       4.179   4.128  -0.209  0.00  0.00    +0.122 C 
ATOM      2  C   UNL     1       4.907   3.748   1.082  0.00  0.00    +0.114 C 
ATOM      3  C   UNL     1       4.321   4.517   2.238  0.00  0.00    +0.219 C 
ATOM      4  O   UNL     1       4.209   3.980   3.320  0.00  0.00    -0.275 OA
ATOM      5  N   UNL     1       3.922   5.790   2.083  0.00  0.00    -0.270 N 
ATOM      6  C   UNL     1       3.939   6.395   0.838  0.00  0.00    +0.138 A 
ATOM      7  C   UNL     1       4.074   5.626  -0.305  0.00  0.00    +0.069 A 
ATOM      8  C   UNL     1       4.110   6.261  -1.551  0.00  0.00    +0.258 A 
ATOM      9  O   UNL     1       4.239   5.612  -2.576  0.00  0.00    -0.267 OA
ATOM     10  N   UNL     1       3.999   7.606  -1.596  0.00  0.00    -0.295 N 
ATOM     11  H   UNL     1       4.037   8.067  -2.448  0.00  0.00    +0.172 HD
ATOM     12  C   UNL     1       3.833   8.314  -0.445  0.00  0.00    +0.202 A 
ATOM     13  N   UNL     1       3.801   7.721   0.729  0.00  0.00    -0.200 NA
ATOM     14  N   UNL     1       3.696   9.677  -0.511  0.00  0.00    -0.285 N 
ATOM     15  H   UNL     1       3.616   6.293   2.854  0.00  0.00    +0.156 HD
ATOM     16  H   UNL     1       3.640  10.117  -1.374  0.00  0.00    +0.155 HD
ENDROOT
BRANCH  14  17
ATOM     17  C   UNL     1       3.635  10.432   0.665  0.00  0.00    +0.034 A 
ATOM     18  C   UNL     1       4.356  10.035   1.784  0.00  0.00    +0.025 A 
ATOM     19  C   UNL     1       4.295  10.782   2.944  0.00  0.00    +0.022 A 
ATOM     20  C   UNL     1       3.516  11.925   2.992  0.00  0.00    +0.041 A 
ATOM     21  C   UNL     1       2.797  12.322   1.879  0.00  0.00    +0.022 A 
ATOM     22  C   UNL     1       2.860  11.582   0.714  0.00  0.00    +0.025 A 
ATOM     23 CL   UNL     1       3.441  12.861   4.452  0.00  0.00    -0.084 Cl
ENDBRANCH  14  17
BRANCH   1  25
ATOM     24  N   UNL     1       2.644   2.190  -0.122  0.00  0.00    -0.285 N 
ATOM     25  C   UNL     1       2.797   3.527  -0.202  0.00  0.00    +0.225 C 
ATOM     26  O   UNL     1       1.823   4.246  -0.268  0.00  0.00    -0.275 OA
ATOM     27  H   UNL     1       3.419   1.620  -0.000  0.00  0.00    +0.155 HD
BRANCH  24  30
ATOM     28  C   UNL     1      -0.069  -0.153  -0.938  0.00  0.00    +0.004 A 
ATOM     29  C   UNL     1       1.192   0.402  -0.848  0.00  0.00    +0.023 A 
ATOM     30  C   UNL     1       1.368   1.625  -0.215  0.00  0.00    +0.036 A 
ATOM     31  C   UNL     1       0.273   2.287   0.327  0.00  0.00    +0.056 A 
ATOM     32  C   UNL     1      -0.986   1.726   0.234  0.00  0.00    +0.128 A 
ATOM     33  C   UNL     1      -1.157   0.508  -0.397  0.00  0.00    +0.033 A 
BRANCH  32  34
ATOM     34  N   UNL     1      -2.153   2.430   0.811  0.00  0.00    +0.056 N 
ATOM     35  O   UNL     1      -2.004   3.495   1.363  0.00  0.00    -0.126 OA
ATOM     36  O   UNL     1      -3.255   1.940   0.730  0.00  0.00    -0.126 OA
ENDBRANCH  32  34
ENDBRANCH  24  30
ENDBRANCH   1  25
TORSDOF 4
