REMARK  Name = ZINC09877297
REMARK  7 active torsions:
REMARK  status: ('A' for Active; 'I' for Inactive)
REMARK    1  A    between atoms: C_1  and  C_2
REMARK    2  A    between atoms: C_2  and  C_4
REMARK    3  A    between atoms: C_2  and  N_14
REMARK    4  A    between atoms: C_15  and  C_17
REMARK    5  A    between atoms: C_17  and  S_18
REMARK    6  A    between atoms: S_18  and  C_19
REMARK    7  A    between atoms: C_25  and  N_27
REMARK                            x       y       z     vdW  Elec       q    Type
REMARK                         _______ _______ _______ _____ _____    ______ ____
ROOT
ATOM      1  N   UNL     1      -2.103   1.072   1.277  0.00  0.00    -0.308 N 
ATOM      2  C   UNL     1      -2.365  -0.156   1.766  0.00  0.00    +0.224 C 
ATOM      3  O   UNL     1      -1.462  -0.842   2.198  0.00  0.00    -0.275 OA
ATOM      4  H   UNL     1      -2.825   1.620   0.932  0.00  0.00    +0.149 HD
ENDROOT
BRANCH   1   6
ATOM      5  C   UNL     1      -0.013   1.086   0.008  0.00  0.00    +0.033 C 
ATOM      6  C   UNL     1      -0.729   1.579   1.267  0.00  0.00    +0.100 C 
BRANCH   6   7
ATOM      7  C   UNL     1      -0.749   3.086   1.275  0.00  0.00    -0.027 A 
ATOM      8  C   UNL     1      -1.679   3.772   0.514  0.00  0.00    +0.006 A 
ATOM      9  C   UNL     1      -1.693   5.151   0.530  0.00  0.00    +0.004 A 
ATOM     10  C   UNL     1      -0.773   5.858   1.294  0.00  0.00    -0.044 A 
ATOM     11  C   UNL     1       0.153   5.175   2.050  0.00  0.00    -0.044 A 
ATOM     12  C   UNL     1       0.163   3.786   2.037  0.00  0.00    +0.009 A 
ATOM     13  C   UNL     1       1.173   5.876   2.909  0.00  0.00    +0.035 C 
ATOM     14  C   UNL     1       1.315   7.338   2.490  0.00  0.00    +0.005 C 
ATOM     15  C   UNL     1      -0.083   7.964   2.437  0.00  0.00    +0.005 C 
ATOM     16  C   UNL     1      -0.836   7.362   1.253  0.00  0.00    +0.035 C 
ENDBRANCH   6   7
ENDBRANCH   1   6
BRANCH   2  17
ATOM     17  C   UNL     1      -3.779  -0.678   1.777  0.00  0.00    +0.173 C 
BRANCH  17  18
ATOM     18  S   UNL     1      -3.802  -2.341   2.490  0.00  0.00    -0.078 S 
BRANCH  18  19
ATOM     19  C   UNL     1      -5.525  -2.696   2.382  0.00  0.00    +0.171 A 
ATOM     20  N   UNL     1      -5.988  -3.899   2.823  0.00  0.00    -0.302 N 
ATOM     21  H   UNL     1      -5.370  -4.549   3.192  0.00  0.00    +0.171 HD
ATOM     22  C   UNL     1      -7.305  -4.185   2.752  0.00  0.00    +0.254 A 
ATOM     23  O   UNL     1      -7.729  -5.259   3.150  0.00  0.00    -0.268 OA
ATOM     24  C   UNL     1      -8.175  -3.234   2.211  0.00  0.00    +0.113 A 
ATOM     25  C   UNL     1      -7.652  -2.026   1.771  0.00  0.00    +0.124 A 
ATOM     26  N   UNL     1      -6.338  -1.795   1.871  0.00  0.00    -0.209 NA
BRANCH  25  27
ATOM     27  N   UNL     1      -8.485  -1.066   1.232  0.00  0.00    -0.343 N 
ATOM     28  H   UNL     1      -8.118  -0.222   0.925  0.00  0.00    +0.144 HD
ATOM     29  H   UNL     1      -9.438  -1.235   1.161  0.00  0.00    +0.144 HD
ENDBRANCH  25  27
ENDBRANCH  18  19
ENDBRANCH  17  18
ENDBRANCH   2  17
TORSDOF 6
