REMARK  Name = ZINC65004020
REMARK  11 active torsions:
REMARK  status: ('A' for Active; 'I' for Inactive)
REMARK    1  A    between atoms: C_1  and  C_2
REMARK    2  A    between atoms: C_3  and  N_11
REMARK    3  A    between atoms: C_4  and  C_10
REMARK    4  A    between atoms: N_5  and  C_7
REMARK    5  A    between atoms: C_7  and  C_8
REMARK    6  A    between atoms: C_7  and  C_9
REMARK    7  A    between atoms: C_12  and  C_14
REMARK    8  A    between atoms: C_14  and  C_15
REMARK    9  A    between atoms: C_15  and  C_16
REMARK   10  A    between atoms: C_16  and  N_17
REMARK   11  A    between atoms: N_20  and  C_21
REMARK                            x       y       z     vdW  Elec       q    Type
REMARK                         _______ _______ _______ _____ _____    ______ ____
ROOT
ATOM      1  C   UNL     1      -0.110   1.391  -4.190  0.00  0.00    +0.097 C 
ENDROOT
BRANCH   1   3
ATOM      2  N   UNL     1      -0.220  -0.378  -2.465  0.00  0.00    -0.283 N 
ATOM      3  C   UNL     1       0.133   0.881  -2.793  0.00  0.00    +0.217 C 
ATOM      4  O   UNL     1       0.646   1.603  -1.964  0.00  0.00    -0.275 OA
ATOM      5  H   UNL     1      -0.572  -0.975  -3.143  0.00  0.00    +0.155 HD
BRANCH   2   8
ATOM      6  C   UNL     1      -2.006   0.554  -0.088  0.00  0.00    +0.069 C 
ATOM      7  C   UNL     1      -0.863  -0.427  -0.044  0.00  0.00    +0.081 A 
ATOM      8  C   UNL     1      -0.079  -0.824  -1.137  0.00  0.00    +0.077 A 
ATOM      9  C   UNL     1       0.841  -1.716  -0.688  0.00  0.00    +0.058 A 
ATOM     10  N   UNL     1       0.640  -1.874   0.646  0.00  0.00    -0.264 N 
ATOM     11  N   UNL     1      -0.429  -1.051   1.021  0.00  0.00    -0.174 NA
ATOM     12  C   UNL     1       1.893  -2.405  -1.518  0.00  0.00    +0.067 C 
BRANCH  10  13
ATOM     13  C   UNL     1       1.409  -2.747   1.536  0.00  0.00    +0.101 C 
ATOM     14  C   UNL     1       2.065  -1.907   2.634  0.00  0.00    +0.032 C 
ATOM     15  C   UNL     1       0.474  -3.777   2.173  0.00  0.00    +0.032 C 
ENDBRANCH  10  13
ENDBRANCH   2   8
ENDBRANCH   1   3
BRANCH   1  16
ATOM     16  C   UNL     1       0.378   2.837  -4.297  0.00  0.00    +0.028 C 
BRANCH  16  17
ATOM     17  C   UNL     1       0.132   3.355  -5.716  0.00  0.00    +0.106 C 
BRANCH  17  18
ATOM     18  N   UNL     1       0.599   4.740  -5.818  0.00  0.00    -0.299 N 
ATOM     19  C   UNL     1       0.483   5.406  -6.984  0.00  0.00    +0.300 C 
ATOM     20  O   UNL     1      -0.009   4.858  -7.951  0.00  0.00    -0.253 OA
ATOM     21  N   UNL     1       0.913   6.680  -7.078  0.00  0.00    -0.297 N 
ATOM     22  H   UNL     1       0.993   5.177  -5.046  0.00  0.00    +0.150 HD
ATOM     23  H   UNL     1       1.307   7.117  -6.306  0.00  0.00    +0.151 HD
BRANCH  21  24
ATOM     24  C   UNL     1       0.787   7.404  -8.345  0.00  0.00    +0.074 C 
ATOM     25  C   UNL     1       1.990   7.087  -9.236  0.00  0.00    +0.022 C 
ATOM     26  C   UNL     1       1.859   7.843 -10.559  0.00  0.00    +0.002 C 
ATOM     27  C   UNL     1       1.810   9.347 -10.285  0.00  0.00    +0.000 C 
ATOM     28  C   UNL     1       0.607   9.664  -9.394  0.00  0.00    +0.002 C 
ATOM     29  C   UNL     1       0.739   8.908  -8.071  0.00  0.00    +0.022 C 
ENDBRANCH  21  24
ENDBRANCH  17  18
ENDBRANCH  16  17
ENDBRANCH   1  16
TORSDOF 7
