REMARK  Name = ZINC04988457
REMARK  6 active torsions:
REMARK  status: ('A' for Active; 'I' for Inactive)
REMARK    1  A    between atoms: C_1  and  C_2
REMARK    2  A    between atoms: C_2  and  C_3
REMARK    3  A    between atoms: N_5  and  C_6
REMARK    4  A    between atoms: C_8  and  C_23
REMARK    5  A    between atoms: C_9  and  O_22
REMARK    6  A    between atoms: C_10  and  C_12
REMARK                            x       y       z     vdW  Elec       q    Type
REMARK                         _______ _______ _______ _____ _____    ______ ____
ROOT
ATOM      1  C   UNL     1       1.574  -2.310  -2.549  0.00  0.00    +0.035 A 
ATOM      2  C   UNL     1       2.186  -1.430  -3.435  0.00  0.00    +0.030 A 
ATOM      3  C   UNL     1       2.904  -1.913  -4.511  0.00  0.00    -0.007 A 
ATOM      4  C   UNL     1       3.019  -3.279  -4.715  0.00  0.00    +0.132 A 
ATOM      5  C   UNL     1       2.406  -4.171  -3.827  0.00  0.00    +0.080 A 
ATOM      6  C   UNL     1       1.686  -3.677  -2.738  0.00  0.00    +0.040 A 
ATOM      7  C   UNL     1       3.564  -0.952  -5.466  0.00  0.00    +0.047 C 
ENDROOT
BRANCH   5   8
ATOM      8  C   UNL     1       2.524  -5.627  -4.039  0.00  0.00    +0.232 A 
ATOM      9  N   UNL     1       3.183  -6.192  -5.020  0.00  0.00    -0.209 NA
ATOM     10  C   UNL     1       3.075  -7.541  -4.898  0.00  0.00    +0.111 A 
ATOM     11  C   UNL     1       3.563  -8.618  -5.642  0.00  0.00    +0.051 A 
ATOM     12  C   UNL     1       3.273  -9.906  -5.250  0.00  0.00    +0.043 A 
ATOM     13  C   UNL     1       2.498 -10.139  -4.121  0.00  0.00    +0.024 A 
ATOM     14  C   UNL     1       2.010  -9.085  -3.378  0.00  0.00    +0.050 A 
ATOM     15  C   UNL     1       2.293  -7.782  -3.757  0.00  0.00    +0.156 A 
ATOM     16  O   UNL     1       1.975  -6.570  -3.249  0.00  0.00    -0.435 OA
ATOM     17 CL   UNL     1       3.878 -11.246  -6.172  0.00  0.00    -0.083 Cl
ENDBRANCH   5   8
BRANCH   1  20
ATOM     18  C   UNL     1      -0.236  -2.478  -1.011  0.00  0.00    +0.217 C 
ATOM     19  O   UNL     1      -0.638  -3.454  -1.608  0.00  0.00    -0.275 OA
ATOM     20  N   UNL     1       0.847  -1.812  -1.460  0.00  0.00    -0.285 N 
ATOM     21  H   UNL     1       1.123  -0.989  -1.028  0.00  0.00    +0.155 HD
BRANCH  18  23
ATOM     22  C   UNL     1      -2.134  -2.932   0.519  0.00  0.00    +0.013 C 
ATOM     23  C   UNL     1      -0.948  -2.009   0.232  0.00  0.00    +0.093 C 
ENDBRANCH  18  23
ENDBRANCH   1  20
BRANCH   4  24
ATOM     24  O   UNL     1       3.726  -3.751  -5.775  0.00  0.00    -0.506 OA
ATOM     25  H   UNL     1       4.663  -3.900  -5.588  0.00  0.00    +0.292 HD
ENDBRANCH   4  24
TORSDOF 4
