REMARK  Name = ZINC01465025
REMARK  2 active torsions:
REMARK  status: ('A' for Active; 'I' for Inactive)
REMARK    1  A    between atoms: N_10  and  N_11
REMARK    2  A    between atoms: C_12  and  C_13
REMARK                            x       y       z     vdW  Elec       q    Type
REMARK                         _______ _______ _______ _____ _____    ______ ____
ROOT
ATOM      1  C   UNL     1       1.175   1.793   0.001  0.00  0.00    +0.002 A 
ATOM      2  C   UNL     1      -0.013   1.076   0.008  0.00  0.00    +0.001 A 
ATOM      3  C   UNL     1      -1.216   1.758   0.017  0.00  0.00    +0.017 A 
ATOM      4  C   UNL     1      -1.216   3.130   0.029  0.00  0.00    +0.041 A 
ATOM      5  C   UNL     1      -0.026   3.894   0.022  0.00  0.00    +0.080 A 
ATOM      6  C   UNL     1       1.184   3.163   0.007  0.00  0.00    +0.029 A 
ATOM      7  N   UNL     1      -0.191   5.234   0.031  0.00  0.00    -0.224 NA
ATOM      8  C   UNL     1      -1.377   5.799   0.045  0.00  0.00    +0.179 A 
ATOM      9  S   UNL     1      -2.472   4.387   0.048  0.00  0.00    -0.051 S 
ATOM     10  N   UNL     1      -1.697   7.143   0.055  0.00  0.00    -0.215 N 
ATOM     11  H   UNL     1      -0.992   7.809   0.051  0.00  0.00    +0.176 HD
ENDROOT
BRANCH  10  12
ATOM     12  N   UNL     1      -3.039   7.543   0.070  0.00  0.00    -0.189 NA
ATOM     13  C   UNL     1      -3.335   8.789   0.079  0.00  0.00    +0.158 C 
BRANCH  13  14
ATOM     14  C   UNL     1      -4.779   9.220   0.095  0.00  0.00    +0.227 C 
ATOM     15 CL   UNL     1      -5.841   7.763   0.098  0.00  0.00    -0.077 Cl
ATOM     16 CL   UNL     1      -5.098  10.199   1.575  0.00  0.00    -0.077 Cl
ATOM     17 CL   UNL     1      -5.126  10.213  -1.369  0.00  0.00    -0.077 Cl
ENDBRANCH  13  14
ENDBRANCH  10  12
TORSDOF 2
