REMARK  Name = ZINC39029451
REMARK  6 active torsions:
REMARK  status: ('A' for Active; 'I' for Inactive)
REMARK    1  A    between atoms: N_9  and  C_14
REMARK    2  A    between atoms: C_10  and  O_13
REMARK    3  A    between atoms: C_14  and  C_15
REMARK    4  A    between atoms: C_15  and  C_16
REMARK    5  A    between atoms: C_16  and  C_17
REMARK    6  A    between atoms: C_17  and  N_19
REMARK                            x       y       z     vdW  Elec       q    Type
REMARK                         _______ _______ _______ _____ _____    ______ ____
ROOT
ATOM      1  C   UNL     1       2.947  -4.600  -1.295  0.00  0.00    +0.028 C 
ENDROOT
BRANCH   1   2
ATOM      2  C   UNL     1       2.540  -4.210   0.128  0.00  0.00    +0.112 C 
BRANCH   2  11
ATOM      3  C   UNL     1      -0.116   1.342  -0.011  0.00  0.00    +0.001 A 
ATOM      4  C   UNL     1       1.060   2.075  -0.018  0.00  0.00    +0.002 A 
ATOM      5  C   UNL     1       2.286   1.436  -0.030  0.00  0.00    +0.024 A 
ATOM      6  C   UNL     1       2.337   0.052  -0.034  0.00  0.00    +0.042 A 
ATOM      7  C   UNL     1       1.145  -0.694  -0.029  0.00  0.00    +0.058 A 
ATOM      8  C   UNL     1      -0.083  -0.037  -0.016  0.00  0.00    +0.015 A 
ATOM      9  C   UNL     1       1.238  -2.165  -0.043  0.00  0.00    +0.251 C 
ATOM     10  O   UNL     1       0.258  -2.841  -0.290  0.00  0.00    -0.270 OA
ATOM     11  N   UNL     1       2.424  -2.753   0.220  0.00  0.00    -0.256 N 
ATOM     12  C   UNL     1       3.595  -1.962   0.597  0.00  0.00    +0.299 C 
ATOM     13  N   UNL     1       3.542  -0.640  -0.040  0.00  0.00    -0.303 N 
ATOM     14  H   UNL     1       4.331  -0.258  -0.456  0.00  0.00    +0.150 HD
BRANCH  12  15
ATOM     15  O   UNL     1       3.619  -1.799   2.016  0.00  0.00    -0.359 OA
ATOM     16  H   UNL     1       4.370  -1.283   2.340  0.00  0.00    +0.213 HD
ENDBRANCH  12  15
ENDBRANCH   2  11
ENDBRANCH   1   2
BRANCH   1  17
ATOM     17  C   UNL     1       3.069  -6.122  -1.391  0.00  0.00    +0.099 C 
BRANCH  17  18
ATOM     18  C   UNL     1       3.470  -6.506  -2.792  0.00  0.00    +0.239 C 
ATOM     19  O   UNL     1       3.643  -5.645  -3.633  0.00  0.00    -0.274 OA
BRANCH  18  20
ATOM     20  N   UNL     1       3.636  -7.787  -3.109  0.00  0.00    -0.147 NA
ATOM     21  C   UNL     1       3.888  -8.133  -4.369  0.00  0.00    +0.198 A 
ATOM     22  N   UNL     1       4.112  -7.269  -5.393  0.00  0.00    -0.326 N 
ATOM     23  H   UNL     1       4.116  -6.301  -5.329  0.00  0.00    +0.169 HD
ATOM     24  C   UNL     1       4.335  -8.011  -6.548  0.00  0.00    +0.065 A 
ATOM     25  C   UNL     1       4.610  -7.658  -7.862  0.00  0.00    +0.028 A 
ATOM     26  C   UNL     1       4.787  -8.641  -8.815  0.00  0.00    +0.002 A 
ATOM     27  C   UNL     1       4.693  -9.977  -8.466  0.00  0.00    +0.002 A 
ATOM     28  C   UNL     1       4.420 -10.339  -7.162  0.00  0.00    +0.028 A 
ATOM     29  C   UNL     1       4.240  -9.359  -6.197  0.00  0.00    +0.065 A 
ATOM     30  N   UNL     1       3.966  -9.408  -4.833  0.00  0.00    -0.326 N 
ATOM     31  H   UNL     1       3.850 -10.213  -4.306  0.00  0.00    +0.169 HD
ENDBRANCH  18  20
ENDBRANCH  17  18
ENDBRANCH   1  17
TORSDOF 6
