REMARK  Name = ZINC32810869
REMARK  10 active torsions:
REMARK  status: ('A' for Active; 'I' for Inactive)
REMARK    1  A    between atoms: C_1  and  C_2
REMARK    2  A    between atoms: C_4  and  O_5
REMARK    3  A    between atoms: N_13  and  C_14
REMARK    4  A    between atoms: C_14  and  C_16
REMARK    5  A    between atoms: C_14  and  C_17
REMARK    6  A    between atoms: N_19  and  C_20
REMARK    7  A    between atoms: C_23  and  C_26
REMARK    8  A    between atoms: N_28  and  C_29
REMARK    9  A    between atoms: C_34  and  O_35
REMARK   10  A    between atoms: O_35  and  C_36
REMARK                            x       y       z     vdW  Elec       q    Type
REMARK                         _______ _______ _______ _____ _____    ______ ____
ROOT
ATOM      1  C   UNL     1       0.063   5.566   0.588  0.00  0.00    +0.239 C 
ATOM      2  O   UNL     1       1.162   5.936   0.942  0.00  0.00    -0.273 OA
ATOM      3  N   UNL     1      -1.000   6.383   0.726  0.00  0.00    -0.284 N 
ATOM      4  H   UNL     1      -1.978   6.086   0.318  0.00  0.00    +0.155 HD
ENDROOT
BRANCH   3   5
ATOM      5  C   UNL     1      -0.861   7.603   1.385  0.00  0.00    +0.033 A 
ATOM      6  C   UNL     1       0.134   7.764   2.345  0.00  0.00    +0.024 A 
ATOM      7  C   UNL     1       0.278   8.969   2.995  0.00  0.00    +0.015 A 
ATOM      8  C   UNL     1      -0.584  10.028   2.697  0.00  0.00    +0.037 A 
ATOM      9  C   UNL     1      -1.585   9.862   1.736  0.00  0.00    +0.015 A 
ATOM     10  C   UNL     1      -1.720   8.656   1.086  0.00  0.00    +0.024 A 
BRANCH   8  11
ATOM     11  C   UNL     1      -0.436  11.320   3.395  0.00  0.00    +0.248 C 
ATOM     12  O   UNL     1      -1.186  12.242   3.134  0.00  0.00    -0.270 OA
ATOM     13  N   UNL     1       0.530  11.479   4.321  0.00  0.00    -0.279 N 
ATOM     14  H   UNL     1       1.256  10.673   4.503  0.00  0.00    +0.155 HD
BRANCH  13  15
ATOM     15  C   UNL     1       0.609  12.671   5.053  0.00  0.00    +0.076 A 
ATOM     16  C   UNL     1       0.278  13.878   4.455  0.00  0.00    +0.027 A 
ATOM     17  C   UNL     1       0.352  15.051   5.181  0.00  0.00    +0.002 A 
ATOM     18  C   UNL     1       0.766  15.027   6.500  0.00  0.00    +0.004 A 
ATOM     19  C   UNL     1       1.102  13.829   7.101  0.00  0.00    +0.047 A 
ATOM     20  C   UNL     1       1.026  12.647   6.382  0.00  0.00    +0.141 A 
BRANCH  20  21
ATOM     21  O   UNL     1       1.357  11.468   6.972  0.00  0.00    -0.493 OA
ATOM     22  C   UNL     1       1.776  11.520   8.338  0.00  0.00    +0.277 C 
ENDBRANCH  20  21
ENDBRANCH  13  15
ENDBRANCH   8  11
ENDBRANCH   3   5
BRANCH   1  23
ATOM     23  C   UNL     1      -0.114   4.192  -0.006  0.00  0.00    +0.163 C 
ATOM     24  C   UNL     1      -0.670   4.318  -1.426  0.00  0.00    +0.040 C 
BRANCH  23  36
ATOM     25  C   UNL     1       0.125  -2.943  -0.009  0.00  0.00    +0.045 C 
ATOM     26  C   UNL     1       1.381  -2.111  -0.050  0.00  0.00    -0.033 A 
ATOM     27  C   UNL     1       2.606  -2.698  -0.090  0.00  0.00    +0.091 A 
ATOM     28  C   UNL     1       3.765  -1.898  -0.128  0.00  0.00    +0.285 A 
ATOM     29  O   UNL     1       3.698  -0.557  -0.126  0.00  0.00    -0.425 OA
ATOM     30  C   UNL     1       2.513   0.088  -0.088  0.00  0.00    +0.141 A 
ATOM     31  C   UNL     1       1.314  -0.649  -0.049  0.00  0.00    +0.021 A 
ATOM     32  C   UNL     1       0.083   0.016  -0.009  0.00  0.00    +0.014 A 
ATOM     33  C   UNL     1       0.048   1.379  -0.009  0.00  0.00    +0.026 A 
ATOM     34  C   UNL     1       1.232   2.116  -0.048  0.00  0.00    +0.039 A 
ATOM     35  C   UNL     1       2.461   1.473  -0.087  0.00  0.00    +0.072 A 
ATOM     36  N   UNL     1       1.180   3.507  -0.047  0.00  0.00    -0.374 N 
ATOM     37  H   UNL     1       2.111   4.092  -0.078  0.00  0.00    +0.160 HD
BRANCH  28  38
ATOM     38  O   UNL     1       4.857  -2.437  -0.163  0.00  0.00    -0.480 OA
ATOM     39  H   UNL     1       5.771  -1.827  -0.193  0.00  0.00    +0.295 HD
ENDBRANCH  28  38
ENDBRANCH  23  36
ENDBRANCH   1  23
TORSDOF 7
