REMARK  Name = ZINC66196919
REMARK  13 active torsions:
REMARK  status: ('A' for Active; 'I' for Inactive)
REMARK    1  A    between atoms: C_1  and  C_2
REMARK    2  A    between atoms: C_2  and  C_3
REMARK    3  A    between atoms: C_3  and  C_5
REMARK    4  A    between atoms: C_3  and  N_6
REMARK    5  A    between atoms: N_6  and  C_7
REMARK    6  A    between atoms: N_6  and  C_8
REMARK    7  A    between atoms: C_8  and  C_9
REMARK    8  A    between atoms: C_9  and  N_10
REMARK    9  A    between atoms: N_13  and  C_14
REMARK   10  A    between atoms: C_16  and  C_21
REMARK   11  A    between atoms: C_19  and  C_20
REMARK   12  A    between atoms: N_23  and  C_24
REMARK   13  A    between atoms: C_24  and  C_25
REMARK                            x       y       z     vdW  Elec       q    Type
REMARK                         _______ _______ _______ _____ _____    ______ ____
ROOT
ATOM      1  C   UNL     1       6.896   5.382   1.065  0.00  0.00    +0.038 A 
ATOM      2  C   UNL     1       8.023   4.602   1.274  0.00  0.00    +0.036 A 
ATOM      3  C   UNL     1       9.290   5.149   1.075  0.00  0.00    +0.038 A 
ATOM      4  C   UNL     1       9.416   6.477   0.665  0.00  0.00    +0.013 A 
ATOM      5  C   UNL     1       8.288   7.245   0.459  0.00  0.00    +0.006 A 
ATOM      6  C   UNL     1       7.031   6.702   0.652  0.00  0.00    -0.029 A 
ATOM      7  C   UNL     1       5.805   7.546   0.418  0.00  0.00    +0.045 C 
ENDROOT
BRANCH   1  11
ATOM      8  N   UNL     1       4.184   3.000   1.232  0.00  0.00    -0.301 N 
ATOM      9  C   UNL     1       5.426   3.512   1.125  0.00  0.00    +0.304 C 
ATOM     10  O   UNL     1       6.369   2.778   0.905  0.00  0.00    -0.253 OA
ATOM     11  N   UNL     1       5.621   4.839   1.263  0.00  0.00    -0.269 N 
ATOM     12  H   UNL     1       3.431   3.585   1.408  0.00  0.00    +0.150 HD
ATOM     13  H   UNL     1       4.879   5.416   1.500  0.00  0.00    +0.156 HD
BRANCH   8  14
ATOM     14  C   UNL     1       3.971   1.558   1.082  0.00  0.00    +0.087 C 
BRANCH  14  15
ATOM     15  C   UNL     1       2.483   1.242   1.247  0.00  0.00    -0.060 C 
BRANCH  15  16
ATOM     16  N   UNL     1       2.270  -0.203   1.097  0.00  0.00    +0.381 N 
ATOM     17  C   UNL     1       2.901  -0.911   2.219  0.00  0.00    -0.096 C 
ATOM     18  H   UNL     1       2.680  -0.515   0.229  0.00  0.00    -0.082 HD
BRANCH  16  19
ATOM     19  C   UNL     1       0.828  -0.487   1.087  0.00  0.00    -0.072 C 
ATOM     20  C   UNL     1       0.206  -0.011   2.401  0.00  0.00    -0.013 C 
BRANCH  19  22
ATOM     21  C   UNL     1       1.169  -2.458  -0.410  0.00  0.00    +0.002 C 
ATOM     22  C   UNL     1       0.606  -1.993   0.934  0.00  0.00    -0.019 C 
ENDBRANCH  19  22
ENDBRANCH  16  19
ENDBRANCH  15  16
ENDBRANCH  14  15
ENDBRANCH   8  14
ENDBRANCH   1  11
BRANCH   3  23
ATOM     23  C   UNL     1      10.497   4.324   1.297  0.00  0.00    +0.244 C 
ATOM     24  O   UNL     1      10.385   3.167   1.654  0.00  0.00    -0.270 OA
ATOM     25  N   UNL     1      11.721   4.854   1.103  0.00  0.00    -0.303 N 
ATOM     26  H   UNL     1      11.810   5.777   0.818  0.00  0.00    +0.149 HD
BRANCH  25  27
ATOM     27  C   UNL     1      12.916   4.036   1.323  0.00  0.00    +0.217 C 
BRANCH  27  28
ATOM     28  C   UNL     1      14.165   4.872   1.036  0.00  0.00    +0.405 C 
ATOM     29  F   UNL     1      14.193   5.979   1.891  0.00  0.00    -0.169 F 
ATOM     30  F   UNL     1      15.307   4.091   1.246  0.00  0.00    -0.169 F 
ATOM     31  F   UNL     1      14.138   5.309  -0.293  0.00  0.00    -0.169 F 
ENDBRANCH  27  28
ENDBRANCH  25  27
ENDBRANCH   3  23
TORSDOF 9
