REMARK  Name = ZINC64982298
REMARK  8 active torsions:
REMARK  status: ('A' for Active; 'I' for Inactive)
REMARK    1  A    between atoms: C_1  and  C_2
REMARK    2  A    between atoms: C_5  and  N_11
REMARK    3  A    between atoms: C_7  and  N_8
REMARK    4  A    between atoms: C_12  and  C_14
REMARK    5  A    between atoms: C_14  and  C_16
REMARK    6  A    between atoms: C_14  and  O_17
REMARK    7  A    between atoms: O_17  and  C_18
REMARK    8  A    between atoms: C_22  and  C_24
REMARK                            x       y       z     vdW  Elec       q    Type
REMARK                         _______ _______ _______ _____ _____    ______ ____
ROOT
ATOM      1  N   UNL     1      -0.179  -3.480  -0.908  0.00  0.00    -0.282 N 
ATOM      2  C   UNL     1      -0.123  -3.940  -2.174  0.00  0.00    +0.258 C 
ATOM      3  O   UNL     1       0.006  -3.163  -3.096  0.00  0.00    -0.271 OA
ATOM      4  H   UNL     1      -0.332  -4.096  -0.174  0.00  0.00    +0.155 HD
ENDROOT
BRANCH   1   9
ATOM      5  C   UNL     1       0.476   2.059   0.129  0.00  0.00    +0.046 C 
ATOM      6  C   UNL     1       0.302   0.588  -0.146  0.00  0.00    -0.020 A 
ATOM      7  C   UNL     1      -0.359   0.173  -1.288  0.00  0.00    +0.007 A 
ATOM      8  C   UNL     1      -0.520  -1.174  -1.544  0.00  0.00    +0.024 A 
ATOM      9  C   UNL     1      -0.017  -2.113  -0.652  0.00  0.00    +0.036 A 
ATOM     10  C   UNL     1       0.646  -1.694   0.493  0.00  0.00    +0.056 A 
ATOM     11  C   UNL     1       0.808  -0.345   0.741  0.00  0.00    +0.131 A 
BRANCH  11  12
ATOM     12  N   UNL     1       1.520   0.103   1.959  0.00  0.00    +0.057 N 
ATOM     13  O   UNL     1       2.249   1.067   1.913  0.00  0.00    -0.126 OA
ATOM     14  O   UNL     1       1.371  -0.493   2.999  0.00  0.00    -0.126 OA
ENDBRANCH  11  12
ENDBRANCH   1   9
BRANCH   2  15
ATOM     15  C   UNL     1      -0.220  -5.419  -2.442  0.00  0.00    +0.256 C 
ATOM     16  C   UNL     1       0.995  -6.128  -1.840  0.00  0.00    +0.062 C 
BRANCH  15  17
ATOM     17  O   UNL     1      -0.253  -5.646  -3.853  0.00  0.00    -0.480 OA
BRANCH  17  18
ATOM     18  C   UNL     1      -0.802  -6.814  -4.278  0.00  0.00    +0.122 A 
ATOM     19  C   UNL     1      -1.224  -7.759  -3.354  0.00  0.00    +0.047 A 
ATOM     20  C   UNL     1      -1.782  -8.946  -3.787  0.00  0.00    +0.024 A 
ATOM     21  C   UNL     1      -1.919  -9.193  -5.142  0.00  0.00    +0.044 A 
ATOM     22  C   UNL     1      -1.498  -8.252  -6.065  0.00  0.00    -0.029 A 
ATOM     23  C   UNL     1      -0.946  -7.061  -5.635  0.00  0.00    +0.050 A 
ATOM     24  C   UNL     1      -1.648  -8.524  -7.539  0.00  0.00    +0.045 C 
ATOM     25 CL   UNL     1      -2.620 -10.686  -5.684  0.00  0.00    -0.083 Cl
ENDBRANCH  17  18
ENDBRANCH  15  17
ENDBRANCH   2  15
TORSDOF 5
