REMARK  Name = ZINC39737361
REMARK  11 active torsions:
REMARK  status: ('A' for Active; 'I' for Inactive)
REMARK    1  A    between atoms: C_1  and  C_2
REMARK    2  A    between atoms: C_3  and  C_27
REMARK    3  A    between atoms: C_4  and  C_26
REMARK    4  A    between atoms: C_7  and  C_8
REMARK    5  A    between atoms: C_8  and  C_10
REMARK    6  A    between atoms: C_10  and  C_12
REMARK    7  A    between atoms: C_10  and  N_13
REMARK    8  A    between atoms: N_13  and  C_14
REMARK    9  A    between atoms: N_13  and  C_15
REMARK   10  A    between atoms: C_15  and  C_16
REMARK   11  A    between atoms: C_27  and  C_29
REMARK                            x       y       z     vdW  Elec       q    Type
REMARK                         _______ _______ _______ _____ _____    ______ ____
ROOT
ATOM      1  C   UNL     1      -0.069  -1.470   3.581  0.00  0.00    +0.002 C 
ATOM      2  C   UNL     1      -1.452  -2.080   3.818  0.00  0.00    -0.005 C 
ENDROOT
BRANCH   1   3
ATOM      3  N   UNL     1       0.433  -0.893   4.836  0.00  0.00    +0.386 N 
ATOM      4  C   UNL     1       0.530  -1.947   5.855  0.00  0.00    -0.095 C 
ATOM      5  H   UNL     1      -0.202  -0.176   5.153  0.00  0.00    -0.081 HD
BRANCH   3   6
ATOM      6  C   UNL     1       1.761  -0.307   4.608  0.00  0.00    -0.044 C 
BRANCH   6   7
ATOM      7  C   UNL     1       2.174   0.510   5.834  0.00  0.00    +0.117 C 
ATOM      8  N   UNL     1       2.183  -0.322   7.045  0.00  0.00    -0.333 N 
ATOM      9  C   UNL     1       1.308   0.027   8.073  0.00  0.00    +0.042 A 
ATOM     10  C   UNL     1       1.176  -0.647   9.300  0.00  0.00    +0.024 A 
ATOM     11  C   UNL     1       0.279  -0.224  10.253  0.00  0.00    +0.002 A 
ATOM     12  C   UNL     1      -0.524   0.881  10.037  0.00  0.00    +0.001 A 
ATOM     13  C   UNL     1      -0.416   1.565   8.837  0.00  0.00    +0.016 A 
ATOM     14  C   UNL     1       0.482   1.140   7.884  0.00  0.00    +0.030 A 
ATOM     15  S   UNL     1       0.890   1.752   6.264  0.00  0.00    -0.103 S 
ATOM     16  H   UNL     1       2.776  -1.085   7.127  0.00  0.00    +0.147 HD
ENDBRANCH   6   7
ENDBRANCH   3   6
ENDBRANCH   1   3
BRANCH   1  17
ATOM     17  C   UNL     1      -0.169  -0.389   2.536  0.00  0.00    +0.166 C 
ATOM     18  O   UNL     1      -0.121   0.779   2.864  0.00  0.00    -0.292 OA
BRANCH  17  25
ATOM     19  C   UNL     1      -0.397   1.652   0.204  0.00  0.00    +0.047 C 
ATOM     20  C   UNL     1      -0.423   0.147   0.120  0.00  0.00    -0.012 A 
ATOM     21  C   UNL     1      -0.551  -0.629  -1.055  0.00  0.00    +0.041 A 
ATOM     22  C   UNL     1      -0.527  -1.961  -0.668  0.00  0.00    +0.024 A 
ATOM     23  N   UNL     1      -0.392  -2.018   0.664  0.00  0.00    -0.355 N 
ATOM     24  H   UNL     1      -0.348  -2.832   1.189  0.00  0.00    +0.166 HD
ATOM     25  C   UNL     1      -0.320  -0.736   1.171  0.00  0.00    +0.084 A 
ATOM     26  C   UNL     1      -0.634  -3.147  -1.592  0.00  0.00    +0.064 C 
BRANCH  21  27
ATOM     27  C   UNL     1      -0.685  -0.122  -2.424  0.00  0.00    +0.162 C 
ATOM     28  O   UNL     1      -1.786   0.016  -2.915  0.00  0.00    -0.292 OA
ATOM     29  C   UNL     1       0.544   0.229  -3.222  0.00  0.00    +0.091 C 
ENDBRANCH  21  27
ENDBRANCH  17  25
ENDBRANCH   1  17
TORSDOF 6
