REMARK  Name = ZINC60343517
REMARK  9 active torsions:
REMARK  status: ('A' for Active; 'I' for Inactive)
REMARK    1  A    between atoms: C_1  and  C_2
REMARK    2  A    between atoms: C_5  and  C_10
REMARK    3  A    between atoms: C_6  and  O_9
REMARK    4  A    between atoms: C_7  and  O_8
REMARK    5  A    between atoms: C_10  and  O_12
REMARK    6  A    between atoms: O_12  and  C_13
REMARK    7  A    between atoms: C_13  and  C_15
REMARK    8  A    between atoms: C_13  and  C_16
REMARK    9  A    between atoms: N_18  and  C_19
REMARK                            x       y       z     vdW  Elec       q    Type
REMARK                         _______ _______ _______ _____ _____    ______ ____
ROOT
ATOM      1  O   UNL     1       0.086  -4.915  -1.228  0.00  0.00    -0.449 OA
ENDROOT
BRANCH   1   2
ATOM      2  C   UNL     1       0.093  -4.253  -0.054  0.00  0.00    +0.344 C 
ATOM      3  O   UNL     1       0.112  -4.871   0.992  0.00  0.00    -0.245 OA
BRANCH   2   8
ATOM      4  C   UNL     1       0.037   1.504  -0.014  0.00  0.00    +0.047 C 
ATOM      5  C   UNL     1       0.052  -0.003  -0.020  0.00  0.00    -0.005 A 
ATOM      6  C   UNL     1       0.044  -0.688  -1.224  0.00  0.00    +0.008 A 
ATOM      7  C   UNL     1       0.058  -2.065  -1.242  0.00  0.00    +0.019 A 
ATOM      8  C   UNL     1       0.079  -2.779  -0.040  0.00  0.00    +0.104 A 
ATOM      9  C   UNL     1       0.087  -2.087   1.178  0.00  0.00    +0.173 A 
ATOM     10  C   UNL     1       0.079  -0.695   1.179  0.00  0.00    +0.162 A 
BRANCH  10  11
ATOM     11  O   UNL     1       0.092  -0.016   2.357  0.00  0.00    -0.503 OA
ATOM     12  H   UNL     1      -0.788   0.172   2.712  0.00  0.00    +0.292 HD
ENDBRANCH  10  11
BRANCH   9  13
ATOM     13  O   UNL     1       0.108  -2.770   2.350  0.00  0.00    -0.503 OA
ATOM     14  H   UNL     1       0.997  -2.959   2.680  0.00  0.00    +0.292 HD
ENDBRANCH   9  13
ENDBRANCH   2   8
ENDBRANCH   1   2
BRANCH   1  15
ATOM     15  C   UNL     1       0.100  -6.343  -1.167  0.00  0.00    +0.259 C 
ATOM     16  C   UNL     1       1.548  -6.839  -1.163  0.00  0.00    +0.062 C 
BRANCH  15  17
ATOM     17  C   UNL     1      -0.620  -6.904  -2.366  0.00  0.00    +0.258 C 
ATOM     18  O   UNL     1      -1.019  -6.160  -3.237  0.00  0.00    -0.271 OA
ATOM     19  N   UNL     1      -0.820  -8.233  -2.471  0.00  0.00    -0.280 N 
ATOM     20  H   UNL     1      -0.445  -8.834  -1.808  0.00  0.00    +0.155 HD
BRANCH  19  21
ATOM     21  C   UNL     1      -1.569  -8.746  -3.537  0.00  0.00    +0.072 A 
ATOM     22  C   UNL     1      -1.508  -8.142  -4.785  0.00  0.00    +0.064 A 
ATOM     23  C   UNL     1      -2.249  -8.651  -5.836  0.00  0.00    +0.125 A 
ATOM     24  C   UNL     1      -3.051  -9.763  -5.644  0.00  0.00    +0.041 A 
ATOM     25  C   UNL     1      -3.115 -10.367  -4.402  0.00  0.00    +0.043 A 
ATOM     26  C   UNL     1      -2.372  -9.866  -3.349  0.00  0.00    +0.145 A 
ATOM     27  F   UNL     1      -2.431 -10.460  -2.137  0.00  0.00    -0.204 F 
ATOM     28  F   UNL     1      -2.190  -8.063  -7.051  0.00  0.00    -0.205 F 
ENDBRANCH  19  21
ENDBRANCH  15  17
ENDBRANCH   1  15
TORSDOF 7
