REMARK  Name = ZINC02502646
REMARK  7 active torsions:
REMARK  status: ('A' for Active; 'I' for Inactive)
REMARK    1  A    between atoms: C_2  and  C_3
REMARK    2  A    between atoms: C_3  and  O_4
REMARK    3  A    between atoms: O_4  and  C_5
REMARK    4  A    between atoms: C_8  and  C_12
REMARK    5  A    between atoms: C_17  and  O_26
REMARK    6  A    between atoms: C_21  and  N_25
REMARK    7  A    between atoms: C_22  and  C_23
REMARK                            x       y       z     vdW  Elec       q    Type
REMARK                         _______ _______ _______ _____ _____    ______ ____
ROOT
ATOM      1  C   UNL     1       0.002  -0.004   0.002  0.00  0.00    +0.098 C 
ATOM      2  C   UNL     1      -0.018   1.502   0.010  0.00  0.00    +0.008 A 
ATOM      3  C   UNL     1      -1.232   2.165   0.020  0.00  0.00    +0.012 A 
ATOM      4  C   UNL     1      -1.270   3.546   0.034  0.00  0.00    +0.046 A 
ATOM      5  C   UNL     1      -0.088   4.272   0.026  0.00  0.00    +0.120 A 
ATOM      6  C   UNL     1       1.129   3.611   0.011  0.00  0.00    +0.092 A 
ATOM      7  C   UNL     1       1.166   2.222   0.003  0.00  0.00    +0.138 A 
ATOM      8  O   UNL     1       2.365   1.590  -0.012  0.00  0.00    -0.441 OA
ATOM      9  C   UNL     1       2.441   0.307  -0.404  0.00  0.00    +0.199 C 
ATOM     10  C   UNL     1       1.355  -0.503  -0.420  0.00  0.00    +0.098 C 
ENDROOT
BRANCH   1  14
ATOM     11  C   UNL     1      -0.879  -1.454   3.925  0.00  0.00    +0.139 A 
ATOM     12  C   UNL     1       0.225  -0.641   3.716  0.00  0.00    +0.047 A 
ATOM     13  C   UNL     1       0.511  -0.178   2.446  0.00  0.00    +0.008 A 
ATOM     14  C   UNL     1      -0.309  -0.515   1.385  0.00  0.00    -0.033 A 
ATOM     15  C   UNL     1      -1.411  -1.325   1.590  0.00  0.00    +0.028 A 
ATOM     16  C   UNL     1      -1.698  -1.796   2.858  0.00  0.00    +0.083 A 
ATOM     17 CL   UNL     1      -3.082  -2.812   3.115  0.00  0.00    -0.080 Cl
BRANCH  11  18
ATOM     18  O   UNL     1      -1.159  -1.915   5.173  0.00  0.00    -0.487 OA
BRANCH  18  19
ATOM     19  C   UNL     1      -0.273  -1.523   6.223  0.00  0.00    +0.256 C 
BRANCH  19  21
ATOM     20  C   UNL     1       0.126  -2.688   8.331  0.00  0.00    +0.007 C 
ATOM     21  C   UNL     1      -0.738  -2.125   7.524  0.00  0.00    +0.006 C 
ENDBRANCH  19  21
ENDBRANCH  18  19
ENDBRANCH  11  18
ENDBRANCH   1  14
BRANCH   9  22
ATOM     22  N   UNL     1       3.654  -0.198  -0.799  0.00  0.00    -0.328 N 
ATOM     23  H   UNL     1       3.725  -1.123  -1.084  0.00  0.00    +0.145 HD
ATOM     24  H   UNL     1       4.441   0.369  -0.792  0.00  0.00    +0.145 HD
ENDBRANCH   9  22
BRANCH  10  25
ATOM     25  C   UNL     1       1.500  -1.862  -0.848  0.00  0.00    +0.101 C 
ATOM     26  N   UNL     1       1.615  -2.940  -1.188  0.00  0.00    -0.191 NA
ENDBRANCH  10  25
BRANCH   5  27
ATOM     27  O   UNL     1      -0.124   5.631   0.034  0.00  0.00    -0.507 OA
ATOM     28  H   UNL     1      -0.143   6.029  -0.847  0.00  0.00    +0.292 HD
ENDBRANCH   5  27
TORSDOF 7
