REMARK  Name = ZINC45599401
REMARK  8 active torsions:
REMARK  status: ('A' for Active; 'I' for Inactive)
REMARK    1  A    between atoms: C_1  and  C_2
REMARK    2  A    between atoms: C_11  and  N_29
REMARK    3  A    between atoms: C_13  and  S_15
REMARK    4  A    between atoms: S_15  and  C_16
REMARK    5  A    between atoms: C_16  and  C_18
REMARK    6  A    between atoms: C_16  and  C_19
REMARK    7  A    between atoms: N_25  and  C_26
REMARK    8  A    between atoms: N_25  and  C_27
REMARK                            x       y       z     vdW  Elec       q    Type
REMARK                         _______ _______ _______ _____ _____    ______ ____
ROOT
ATOM      1  C   UNL     1       0.559   1.283  -0.694  0.00  0.00    +0.008 C 
ATOM      2  C   UNL     1       0.440  -0.235  -0.549  0.00  0.00    -0.009 C 
ATOM      3  C   UNL     1      -1.037  -0.626  -0.433  0.00  0.00    +0.008 C 
ATOM      4  C   UNL     1      -1.180  -2.144  -0.537  0.00  0.00    +0.037 C 
ATOM      5  C   UNL     1      -0.249  -2.800   0.478  0.00  0.00    -0.025 A 
ATOM      6  C   UNL     1       0.784  -2.109   1.010  0.00  0.00    -0.004 A 
ATOM      7  S   UNL     1       1.583  -3.241   2.119  0.00  0.00    -0.073 S 
ATOM      8  C   UNL     1       0.535  -4.638   1.872  0.00  0.00    +0.115 A 
ATOM      9  C   UNL     1      -0.412  -4.175   0.924  0.00  0.00    +0.051 A 
ATOM     10  C   UNL     1      -1.418  -5.097   0.513  0.00  0.00    +0.129 A 
ATOM     11  N   UNL     1      -1.361  -6.306   1.065  0.00  0.00    -0.207 NA
ATOM     12  C   UNL     1      -0.444  -6.673   1.948  0.00  0.00    +0.192 A 
ATOM     13  N   UNL     1       0.523  -5.857   2.374  0.00  0.00    -0.214 NA
ATOM     14  C   UNL     1       1.173  -0.691   0.721  0.00  0.00    +0.046 C 
ENDROOT
BRANCH  10  15
ATOM     15  N   UNL     1      -2.394  -4.756  -0.406  0.00  0.00    -0.343 N 
ATOM     16  H   UNL     1      -2.277  -3.975  -0.970  0.00  0.00    +0.144 HD
ATOM     17  H   UNL     1      -3.195  -5.297  -0.486  0.00  0.00    +0.144 HD
ENDBRANCH  10  15
BRANCH  12  18
ATOM     18  S   UNL     1      -0.503  -8.313   2.590  0.00  0.00    -0.075 S 
BRANCH  18  19
ATOM     19  C   UNL     1      -1.936  -9.056   1.763  0.00  0.00    +0.119 C 
ATOM     20  C   UNL     1      -3.211  -8.334   2.205  0.00  0.00    +0.028 C 
BRANCH  19  21
ATOM     21  C   UNL     1      -2.030 -10.514   2.134  0.00  0.00    +0.149 A 
ATOM     22  N   UNL     1      -1.881 -10.884   3.394  0.00  0.00    -0.198 NA
ATOM     23  C   UNL     1      -1.963 -12.170   3.726  0.00  0.00    +0.217 A 
ATOM     24  N   UNL     1      -2.196 -13.082   2.788  0.00  0.00    -0.181 NA
ATOM     25  C   UNL     1      -2.345 -12.706   1.523  0.00  0.00    +0.222 A 
ATOM     26  N   UNL     1      -2.267 -11.417   1.200  0.00  0.00    -0.198 NA
ATOM     27  N   UNL     1      -2.587 -13.650   0.545  0.00  0.00    -0.306 N 
ATOM     28  C   UNL     1      -2.679 -15.068   0.903  0.00  0.00    +0.132 C 
ATOM     29  C   UNL     1      -2.752 -13.234  -0.850  0.00  0.00    +0.132 C 
ATOM     30  N   UNL     1      -1.806 -12.556   5.041  0.00  0.00    -0.327 N 
ATOM     31  H   UNL     1      -1.636 -11.889   5.725  0.00  0.00    +0.145 HD
ATOM     32  H   UNL     1      -1.867 -13.494   5.282  0.00  0.00    +0.145 HD
ENDBRANCH  19  21
ENDBRANCH  18  19
ENDBRANCH  12  18
TORSDOF 4
