REMARK  Name = ZINC08054121
REMARK  6 active torsions:
REMARK  status: ('A' for Active; 'I' for Inactive)
REMARK    1  A    between atoms: C_1  and  C_2
REMARK    2  A    between atoms: C_2  and  C_4
REMARK    3  A    between atoms: C_2  and  N_11
REMARK    4  A    between atoms: N_11  and  C_12
REMARK    5  A    between atoms: C_15  and  N_20
REMARK    6  A    between atoms: C_17  and  C_18
REMARK                            x       y       z     vdW  Elec       q    Type
REMARK                         _______ _______ _______ _____ _____    ______ ____
ROOT
ATOM      1  N   UNL     1      -2.290  -0.349   0.596  0.00  0.00    -0.336 N 
ATOM      2  H   UNL     1      -1.406  -0.747   0.568  0.00  0.00    +0.147 HD
ENDROOT
BRANCH   1   3
ATOM      3  C   UNL     1      -3.345  -1.039   1.182  0.00  0.00    +0.045 A 
ATOM      4  C   UNL     1      -4.611  -0.471   1.228  0.00  0.00    +0.026 A 
ATOM      5  C   UNL     1      -5.658  -1.160   1.806  0.00  0.00    +0.034 A 
ATOM      6  C   UNL     1      -5.454  -2.417   2.352  0.00  0.00    +0.128 A 
ATOM      7  C   UNL     1      -4.203  -2.995   2.321  0.00  0.00    +0.053 A 
ATOM      8  C   UNL     1      -3.134  -2.312   1.734  0.00  0.00    +0.075 A 
BRANCH   6   9
ATOM      9  N   UNL     1      -6.585  -3.142   2.974  0.00  0.00    +0.056 N 
ATOM     10  O   UNL     1      -6.409  -4.247   3.456  0.00  0.00    -0.126 OA
ATOM     11  O   UNL     1      -7.691  -2.634   3.003  0.00  0.00    -0.126 OA
ENDBRANCH   6   9
BRANCH   8  12
ATOM     12  C   UNL     1      -1.833  -2.908   1.698  0.00  0.00    +0.101 C 
ATOM     13  N   UNL     1      -0.800  -3.380   1.669  0.00  0.00    -0.191 NA
ENDBRANCH   8  12
ENDBRANCH   1   3
BRANCH   1  15
ATOM     14  C   UNL     1      -3.023   0.834  -1.416  0.00  0.00    +0.033 C 
ATOM     15  C   UNL     1      -2.514   0.979   0.020  0.00  0.00    +0.099 C 
BRANCH  15  16
ATOM     16  C   UNL     1      -1.219   1.750   0.017  0.00  0.00    -0.009 A 
ATOM     17  C   UNL     1      -0.013   1.076   0.008  0.00  0.00    +0.007 A 
ATOM     18  C   UNL     1       1.175   1.783   0.000  0.00  0.00    +0.000 A 
ATOM     19  C   UNL     1       1.157   3.166   0.007  0.00  0.00    +0.001 A 
ATOM     20  C   UNL     1      -0.048   3.841   0.021  0.00  0.00    +0.020 A 
ATOM     21  C   UNL     1      -1.238   3.134   0.029  0.00  0.00    +0.046 A 
ATOM     22 CL   UNL     1      -2.752   3.982   0.047  0.00  0.00    -0.083 Cl
ENDBRANCH  15  16
ENDBRANCH   1  15
TORSDOF 5
