REMARK  Name = ZINC07716218
REMARK  3 active torsions:
REMARK  status: ('A' for Active; 'I' for Inactive)
REMARK    1  A    between atoms: C_5  and  C_7
REMARK    2  A    between atoms: C_14  and  C_15
REMARK    3  A    between atoms: C_15  and  C_17
REMARK                            x       y       z     vdW  Elec       q    Type
REMARK                         _______ _______ _______ _____ _____    ______ ____
ROOT
ATOM      1  C   UNL     1       5.375   8.978  -0.004  0.00  0.00    +0.031 C 
ATOM      2  C   UNL     1       4.993   7.720   0.333  0.00  0.00    +0.079 A 
ATOM      3  C   UNL     1       5.824   6.537   0.632  0.00  0.00    +0.263 A 
ATOM      4  O   UNL     1       7.040   6.590   0.600  0.00  0.00    -0.267 OA
ATOM      5  N   UNL     1       5.188   5.419   0.936  0.00  0.00    -0.316 N 
ATOM      6  H   UNL     1       5.696   4.618   1.140  0.00  0.00    +0.169 HD
ATOM      7  C   UNL     1       3.812   5.380   0.968  0.00  0.00    +0.085 A 
ATOM      8  C   UNL     1       2.992   4.312   1.262  0.00  0.00    +0.087 C 
ATOM      9  S   UNL     1       3.349   7.047   0.529  0.00  0.00    -0.066 S 
ENDROOT
BRANCH   1  14
ATOM     10  C   UNL     1       2.186  10.905   0.409  0.00  0.00    +0.001 A 
ATOM     11  C   UNL     1       2.482  12.067  -0.284  0.00  0.00    +0.003 A 
ATOM     12  C   UNL     1       3.717  12.228  -0.885  0.00  0.00    +0.039 A 
ATOM     13  C   UNL     1       4.668  11.229  -0.795  0.00  0.00    +0.131 A 
ATOM     14  C   UNL     1       4.373  10.048  -0.101  0.00  0.00    +0.011 A 
ATOM     15  C   UNL     1       3.120   9.896   0.504  0.00  0.00    +0.011 A 
ATOM     16  F   UNL     1       5.876  11.389  -1.379  0.00  0.00    -0.205 F 
ENDBRANCH   1  14
BRANCH   8  17
ATOM     17  C   UNL     1       1.597   4.472   1.242  0.00  0.00    +0.223 C 
ATOM     18  O   UNL     1       1.111   5.557   0.964  0.00  0.00    -0.284 OA
BRANCH  17  19
ATOM     19  C   UNL     1       0.722   3.332   1.556  0.00  0.00    +0.174 A 
ATOM     20  C   UNL     1      -0.642   3.351   1.573  0.00  0.00    +0.053 A 
ATOM     21  C   UNL     1      -1.060   2.053   1.914  0.00  0.00    +0.042 A 
ATOM     22  C   UNL     1       0.055   1.313   2.097  0.00  0.00    +0.196 A 
ATOM     23  O   UNL     1       1.127   2.087   1.877  0.00  0.00    -0.460 OA
ENDBRANCH  17  19
ENDBRANCH   8  17
TORSDOF 3
