REMARK  Name = ZINC41546116
REMARK  4 active torsions:
REMARK  status: ('A' for Active; 'I' for Inactive)
REMARK    1  A    between atoms: C_1  and  C_2
REMARK    2  A    between atoms: C_2  and  C_13
REMARK    3  A    between atoms: N_24  and  C_25
REMARK    4  A    between atoms: C_25  and  C_26
REMARK                            x       y       z     vdW  Elec       q    Type
REMARK                         _______ _______ _______ _____ _____    ______ ____
ROOT
ATOM      1  C   UNL     1       0.709  -0.489  -1.237  0.00  0.00    +0.272 C 
ATOM      2  O   UNL     1       0.070  -0.781  -2.225  0.00  0.00    -0.270 OA
ATOM      3  N   UNL     1       2.053  -0.599  -1.247  0.00  0.00    -0.252 N 
ATOM      4  C   UNL     1       2.702  -1.045  -2.385  0.00  0.00    +0.203 A 
ATOM      5  N   UNL     1       2.113  -1.380  -3.505  0.00  0.00    -0.214 NA
ATOM      6  C   UNL     1       3.045  -1.770  -4.412  0.00  0.00    +0.091 A 
ATOM      7  C   UNL     1       2.971  -2.218  -5.734  0.00  0.00    +0.030 A 
ATOM      8  C   UNL     1       4.124  -2.548  -6.410  0.00  0.00    +0.002 A 
ATOM      9  C   UNL     1       5.360  -2.439  -5.789  0.00  0.00    +0.002 A 
ATOM     10  C   UNL     1       5.450  -1.998  -4.486  0.00  0.00    +0.028 A 
ATOM     11  C   UNL     1       4.299  -1.662  -3.789  0.00  0.00    +0.070 A 
ATOM     12  N   UNL     1       4.053  -1.195  -2.509  0.00  0.00    -0.307 N 
ATOM     13  H   UNL     1       2.564  -0.366  -0.456  0.00  0.00    +0.158 HD
ENDROOT
BRANCH   1  15
ATOM     14  C   UNL     1      -0.019   1.526   0.010  0.00  0.00    +0.076 C 
ATOM     15  C   UNL     1       0.002  -0.004   0.002  0.00  0.00    +0.258 C 
ATOM     16  C   UNL     1      -1.413  -0.525   0.008  0.00  0.00    +0.270 C 
ATOM     17  O   UNL     1      -2.310   0.144  -0.460  0.00  0.00    -0.271 OA
ATOM     18  N   UNL     1      -1.677  -1.739   0.535  0.00  0.00    -0.279 N 
ATOM     19  C   UNL     1      -0.651  -2.441   1.182  0.00  0.00    +0.076 A 
ATOM     20  C   UNL     1      -0.820  -3.772   1.531  0.00  0.00    +0.027 A 
ATOM     21  C   UNL     1       0.207  -4.454   2.158  0.00  0.00    +0.002 A 
ATOM     22  C   UNL     1       1.400  -3.813   2.436  0.00  0.00    +0.004 A 
ATOM     23  C   UNL     1       1.573  -2.484   2.095  0.00  0.00    +0.047 A 
ATOM     24  C   UNL     1       0.547  -1.792   1.472  0.00  0.00    +0.144 A 
ATOM     25  O   UNL     1       0.694  -0.477   1.160  0.00  0.00    -0.465 OA
ATOM     26  H   UNL     1      -2.566  -2.121   0.467  0.00  0.00    +0.155 HD
ENDBRANCH   1  15
BRANCH  12  27
ATOM     27  C   UNL     1       5.056  -0.917  -1.478  0.00  0.00    +0.160 C 
BRANCH  27  28
ATOM     28  C   UNL     1       5.295  -2.160  -0.660  0.00  0.00    -0.028 A 
ATOM     29  C   UNL     1       4.532  -2.403   0.467  0.00  0.00    +0.005 A 
ATOM     30  C   UNL     1       4.750  -3.544   1.217  0.00  0.00    +0.000 A 
ATOM     31  C   UNL     1       5.731  -4.442   0.839  0.00  0.00    +0.000 A 
ATOM     32  C   UNL     1       6.493  -4.199  -0.288  0.00  0.00    +0.000 A 
ATOM     33  C   UNL     1       6.272  -3.061  -1.041  0.00  0.00    +0.005 A 
ENDBRANCH  27  28
ENDBRANCH  12  27
TORSDOF 3
