REMARK  Name = ZINC50046993
REMARK  5 active torsions:
REMARK  status: ('A' for Active; 'I' for Inactive)
REMARK    1  A    between atoms: C_1  and  C_2
REMARK    2  A    between atoms: C_2  and  C_4
REMARK    3  A    between atoms: C_2  and  S_12
REMARK    4  A    between atoms: S_12  and  C_13
REMARK    5  A    between atoms: C_18  and  O_19
REMARK                            x       y       z     vdW  Elec       q    Type
REMARK                         _______ _______ _______ _____ _____    ______ ____
ROOT
ATOM      1  C   UNL     1      -0.058   1.522   0.035  0.00  0.00    +0.029 C 
ATOM      2  C   UNL     1      -0.009  -0.006   0.009  0.00  0.00    +0.134 C 
ENDROOT
BRANCH   2   3
ATOM      3  C   UNL     1      -1.407  -0.556   0.138  0.00  0.00    +0.229 C 
ATOM      4  O   UNL     1      -1.834  -0.876   1.227  0.00  0.00    -0.274 OA
ATOM      5  N   UNL     1      -2.182  -0.691  -0.956  0.00  0.00    -0.296 N 
ATOM      6  C   UNL     1      -1.683  -0.314  -2.289  0.00  0.00    +0.136 C 
ATOM      7  C   UNL     1      -1.935  -1.483  -3.248  0.00  0.00    +0.179 C 
ATOM      8  O   UNL     1      -3.311  -1.867  -3.170  0.00  0.00    -0.377 OA
ATOM      9  C   UNL     1      -3.713  -2.344  -1.884  0.00  0.00    +0.179 C 
ATOM     10  C   UNL     1      -3.549  -1.224  -0.855  0.00  0.00    +0.136 C 
ENDBRANCH   2   3
BRANCH   2  11
ATOM     11  S   UNL     1       1.004  -0.603   1.390  0.00  0.00    -0.109 S 
BRANCH  11  12
ATOM     12  C   UNL     1       1.177  -2.329   1.079  0.00  0.00    +0.050 A 
ATOM     13  C   UNL     1       0.685  -2.876  -0.098  0.00  0.00    +0.018 A 
ATOM     14  C   UNL     1       0.822  -4.229  -0.340  0.00  0.00    +0.001 A 
ATOM     15  C   UNL     1       1.447  -5.042   0.588  0.00  0.00    +0.004 A 
ATOM     16  C   UNL     1       1.940  -4.503   1.763  0.00  0.00    +0.046 A 
ATOM     17  C   UNL     1       1.812  -3.147   2.010  0.00  0.00    +0.130 A 
BRANCH  17  18
ATOM     18  O   UNL     1       2.301  -2.616   3.163  0.00  0.00    -0.506 OA
ATOM     19  H   UNL     1       1.668  -2.611   3.894  0.00  0.00    +0.292 HD
ENDBRANCH  17  18
ENDBRANCH  11  12
ENDBRANCH   2  11
TORSDOF 4
