REMARK  Name = ZINC12697689
REMARK  4 active torsions:
REMARK  status: ('A' for Active; 'I' for Inactive)
REMARK    1  A    between atoms: C_6  and  N_7
REMARK    2  A    between atoms: C_8  and  C_10
REMARK    3  A    between atoms: C_10  and  C_11
REMARK    4  A    between atoms: C_11  and  N_12
REMARK                            x       y       z     vdW  Elec       q    Type
REMARK                         _______ _______ _______ _____ _____    ______ ____
ROOT
ATOM      1  N   UNL     1      -1.202  -0.721   0.011  0.00  0.00    -0.285 N 
ATOM      2  C   UNL     1      -2.374  -0.067   0.128  0.00  0.00    +0.219 C 
ATOM      3  O   UNL     1      -2.395   1.145   0.135  0.00  0.00    -0.275 OA
ATOM      4  H   UNL     1      -1.191  -1.687  -0.072  0.00  0.00    +0.155 HD
ENDROOT
BRANCH   1  10
ATOM      5  C   UNL     1       0.122   1.154   0.763  0.00  0.00    +0.027 A 
ATOM      6  C   UNL     1       1.310   1.861   0.762  0.00  0.00    +0.051 A 
ATOM      7  C   UNL     1       2.383   1.417   0.008  0.00  0.00    +0.167 A 
ATOM      8  C   UNL     1       2.265   0.255  -0.752  0.00  0.00    +0.169 A 
ATOM      9  C   UNL     1       1.075  -0.453  -0.751  0.00  0.00    +0.072 A 
ATOM     10  C   UNL     1       0.002  -0.004   0.008  0.00  0.00    +0.037 A 
ATOM     11  O   UNL     1       3.448   0.032  -1.399  0.00  0.00    -0.447 OA
ATOM     12  C   UNL     1       4.160   1.271  -1.322  0.00  0.00    +0.254 C 
ATOM     13  O   UNL     1       3.642   1.924  -0.160  0.00  0.00    -0.448 OA
ATOM     14  C   UNL     1       5.670   1.028  -1.189  0.00  0.00    +0.093 C 
ATOM     15  C   UNL     1       6.208   1.209  -2.632  0.00  0.00    +0.008 C 
ATOM     16  C   UNL     1       5.342   2.372  -3.179  0.00  0.00    +0.008 C 
ATOM     17  C   UNL     1       3.941   2.116  -2.579  0.00  0.00    +0.093 C 
ENDBRANCH   1  10
BRANCH   2  18
ATOM     18  C   UNL     1      -3.660  -0.843   0.251  0.00  0.00    +0.115 C 
BRANCH  18  19
ATOM     19  C   UNL     1      -4.834   0.131   0.369  0.00  0.00    +0.125 C 
BRANCH  19  20
ATOM     20  N   UNL     1      -6.085  -0.623   0.488  0.00  0.00    -0.241 N 
ATOM     21  C   UNL     1      -6.828  -1.007  -0.582  0.00  0.00    +0.226 C 
ATOM     22  O   UNL     1      -6.492  -0.984  -1.746  0.00  0.00    -0.275 OA
ATOM     23  C   UNL     1      -8.145  -1.466  -0.034  0.00  0.00    +0.091 C 
ATOM     24  C   UNL     1      -8.850  -2.613  -0.727  0.00  0.00    +0.040 C 
ATOM     25  C   UNL     1      -9.939  -3.091   0.211  0.00  0.00    -0.030 C 
ATOM     26  C   UNL     1      -9.978  -2.830   1.482  0.00  0.00    -0.030 C 
ATOM     27  C   UNL     1      -8.928  -2.029   2.223  0.00  0.00    +0.040 C 
ATOM     28  C   UNL     1      -7.692  -1.996   1.361  0.00  0.00    +0.091 C 
ATOM     29  C   UNL     1      -6.610  -1.012   1.680  0.00  0.00    +0.226 C 
ATOM     30  O   UNL     1      -6.271  -0.635   2.781  0.00  0.00    -0.275 OA
ENDBRANCH  19  20
ENDBRANCH  18  19
ENDBRANCH   2  18
TORSDOF 4
