REMARK  Name = ZINC12329384
REMARK  9 active torsions:
REMARK  status: ('A' for Active; 'I' for Inactive)
REMARK    1  A    between atoms: C_1  and  C_2
REMARK    2  A    between atoms: C_7  and  C_8
REMARK    3  A    between atoms: C_15  and  C_16
REMARK    4  A    between atoms: C_15  and  N_63
REMARK    5  A    between atoms: C_16  and  C_18
REMARK    6  A    between atoms: C_16  and  O_28
REMARK    7  A    between atoms: C_21  and  N_24
REMARK    8  A    between atoms: C_25  and  C_27
REMARK    9  A    between atoms: C_30  and  O_32
REMARK                            x       y       z     vdW  Elec       q    Type
REMARK                         _______ _______ _______ _____ _____    ______ ____
ROOT
ATOM      1  C   UNL     1      -2.483   0.961   6.227  0.00  0.00    +0.044 C 
ATOM      2  C   UNL     1      -1.690   0.664   4.980  0.00  0.00    -0.047 A 
ATOM      3  C   UNL     1      -2.322   0.629   3.752  0.00  0.00    +0.013 A 
ATOM      4  C   UNL     1      -1.599   0.357   2.602  0.00  0.00    +0.023 A 
ATOM      5  C   UNL     1      -0.239   0.116   2.684  0.00  0.00    +0.127 A 
ATOM      6  C   UNL     1       0.394   0.153   3.923  0.00  0.00    +0.049 A 
ATOM      7  C   UNL     1      -0.331   0.426   5.065  0.00  0.00    -0.044 A 
ATOM      8  C   UNL     1       0.358   0.464   6.404  0.00  0.00    +0.044 C 
ATOM      9  O   UNL     1       0.508  -0.161   1.583  0.00  0.00    -0.485 OA
ATOM     10  C   UNL     1      -0.045   0.150   0.305  0.00  0.00    +0.110 C 
ATOM     11  C   UNL     1      -0.073   1.666   0.106  0.00  0.00    +0.029 C 
ATOM     12  C   UNL     1       1.360   2.204   0.106  0.00  0.00    -0.075 C 
ATOM     13  C   UNL     1       2.208   0.109  -0.768  0.00  0.00    -0.075 C 
ATOM     14  C   UNL     1       0.801  -0.493  -0.795  0.00  0.00    +0.029 C 
ATOM     15  C   UNL     1      -1.473  -0.402   0.240  0.00  0.00    +0.084 C 
ATOM     16  C   UNL     1      -2.322   0.335   1.279  0.00  0.00    +0.152 C 
ATOM     17  N   UNL     1       2.111   1.567  -0.996  0.00  0.00    +0.382 N 
ATOM     18  H   UNL     1       1.613   1.733  -1.878  0.00  0.00    -0.082 HD
ENDROOT
BRANCH  16  19
ATOM     19  O   UNL     1      -3.574  -0.337   1.433  0.00  0.00    -0.387 OA
ATOM     20  H   UNL     1      -4.167   0.077   2.075  0.00  0.00    +0.210 HD
ENDBRANCH  16  19
BRANCH  17  21
ATOM     21  C   UNL     1       3.464   2.153  -1.090  0.00  0.00    -0.042 C 
BRANCH  21  22
ATOM     22  C   UNL     1       3.353   3.679  -1.048  0.00  0.00    +0.128 C 
BRANCH  22  23
ATOM     23  C   UNL     1       4.726   4.286  -1.172  0.00  0.00    -0.021 A 
ATOM     24  C   UNL     1       5.281   4.488  -2.422  0.00  0.00    +0.008 A 
ATOM     25  C   UNL     1       6.538   5.049  -2.539  0.00  0.00    +0.023 A 
ATOM     26  C   UNL     1       7.248   5.402  -1.399  0.00  0.00    +0.033 A 
ATOM     27  C   UNL     1       6.690   5.193  -0.144  0.00  0.00    +0.023 A 
ATOM     28  C   UNL     1       5.431   4.636  -0.035  0.00  0.00    +0.008 A 
BRANCH  26  29
ATOM     29  N   UNL     1       8.523   5.966  -1.514  0.00  0.00    -0.286 N 
ATOM     30  C   UNL     1       9.459   5.712  -0.578  0.00  0.00    +0.214 C 
ATOM     31  O   UNL     1       9.229   4.919   0.310  0.00  0.00    -0.276 OA
ATOM     32  C   UNL     1      10.792   6.412  -0.636  0.00  0.00    +0.109 C 
ATOM     33  H   UNL     1       8.733   6.541  -2.267  0.00  0.00    +0.155 HD
ENDBRANCH  26  29
ENDBRANCH  22  23
BRANCH  22  34
ATOM     34  O   UNL     1       2.534   4.127  -2.131  0.00  0.00    -0.389 OA
ATOM     35  H   UNL     1       2.874   3.889  -3.005  0.00  0.00    +0.210 HD
ENDBRANCH  22  34
ENDBRANCH  21  22
ENDBRANCH  17  21
TORSDOF 6
