REMARK  Name = ZINC43070942
REMARK  6 active torsions:
REMARK  status: ('A' for Active; 'I' for Inactive)
REMARK    1  A    between atoms: C_1  and  C_2
REMARK    2  A    between atoms: C_8  and  N_10
REMARK    3  A    between atoms: C_11  and  C_13
REMARK    4  A    between atoms: C_20  and  C_22
REMARK    5  A    between atoms: C_22  and  C_23
REMARK    6  A    between atoms: C_22  and  C_24
REMARK                            x       y       z     vdW  Elec       q    Type
REMARK                         _______ _______ _______ _____ _____    ______ ____
ROOT
ATOM      1  N   UNL     1       1.972   1.423   0.788  0.00  0.00    -0.312 N 
ATOM      2  C   UNL     1       2.711   1.074   1.860  0.00  0.00    +0.218 C 
ATOM      3  O   UNL     1       2.244   0.340   2.706  0.00  0.00    -0.275 OA
ATOM      4  H   UNL     1       2.346   2.009   0.112  0.00  0.00    +0.149 HD
ENDROOT
BRANCH   2   5
ATOM      5  C   UNL     1       4.117   1.595   2.008  0.00  0.00    +0.092 C 
ATOM      6  C   UNL     1       4.960   1.137   0.815  0.00  0.00    +0.016 C 
ATOM      7  C   UNL     1       6.380   1.693   0.948  0.00  0.00    +0.020 C 
ATOM      8  C   UNL     1       7.019   1.149   2.229  0.00  0.00    +0.108 C 
ATOM      9  N   UNL     1       6.141   1.460   3.365  0.00  0.00    -0.301 N 
ATOM     10  C   UNL     1       4.731   1.050   3.302  0.00  0.00    +0.120 C 
ATOM     11  C   UNL     1       6.619   2.109   4.445  0.00  0.00    +0.218 C 
ATOM     12  O   UNL     1       5.868   2.428   5.343  0.00  0.00    -0.275 OA
BRANCH  11  13
ATOM     13  C   UNL     1       8.087   2.438   4.538  0.00  0.00    +0.069 C 
ATOM     14  C   UNL     1       8.294   3.560   5.558  0.00  0.00    +0.017 C 
ATOM     15  C   UNL     1       8.861   1.196   4.982  0.00  0.00    +0.017 C 
ENDBRANCH  11  13
ENDBRANCH   2   5
BRANCH   1  22
ATOM     16  C   UNL     1      -0.240   3.257   0.428  0.00  0.00    +0.009 C 
ATOM     17  C   UNL     1      -0.205   1.876  -0.229  0.00  0.00    +0.006 C 
ATOM     18  C   UNL     1      -1.633   1.347  -0.379  0.00  0.00    +0.005 C 
ATOM     19  C   UNL     1      -1.598  -0.035  -1.036  0.00  0.00    +0.000 C 
ATOM     20  C   UNL     1      -0.788  -0.995  -0.163  0.00  0.00    +0.002 C 
ATOM     21  C   UNL     1       0.640  -0.465  -0.013  0.00  0.00    +0.022 C 
ATOM     22  C   UNL     1       0.605   0.916   0.644  0.00  0.00    +0.076 C 
ENDBRANCH   1  22
TORSDOF 3
