REMARK  Name = ZINC53735051
REMARK  7 active torsions:
REMARK  status: ('A' for Active; 'I' for Inactive)
REMARK    1  A    between atoms: C_1  and  C_2
REMARK    2  A    between atoms: C_5  and  N_18
REMARK    3  A    between atoms: C_7  and  N_8
REMARK    4  A    between atoms: N_8  and  C_9
REMARK    5  A    between atoms: N_8  and  C_12
REMARK    6  A    between atoms: C_9  and  C_10
REMARK    7  A    between atoms: C_10  and  O_11
REMARK                            x       y       z     vdW  Elec       q    Type
REMARK                         _______ _______ _______ _____ _____    ______ ____
ROOT
ATOM      1  N   UNL     1       0.280  -0.045   2.320  0.00  0.00    -0.324 N 
ENDROOT
BRANCH   1   8
ATOM      2  C   UNL     1       0.159   1.513  -0.057  0.00  0.00    +0.045 C 
ATOM      3  C   UNL     1       0.198   0.006  -0.091  0.00  0.00    -0.029 A 
ATOM      4  C   UNL     1       0.181  -0.658  -1.302  0.00  0.00    +0.007 A 
ATOM      5  C   UNL     1       0.217  -2.040  -1.334  0.00  0.00    +0.033 A 
ATOM      6  C   UNL     1       0.270  -2.761  -0.155  0.00  0.00    +0.128 A 
ATOM      7  C   UNL     1       0.287  -2.103   1.059  0.00  0.00    +0.056 A 
ATOM      8  C   UNL     1       0.257  -0.715   1.095  0.00  0.00    +0.035 A 
BRANCH   6   9
ATOM      9  N   UNL     1       0.308  -4.240  -0.194  0.00  0.00    +0.056 N 
ATOM     10  O   UNL     1       0.292  -4.817  -1.257  0.00  0.00    -0.126 OA
ATOM     11  O   UNL     1       0.354  -4.872   0.836  0.00  0.00    -0.126 OA
ENDBRANCH   6   9
ENDBRANCH   1   8
BRANCH   1  12
ATOM     12  C   UNL     1      -0.961   0.143   3.075  0.00  0.00    +0.074 C 
ATOM     13  C   UNL     1      -1.151   1.631   3.381  0.00  0.00    +0.022 C 
ATOM     14  C   UNL     1      -2.447   1.828   4.170  0.00  0.00    +0.002 C 
ATOM     15  C   UNL     1      -2.371   1.043   5.481  0.00  0.00    +0.000 C 
ATOM     16  C   UNL     1      -2.181  -0.444   5.175  0.00  0.00    +0.002 C 
ATOM     17  C   UNL     1      -0.885  -0.641   4.387  0.00  0.00    +0.022 C 
ENDBRANCH   1  12
BRANCH   1  18
ATOM     18  C   UNL     1       1.546   0.468   2.851  0.00  0.00    +0.133 C 
BRANCH  18  19
ATOM     19  C   UNL     1       2.276  -0.650   3.598  0.00  0.00    +0.174 C 
BRANCH  19  20
ATOM     20  O   UNL     1       2.660  -1.669   2.673  0.00  0.00    -0.393 OA
ATOM     21  H   UNL     1       3.129  -2.412   3.078  0.00  0.00    +0.209 HD
ENDBRANCH  19  20
ENDBRANCH  18  19
ENDBRANCH   1  18
TORSDOF 6
