REMARK  Name = ZINC11872061
REMARK  8 active torsions:
REMARK  status: ('A' for Active; 'I' for Inactive)
REMARK    1  A    between atoms: C_1  and  O_2
REMARK    2  A    between atoms: O_2  and  C_3
REMARK    3  A    between atoms: C_3  and  C_4
REMARK    4  A    between atoms: C_7  and  C_9
REMARK    5  A    between atoms: C_9  and  N_56
REMARK    6  A    between atoms: C_12  and  C_15
REMARK    7  A    between atoms: C_15  and  C_22
REMARK    8  A    between atoms: C_22  and  C_23
REMARK                            x       y       z     vdW  Elec       q    Type
REMARK                         _______ _______ _______ _____ _____    ______ ____
ROOT
ATOM      1  C   UNL     1      -0.138   0.915   2.505  0.00  0.00    +0.119 C 
ATOM      2  C   UNL     1       1.358   1.139   2.405  0.00  0.00    +0.244 C 
ATOM      3  O   UNL     1       1.937   2.202   2.337  0.00  0.00    -0.273 OA
ATOM      4  N   UNL     1       1.910  -0.090   2.406  0.00  0.00    -0.238 N 
ATOM      5  C   UNL     1       0.981  -1.049   2.491  0.00  0.00    +0.307 C 
ATOM      6  O   UNL     1       1.236  -2.237   2.510  0.00  0.00    -0.252 OA
ATOM      7  N   UNL     1      -0.267  -0.551   2.555  0.00  0.00    -0.284 N 
ATOM      8  H   UNL     1       2.864  -0.259   2.350  0.00  0.00    +0.159 HD
ATOM      9  H   UNL     1      -1.091  -1.059   2.621  0.00  0.00    +0.151 HD
ENDROOT
BRANCH   1  12
ATOM     10  C   UNL     1      -0.993   1.385  -1.220  0.00  0.00    -0.078 C 
ATOM     11  C   UNL     1      -0.238   0.867   0.007  0.00  0.00    -0.013 C 
ATOM     12  C   UNL     1      -0.850   1.476   1.272  0.00  0.00    +0.018 C 
ATOM     13  C   UNL     1      -2.338   1.119   1.332  0.00  0.00    -0.013 C 
ATOM     14  C   UNL     1      -3.032   1.629   0.067  0.00  0.00    -0.078 C 
ATOM     15  N   UNL     1      -2.413   0.987  -1.112  0.00  0.00    +0.384 N 
ATOM     16  H   UNL     1      -2.466  -0.032  -1.003  0.00  0.00    -0.081 HD
BRANCH  15  17
ATOM     17  C   UNL     1      -3.140   1.376  -2.339  0.00  0.00    -0.003 C 
BRANCH  17  21
ATOM     18  C   UNL     1      -6.618   0.316  -2.010  0.00  0.00    +0.131 A 
ATOM     19  C   UNL     1      -6.741   1.586  -1.585  0.00  0.00    +0.047 A 
ATOM     20  C   UNL     1      -5.452   2.163  -1.642  0.00  0.00    +0.043 A 
ATOM     21  C   UNL     1      -4.620   1.214  -2.108  0.00  0.00    +0.089 A 
ATOM     22  O   UNL     1      -5.331   0.096  -2.326  0.00  0.00    -0.464 OA
BRANCH  18  23
ATOM     23  C   UNL     1      -7.735  -0.690  -2.116  0.00  0.00    +0.233 C 
BRANCH  23  25
ATOM     24  C   UNL     1      -9.405  -1.525  -3.619  0.00  0.00    +0.194 C 
ATOM     25  O   UNL     1      -8.329  -0.608  -3.413  0.00  0.00    -0.375 OA
ENDBRANCH  23  25
ENDBRANCH  18  23
ENDBRANCH  17  21
ENDBRANCH  15  17
ENDBRANCH   1  12
BRANCH   1  26
ATOM     26  C   UNL     1      -0.696   1.549   3.781  0.00  0.00    +0.072 C 
BRANCH  26  27
ATOM     27  C   UNL     1      -0.067   0.894   4.983  0.00  0.00    -0.027 A 
ATOM     28  C   UNL     1      -0.587  -0.287   5.479  0.00  0.00    +0.005 A 
ATOM     29  C   UNL     1      -0.007  -0.890   6.579  0.00  0.00    +0.000 A 
ATOM     30  C   UNL     1       1.088  -0.307   7.191  0.00  0.00    +0.001 A 
ATOM     31  C   UNL     1       1.605   0.876   6.699  0.00  0.00    +0.020 A 
ATOM     32  C   UNL     1       1.028   1.478   5.595  0.00  0.00    +0.044 A 
ATOM     33 CL   UNL     1       1.678   2.964   4.977  0.00  0.00    -0.083 Cl
ENDBRANCH  26  27
ENDBRANCH   1  26
TORSDOF 7
