REMARK  Name = ZINC14159363
REMARK  6 active torsions:
REMARK  status: ('A' for Active; 'I' for Inactive)
REMARK    1  A    between atoms: C_1  and  C_2
REMARK    2  A    between atoms: C_4  and  C_33
REMARK    3  A    between atoms: N_10  and  C_11
REMARK    4  A    between atoms: C_11  and  N_13
REMARK    5  A    between atoms: N_13  and  C_14
REMARK    6  A    between atoms: N_22  and  C_23
REMARK                            x       y       z     vdW  Elec       q    Type
REMARK                         _______ _______ _______ _____ _____    ______ ____
ROOT
ATOM      1  C   UNL     1       1.218   3.925   2.736  0.00  0.00    +0.066 C 
ATOM      2  C   UNL     1       1.194   2.508   2.224  0.00  0.00    +0.044 A 
ATOM      3  C   UNL     1       2.193   1.616   2.581  0.00  0.00    +0.046 A 
ATOM      4  C   UNL     1       2.132   0.322   2.088  0.00  0.00    +0.044 A 
ATOM      5  N   UNL     1       1.130  -0.021   1.296  0.00  0.00    -0.217 NA
ATOM      6  C   UNL     1       0.192   0.857   0.974  0.00  0.00    +0.231 A 
ATOM      7  N   UNL     1       0.222   2.102   1.424  0.00  0.00    -0.217 NA
ATOM      8  N   UNL     1      -0.846   0.463   0.139  0.00  0.00    -0.297 N 
ATOM      9  C   UNL     1      -1.905   1.303  -0.080  0.00  0.00    +0.200 C 
ATOM     10  N   UNL     1      -2.952   0.882  -0.767  0.00  0.00    -0.159 NA
ATOM     11  N   UNL     1      -1.879   2.578   0.412  0.00  0.00    -0.326 N 
ATOM     12  C   UNL     1       3.196  -0.683   2.450  0.00  0.00    +0.066 C 
ATOM     13  H   UNL     1      -0.819  -0.406  -0.291  0.00  0.00    +0.172 HD
ATOM     14  H   UNL     1      -1.206   2.833   1.064  0.00  0.00    +0.169 HD
ENDROOT
BRANCH  11  15
ATOM     15  C   UNL     1      -2.821   3.515  -0.023  0.00  0.00    +0.061 A 
ATOM     16  C   UNL     1      -2.508   4.861  -0.036  0.00  0.00    +0.037 A 
ATOM     17  C   UNL     1      -3.490   5.763  -0.482  0.00  0.00    +0.002 A 
ATOM     18  C   UNL     1      -3.245   7.146  -0.524  0.00  0.00    +0.010 A 
ATOM     19  C   UNL     1      -4.220   7.989  -0.963  0.00  0.00    +0.001 A 
ATOM     20  C   UNL     1      -5.459   7.498  -1.370  0.00  0.00    +0.002 A 
ATOM     21  C   UNL     1      -5.731   6.165  -1.342  0.00  0.00    +0.028 A 
ATOM     22  C   UNL     1      -4.750   5.262  -0.896  0.00  0.00    +0.071 A 
ATOM     23  N   UNL     1      -4.992   3.948  -0.859  0.00  0.00    -0.253 NA
ATOM     24  C   UNL     1      -4.085   3.095  -0.452  0.00  0.00    +0.137 A 
ENDBRANCH  11  15
BRANCH  10  25
ATOM     25  C   UNL     1      -3.034  -0.403  -1.143  0.00  0.00    +0.161 C 
ATOM     26  S   UNL     1      -3.141  -1.635   0.040  0.00  0.00    -0.016 S 
BRANCH  25  27
ATOM     27  N   UNL     1      -3.032  -0.723  -2.452  0.00  0.00    -0.295 N 
ATOM     28  H   UNL     1      -2.887  -0.035  -3.120  0.00  0.00    +0.154 HD
BRANCH  27  29
ATOM     29  C   UNL     1      -3.240  -2.050  -2.848  0.00  0.00    +0.034 A 
ATOM     30  C   UNL     1      -2.487  -2.593  -3.881  0.00  0.00    +0.026 A 
ATOM     31  C   UNL     1      -2.689  -3.904  -4.266  0.00  0.00    +0.041 A 
ATOM     32  C   UNL     1      -3.649  -4.673  -3.632  0.00  0.00    +0.142 A 
ATOM     33  C   UNL     1      -4.406  -4.132  -2.605  0.00  0.00    +0.078 A 
ATOM     34  C   UNL     1      -4.203  -2.822  -2.212  0.00  0.00    +0.046 A 
ATOM     35 CL   UNL     1      -5.610  -5.099  -1.812  0.00  0.00    -0.081 Cl
ATOM     36  F   UNL     1      -3.848  -5.954  -4.014  0.00  0.00    -0.204 F 
ENDBRANCH  27  29
ENDBRANCH  25  27
ENDBRANCH  10  25
TORSDOF 4
