REMARK  Name = ZINC38187573
REMARK  5 active torsions:
REMARK  status: ('A' for Active; 'I' for Inactive)
REMARK    1  A    between atoms: C_3  and  C_10
REMARK    2  A    between atoms: C_5  and  N_7
REMARK    3  A    between atoms: C_11  and  C_12
REMARK    4  A    between atoms: C_15  and  N_16
REMARK    5  A    between atoms: N_16  and  C_17
REMARK                            x       y       z     vdW  Elec       q    Type
REMARK                         _______ _______ _______ _____ _____    ______ ____
ROOT
ATOM      1  C   UNL     1       4.793   4.214  -0.075  0.00  0.00    +0.225 C 
ATOM      2  N   UNL     1       4.885   5.550  -0.064  0.00  0.00    -0.205 NA
ATOM      3  C   UNL     1       6.154   5.905  -0.053  0.00  0.00    +0.165 C 
ATOM      4  C   UNL     1       6.688   7.270  -0.038  0.00  0.00    +0.107 C 
ATOM      5  C   UNL     1       6.936   4.638  -0.059  0.00  0.00    +0.366 C 
ATOM      6  O   UNL     1       8.143   4.520  -0.053  0.00  0.00    -0.243 OA
ATOM      7  O   UNL     1       6.015   3.648  -0.068  0.00  0.00    -0.403 OA
ENDROOT
BRANCH   1   9
ATOM      8  C   UNL     1       3.609   2.112  -0.093  0.00  0.00    +0.013 C 
ATOM      9  C   UNL     1       3.594   3.505  -0.087  0.00  0.00    +0.068 C 
BRANCH   8  12
ATOM     10  C   UNL     1      -0.008   1.372  -0.124  0.00  0.00    +0.003 A 
ATOM     11  C   UNL     1       1.162   2.078  -0.111  0.00  0.00    +0.008 A 
ATOM     12  C   UNL     1       2.392   1.392  -0.105  0.00  0.00    -0.023 A 
ATOM     13  C   UNL     1       2.401  -0.017  -0.111  0.00  0.00    +0.040 A 
ATOM     14  C   UNL     1       1.219  -0.702  -0.123  0.00  0.00    +0.127 A 
ATOM     15  C   UNL     1       0.013  -0.015  -0.130  0.00  0.00    +0.033 A 
BRANCH  14  16
ATOM     16  N   UNL     1       1.224  -2.182  -0.130  0.00  0.00    +0.056 N 
ATOM     17  O   UNL     1       2.368  -2.836  -0.124  0.00  0.00    -0.126 OA
ATOM     18  O   UNL     1       0.086  -2.845  -0.142  0.00  0.00    -0.126 OA
ENDBRANCH  14  16
ENDBRANCH   8  12
ENDBRANCH   1   9
BRANCH   4  19
ATOM     19  N   UNL     1       8.000   7.470  -0.029  0.00  0.00    -0.319 N 
ATOM     20  H   UNL     1       8.604   6.715   0.047  0.00  0.00    +0.152 HD
BRANCH  19  21
ATOM     21  C   UNL     1       8.507   8.758  -0.127  0.00  0.00    +0.031 A 
ATOM     22  C   UNL     1       9.879   8.961  -0.252  0.00  0.00    +0.024 A 
ATOM     23  C   UNL     1      10.379  10.243  -0.349  0.00  0.00    +0.017 A 
ATOM     24  C   UNL     1       9.518  11.328  -0.323  0.00  0.00    +0.018 A 
ATOM     25  C   UNL     1       8.152  11.131  -0.199  0.00  0.00    +0.017 A 
ATOM     26  C   UNL     1       7.644   9.852  -0.108  0.00  0.00    +0.024 A 
ATOM     27 BR   UNL     1      10.209  13.084  -0.456  0.00  0.00    -0.050 Br
ENDBRANCH  19  21
ENDBRANCH   4  19
TORSDOF 5
