REMARK  Name = ZINC38653207
REMARK  8 active torsions:
REMARK  status: ('A' for Active; 'I' for Inactive)
REMARK    1  A    between atoms: C_1  and  C_2
REMARK    2  A    between atoms: C_4  and  C_31
REMARK    3  A    between atoms: C_8  and  C_12
REMARK    4  A    between atoms: C_12  and  C_14
REMARK    5  A    between atoms: C_12  and  S_15
REMARK    6  A    between atoms: S_15  and  C_16
REMARK    7  A    between atoms: C_20  and  C_23
REMARK    8  A    between atoms: N_21  and  N_22
REMARK                            x       y       z     vdW  Elec       q    Type
REMARK                         _______ _______ _______ _____ _____    ______ ____
ROOT
ATOM      1  C   UNL     1      -4.090  -5.284   6.323  0.00  0.00    +0.252 C 
ATOM      2  N   UNL     1      -3.451  -4.520   7.408  0.00  0.00    -0.236 N 
ATOM      3  N   UNL     1      -2.299  -5.230   7.764  0.00  0.00    -0.167 NA
ATOM      4  C   UNL     1      -2.162  -6.299   7.051  0.00  0.00    +0.162 C 
ATOM      5  N   UNL     1      -3.203  -6.443   6.130  0.00  0.00    -0.220 N 
ATOM      6  H   UNL     1      -3.767  -3.690   7.799  0.00  0.00    +0.171 HD
ENDROOT
BRANCH   4   7
ATOM      7  C   UNL     1      -1.042  -7.254   7.193  0.00  0.00    +0.019 A 
ATOM      8  C   UNL     1      -0.454  -7.464   8.442  0.00  0.00    +0.011 A 
ATOM      9  C   UNL     1       0.590  -8.356   8.568  0.00  0.00    +0.002 A 
ATOM     10  C   UNL     1       1.056  -9.043   7.461  0.00  0.00    +0.020 A 
ATOM     11  C   UNL     1       0.478  -8.840   6.220  0.00  0.00    +0.042 A 
ATOM     12  C   UNL     1      -0.572  -7.953   6.081  0.00  0.00    +0.031 A 
ATOM     13 CL   UNL     1       1.069  -9.706   4.836  0.00  0.00    -0.084 Cl
ENDBRANCH   4   7
BRANCH   5  14
ATOM     14  N   UNL     1      -3.366  -7.457   5.229  0.00  0.00    -0.250 NA
ATOM     15  H   UNL     1      -2.665  -8.171   5.357  0.00  0.00    +0.141 HD
ATOM     16  H   UNL     1      -4.295  -7.847   5.287  0.00  0.00    +0.141 HD
ENDBRANCH   5  14
BRANCH   1  17
ATOM     17  S   UNL     1      -4.175  -4.289   4.809  0.00  0.00    -0.106 S 
BRANCH  17  18
ATOM     18  C   UNL     1      -2.450  -3.828   4.490  0.00  0.00    +0.112 C 
ATOM     19  C   UNL     1      -1.947  -2.923   5.617  0.00  0.00    +0.027 C 
BRANCH  18  26
ATOM     20  C   UNL     1      -0.574   0.974  -0.714  0.00  0.00    +0.024 C 
ATOM     21  C   UNL     1      -0.585  -0.553  -0.620  0.00  0.00    +0.076 C 
ATOM     22  C   UNL     1      -1.981  -1.070  -0.360  0.00  0.00    -0.045 C 
ATOM     23  C   UNL     1      -2.195  -1.746   0.778  0.00  0.00    +0.071 C 
ATOM     24  C   UNL     1      -1.047  -1.933   1.691  0.00  0.00    +0.111 C 
ATOM     25  N   UNL     1      -1.192  -2.585   2.821  0.00  0.00    -0.226 NA
ATOM     26  C   UNL     1      -2.362  -3.092   3.177  0.00  0.00    +0.136 C 
ATOM     27  N   UNL     1      -3.447  -2.988   2.449  0.00  0.00    -0.160 NA
ATOM     28  C   UNL     1      -3.471  -2.357   1.271  0.00  0.00    +0.271 C 
ATOM     29  O   UNL     1      -4.498  -2.279   0.619  0.00  0.00    -0.268 OA
ATOM     30  S   UNL     1       0.312  -1.127   0.879  0.00  0.00    -0.098 S 
ATOM     31  C   UNL     1      -3.096  -0.834  -1.347  0.00  0.00    +0.041 C 
ENDBRANCH  18  26
ENDBRANCH  17  18
ENDBRANCH   1  17
TORSDOF 5
