REMARK  Name = ZINC08960780
REMARK  6 active torsions:
REMARK  status: ('A' for Active; 'I' for Inactive)
REMARK    1  A    between atoms: C_1  and  C_2
REMARK    2  A    between atoms: C_2  and  O_3
REMARK    3  A    between atoms: O_3  and  C_4
REMARK    4  A    between atoms: C_11  and  C_13
REMARK    5  A    between atoms: N_15  and  C_16
REMARK    6  A    between atoms: C_17  and  C_25
REMARK                            x       y       z     vdW  Elec       q    Type
REMARK                         _______ _______ _______ _____ _____    ______ ____
ROOT
ATOM      1  C   UNL     1       1.634   4.435   0.011  0.00  0.00    +0.284 C 
ATOM      2  O   UNL     1       0.418   4.400   0.023  0.00  0.00    -0.266 OA
ATOM      3  N   UNL     1       2.341   3.288  -0.003  0.00  0.00    -0.273 N 
ATOM      4  H   UNL     1       3.311   3.316  -0.012  0.00  0.00    +0.156 HD
ENDROOT
BRANCH   1  12
ATOM      5  C   UNL     1       5.216   7.876  -0.004  0.00  0.00    +0.163 A 
ATOM      6  C   UNL     1       5.229   9.258   0.004  0.00  0.00    +0.049 A 
ATOM      7  C   UNL     1       4.043   9.978   0.020  0.00  0.00    +0.004 A 
ATOM      8  C   UNL     1       2.840   9.331   0.027  0.00  0.00    +0.012 A 
ATOM      9  C   UNL     1       2.802   7.934   0.019  0.00  0.00    +0.025 A 
ATOM     10  C   UNL     1       3.999   7.196   0.004  0.00  0.00    +0.177 A 
ATOM     11  O   UNL     1       3.672   5.888   0.004  0.00  0.00    -0.447 OA
ATOM     12  C   UNL     1       2.332   5.728   0.011  0.00  0.00    +0.191 A 
ATOM     13  C   UNL     1       1.725   6.944   0.024  0.00  0.00    +0.063 A 
BRANCH   5  14
ATOM     14  O   UNL     1       6.385   7.182  -0.019  0.00  0.00    -0.489 OA
BRANCH  14  16
ATOM     15  C   UNL     1       8.795   7.000  -0.043  0.00  0.00    +0.048 C 
ATOM     16  C   UNL     1       7.593   7.946  -0.026  0.00  0.00    +0.226 C 
ENDBRANCH  14  16
ENDBRANCH   5  14
ENDBRANCH   1  12
BRANCH   3  17
ATOM     17  C   UNL     1       1.684   2.069  -0.003  0.00  0.00    +0.085 A 
ATOM     18  C   UNL     1       2.232   0.794  -0.015  0.00  0.00    +0.068 A 
ATOM     19  C   UNL     1       1.312  -0.332  -0.012  0.00  0.00    -0.023 A 
ATOM     20  C   UNL     1       0.002  -0.004   0.002  0.00  0.00    -0.004 A 
ATOM     21  S   UNL     1      -0.022   1.766   0.012  0.00  0.00    -0.077 S 
ATOM     22  C   UNL     1      -1.164  -0.944   0.007  0.00  0.00    +0.043 C 
ATOM     23  C   UNL     1      -0.661  -2.341  -0.384  0.00  0.00    +0.005 C 
ATOM     24  C   UNL     1       0.590  -2.663   0.440  0.00  0.00    +0.005 C 
ATOM     25  C   UNL     1       1.757  -1.789  -0.024  0.00  0.00    +0.037 C 
BRANCH  18  26
ATOM     26  C   UNL     1       3.683   0.590  -0.030  0.00  0.00    +0.244 C 
ATOM     27  O   UNL     1       4.276   0.510  -1.090  0.00  0.00    -0.270 OA
ATOM     28  N   UNL     1       4.362   0.490   1.131  0.00  0.00    -0.325 N 
ATOM     29  H   UNL     1       3.889   0.553   1.976  0.00  0.00    +0.145 HD
ATOM     30  H   UNL     1       5.322   0.355   1.121  0.00  0.00    +0.145 HD
ENDBRANCH  18  26
ENDBRANCH   3  17
TORSDOF 5
