REMARK  Name = ZINC39662869
REMARK  7 active torsions:
REMARK  status: ('A' for Active; 'I' for Inactive)
REMARK    1  A    between atoms: C_1  and  C_2
REMARK    2  A    between atoms: C_7  and  C_8
REMARK    3  A    between atoms: C_8  and  C_9
REMARK    4  A    between atoms: C_13  and  C_22
REMARK    5  A    between atoms: N_24  and  C_25
REMARK    6  A    between atoms: C_25  and  C_26
REMARK    7  A    between atoms: C_29  and  C_32
REMARK                            x       y       z     vdW  Elec       q    Type
REMARK                         _______ _______ _______ _____ _____    ______ ____
ROOT
ATOM      1  C   UNL     1      -1.105   0.283   2.989  0.00  0.00    +0.220 C 
ATOM      2  O   UNL     1      -1.961  -0.121   2.230  0.00  0.00    -0.275 OA
ATOM      3  N   UNL     1      -1.454   0.983   4.086  0.00  0.00    -0.300 N 
ATOM      4  C   UNL     1      -0.559   1.559   5.118  0.00  0.00    +0.121 C 
ATOM      5  C   UNL     1      -1.190   2.928   5.460  0.00  0.00    +0.100 C 
ATOM      6  C   UNL     1      -2.672   2.784   5.077  0.00  0.00    -0.004 C 
ATOM      7  C   UNL     1      -2.818   1.357   4.530  0.00  0.00    +0.115 C 
ATOM      8  C   UNL     1      -3.038   3.797   3.995  0.00  0.00    -0.010 C 
ATOM      9  C   UNL     1      -4.530   3.673   3.671  0.00  0.00    -0.082 C 
ATOM     10  N   UNL     1      -5.318   3.917   4.886  0.00  0.00    +0.379 N 
ATOM     11  C   UNL     1      -5.027   2.884   5.887  0.00  0.00    -0.082 C 
ATOM     12  C   UNL     1      -3.557   2.974   6.305  0.00  0.00    -0.010 C 
ATOM     13  H   UNL     1      -5.082   4.824   5.261  0.00  0.00    -0.086 HD
ATOM     14  H   UNL     1      -6.300   3.896   4.657  0.00  0.00    -0.086 HD
ENDROOT
BRANCH   5  15
ATOM     15  C   UNL     1      -0.540   4.022   4.653  0.00  0.00    +0.218 C 
ATOM     16  O   UNL     1      -0.094   3.779   3.551  0.00  0.00    -0.275 OA
ATOM     17  N   UNL     1      -0.454   5.270   5.155  0.00  0.00    -0.315 N 
ATOM     18  H   UNL     1      -0.810   5.463   6.036  0.00  0.00    +0.149 HD
BRANCH  17  19
ATOM     19  C   UNL     1       0.178   6.333   4.370  0.00  0.00    +0.107 C 
BRANCH  19  20
ATOM     20  C   UNL     1       0.146   7.641   5.164  0.00  0.00    +0.006 C 
ATOM     21  C   UNL     1      -1.306   8.086   5.354  0.00  0.00    +0.006 C 
ATOM     22  C   UNL     1      -1.339   9.393   6.147  0.00  0.00    +0.015 C 
ATOM     23  C   UNL     1      -0.570  10.473   5.383  0.00  0.00    +0.102 C 
ATOM     24  C   UNL     1       0.881  10.028   5.193  0.00  0.00    +0.015 C 
ATOM     25  C   UNL     1       0.914   8.720   4.399  0.00  0.00    +0.006 C 
BRANCH  23  26
ATOM     26  C   UNL     1      -0.602  11.761   6.165  0.00  0.00    +0.359 C 
ATOM     27  O   UNL     1       0.323  12.551   6.077  0.00  0.00    -0.246 OA
ATOM     28  O   UNL     1      -1.554  12.014   6.884  0.00  0.00    -0.246 OA
ENDBRANCH  23  26
ENDBRANCH  19  20
ENDBRANCH  17  19
ENDBRANCH   5  15
BRANCH   1  29
ATOM     29  C   UNL     1       0.348   0.001   2.704  0.00  0.00    +0.131 C 
BRANCH  29  36
ATOM     30  C   UNL     1       0.400   1.362   0.157  0.00  0.00    +0.044 C 
ATOM     31  C   UNL     1       0.490  -0.141   0.210  0.00  0.00    -0.047 A 
ATOM     32  C   UNL     1       0.604  -0.868  -0.961  0.00  0.00    +0.003 A 
ATOM     33  C   UNL     1       0.687  -2.247  -0.912  0.00  0.00    +0.000 A 
ATOM     34  C   UNL     1       0.657  -2.899   0.307  0.00  0.00    +0.000 A 
ATOM     35  C   UNL     1       0.544  -2.172   1.477  0.00  0.00    +0.004 A 
ATOM     36  C   UNL     1       0.465  -0.792   1.428  0.00  0.00    -0.036 A 
ENDBRANCH  29  36
ENDBRANCH   1  29
TORSDOF 6
