REMARK  Name = ZINC13286610
REMARK  8 active torsions:
REMARK  status: ('A' for Active; 'I' for Inactive)
REMARK    1  A    between atoms: C_2  and  C_3
REMARK    2  A    between atoms: C_3  and  N_4
REMARK    3  A    between atoms: C_8  and  S_24
REMARK    4  A    between atoms: N_13  and  C_14
REMARK    5  A    between atoms: C_14  and  C_16
REMARK    6  A    between atoms: C_16  and  C_17
REMARK    7  A    between atoms: C_17  and  C_18
REMARK    8  A    between atoms: S_24  and  N_27
REMARK                            x       y       z     vdW  Elec       q    Type
REMARK                         _______ _______ _______ _____ _____    ______ ____
ROOT
ATOM      1  N   UNL     1       1.032  -2.113  -0.019  0.00  0.00    -0.310 N 
ATOM      2  C   UNL     1       1.196  -0.741  -0.013  0.00  0.00    +0.059 A 
ATOM      3  C   UNL     1       2.392  -0.005  -0.020  0.00  0.00    +0.029 A 
ATOM      4  C   UNL     1       2.372   1.369  -0.013  0.00  0.00    +0.030 A 
ATOM      5  C   UNL     1       1.177   2.070   0.002  0.00  0.00    +0.106 A 
ATOM      6  C   UNL     1      -0.017   1.371   0.010  0.00  0.00    +0.045 A 
ATOM      7  C   UNL     1       0.002  -0.004   0.002  0.00  0.00    +0.041 A 
ATOM      8  S   UNL     1      -1.252  -1.261   0.007  0.00  0.00    -0.052 S 
ATOM      9  C   UNL     1      -0.216  -2.652  -0.010  0.00  0.00    +0.167 A 
ATOM     10  N   UNL     1      -0.560  -3.938  -0.014  0.00  0.00    -0.156 NA
ENDROOT
BRANCH   5  11
ATOM     11  S   UNL     1       1.178   3.832   0.012  0.00  0.00    +0.056 S 
ATOM     12  O   UNL     1       2.418   4.240  -0.549  0.00  0.00    -0.153 OA
ATOM     13  O   UNL     1      -0.072   4.242  -0.525  0.00  0.00    -0.153 OA
BRANCH  11  14
ATOM     14  N   UNL     1       1.194   4.313   1.596  0.00  0.00    -0.204 NA
ATOM     15  H   UNL     1       1.616   5.150   1.845  0.00  0.00    +0.144 HD
ATOM     16  H   UNL     1       0.780   3.758   2.276  0.00  0.00    +0.144 HD
ENDBRANCH  11  14
ENDBRANCH   5  11
BRANCH  10  17
ATOM     17  C   UNL     1      -1.843  -4.282  -0.004  0.00  0.00    +0.239 C 
ATOM     18  O   UNL     1      -2.703  -3.422   0.009  0.00  0.00    -0.274 OA
BRANCH  17  19
ATOM     19  C   UNL     1      -2.233  -5.737  -0.009  0.00  0.00    +0.102 C 
BRANCH  19  20
ATOM     20  C   UNL     1      -3.759  -5.857   0.005  0.00  0.00    +0.044 C 
BRANCH  20  21
ATOM     21  C   UNL     1      -4.149  -7.312  -0.000  0.00  0.00    -0.047 A 
ATOM     22  C   UNL     1      -4.344  -7.972  -1.199  0.00  0.00    +0.003 A 
ATOM     23  C   UNL     1      -4.698  -9.308  -1.204  0.00  0.00    +0.000 A 
ATOM     24  C   UNL     1      -4.864  -9.983  -0.009  0.00  0.00    +0.000 A 
ATOM     25  C   UNL     1      -4.674  -9.322   1.190  0.00  0.00    +0.000 A 
ATOM     26  C   UNL     1      -4.316  -7.987   1.195  0.00  0.00    +0.003 A 
ENDBRANCH  20  21
ENDBRANCH  19  20
ENDBRANCH  17  19
ENDBRANCH  10  17
BRANCH   1  27
ATOM     27  C   UNL     1       2.206  -2.989  -0.035  0.00  0.00    +0.212 C 
BRANCH  27  29
ATOM     28  C   UNL     1       2.889  -3.504  -2.539  0.00  0.00    +0.005 C 
ATOM     29  C   UNL     1       2.586  -3.276  -1.428  0.00  0.00    -0.084 C 
ENDBRANCH  27  29
ENDBRANCH   1  27
TORSDOF 8
