REMARK  Name = ZINC29650468
REMARK  7 active torsions:
REMARK  status: ('A' for Active; 'I' for Inactive)
REMARK    1  A    between atoms: C_1  and  C_2
REMARK    2  A    between atoms: C_5  and  C_27
REMARK    3  A    between atoms: C_10  and  C_12
REMARK    4  A    between atoms: C_17  and  N_18
REMARK    5  A    between atoms: N_18  and  C_19
REMARK    6  A    between atoms: C_19  and  C_20
REMARK    7  A    between atoms: N_25  and  C_26
REMARK                            x       y       z     vdW  Elec       q    Type
REMARK                         _______ _______ _______ _____ _____    ______ ____
ROOT
ATOM      1  C   UNL     1      -6.002   2.200   0.143  0.00  0.00    +0.058 A 
ATOM      2  C   UNL     1      -7.263   1.679   0.446  0.00  0.00    +0.015 A 
ATOM      3  C   UNL     1      -7.493   0.326   0.329  0.00  0.00    +0.001 A 
ATOM      4  C   UNL     1      -6.481  -0.523  -0.089  0.00  0.00    +0.002 A 
ATOM      5  C   UNL     1      -5.232  -0.024  -0.397  0.00  0.00    +0.024 A 
ATOM      6  C   UNL     1      -4.979   1.338  -0.279  0.00  0.00    +0.040 A 
ENDROOT
BRANCH   1  14
ATOM      7  C   UNL     1      -4.322   3.426   3.586  0.00  0.00    +0.009 C 
ATOM      8  C   UNL     1      -5.755   3.924   3.786  0.00  0.00    +0.004 C 
ATOM      9  C   UNL     1      -5.747   5.444   3.961  0.00  0.00    +0.009 C 
ATOM     10  C   UNL     1      -5.118   6.098   2.728  0.00  0.00    +0.004 C 
ATOM     11  C   UNL     1      -5.954   5.757   1.491  0.00  0.00    +0.111 C 
ATOM     12  N   UNL     1      -6.088   4.297   1.398  0.00  0.00    -0.297 N 
ATOM     13  C   UNL     1      -6.604   3.559   2.559  0.00  0.00    +0.111 C 
ATOM     14  C   UNL     1      -5.749   3.647   0.267  0.00  0.00    +0.248 C 
ATOM     15  O   UNL     1      -5.234   4.255  -0.652  0.00  0.00    -0.270 OA
ATOM     16  C   UNL     1      -5.081   7.616   2.918  0.00  0.00    +0.009 C 
ENDBRANCH   1  14
BRANCH   6  17
ATOM     17  N   UNL     1      -3.721   1.843  -0.584  0.00  0.00    -0.335 N 
ATOM     18  H   UNL     1      -3.497   2.904  -0.403  0.00  0.00    +0.147 HD
BRANCH  17  19
ATOM     19  C   UNL     1      -2.695   0.961  -1.145  0.00  0.00    +0.198 C 
BRANCH  19  20
ATOM     20  C   UNL     1      -1.432   1.749  -1.383  0.00  0.00    +0.237 C 
ATOM     21  O   UNL     1      -1.394   2.930  -1.110  0.00  0.00    -0.274 OA
ATOM     22  N   UNL     1      -0.345   1.141  -1.899  0.00  0.00    -0.239 N 
ATOM     23  C   UNL     1       0.782   1.847  -2.117  0.00  0.00    +0.306 C 
ATOM     24  O   UNL     1       0.820   3.030  -1.843  0.00  0.00    -0.252 OA
ATOM     25  N   UNL     1       1.867   1.240  -2.638  0.00  0.00    -0.302 N 
ATOM     26  C   UNL     1       3.092   2.007  -2.875  0.00  0.00    +0.129 C 
ATOM     27  H   UNL     1      -0.379   0.069  -2.142  0.00  0.00    +0.159 HD
ATOM     28  H   UNL     1       1.832   0.169  -2.885  0.00  0.00    +0.150 HD
ENDBRANCH  19  20
ENDBRANCH  17  19
ENDBRANCH   6  17
TORSDOF 4
