REMARK  Name = ZINC04587458
REMARK  6 active torsions:
REMARK  status: ('A' for Active; 'I' for Inactive)
REMARK    1  A    between atoms: C_1  and  O_2
REMARK    2  A    between atoms: O_2  and  C_3
REMARK    3  A    between atoms: C_7  and  C_10
REMARK    4  A    between atoms: C_8  and  O_9
REMARK    5  A    between atoms: N_11  and  N_12
REMARK    6  A    between atoms: C_20  and  O_23
REMARK                            x       y       z     vdW  Elec       q    Type
REMARK                         _______ _______ _______ _____ _____    ______ ____
ROOT
ATOM      1  N   UNL     1       0.931  -6.219   1.358  0.00  0.00    -0.221 N 
ATOM      2  C   UNL     1       0.358  -6.986   0.354  0.00  0.00    +0.139 A 
ATOM      3  C   UNL     1       0.429  -8.384   0.436  0.00  0.00    +0.046 A 
ATOM      4  C   UNL     1      -0.130  -9.150  -0.543  0.00  0.00    +0.015 A 
ATOM      5  C   UNL     1      -0.768  -8.500  -1.618  0.00  0.00    +0.022 A 
ATOM      6  C   UNL     1      -1.365  -9.231  -2.659  0.00  0.00    +0.052 A 
ATOM      7  C   UNL     1      -1.976  -8.576  -3.686  0.00  0.00    +0.044 A 
ATOM      8  C   UNL     1      -2.019  -7.184  -3.721  0.00  0.00    +0.086 A 
ATOM      9  C   UNL     1      -1.445  -6.435  -2.718  0.00  0.00    +0.161 A 
ATOM     10  C   UNL     1      -0.807  -7.085  -1.643  0.00  0.00    +0.117 A 
ATOM     11  N   UNL     1      -0.245  -6.385  -0.651  0.00  0.00    -0.227 NA
ATOM     12 CL   UNL     1      -2.806  -6.383  -5.045  0.00  0.00    -0.080 Cl
ATOM     13 CL   UNL     1      -1.323 -10.966  -2.638  0.00  0.00    -0.083 Cl
ATOM     14  H   UNL     1       1.378  -6.650   2.103  0.00  0.00    +0.176 HD
ENDROOT
BRANCH   1  16
ATOM     15  C   UNL     1       1.401  -4.103   2.234  0.00  0.00    +0.142 C 
ATOM     16  N   UNL     1       0.864  -4.821   1.295  0.00  0.00    -0.189 NA
BRANCH  15  21
ATOM     17  C   UNL     1       0.626  -0.619   1.042  0.00  0.00    +0.162 A 
ATOM     18  C   UNL     1       1.202   0.139   2.051  0.00  0.00    +0.049 A 
ATOM     19  C   UNL     1       1.839  -0.480   3.112  0.00  0.00    +0.004 A 
ATOM     20  C   UNL     1       1.907  -1.856   3.178  0.00  0.00    +0.013 A 
ATOM     21  C   UNL     1       1.330  -2.632   2.169  0.00  0.00    +0.040 A 
ATOM     22  C   UNL     1       0.682  -2.006   1.097  0.00  0.00    +0.167 A 
BRANCH  17  24
ATOM     23  C   UNL     1      -0.017   1.425   0.010  0.00  0.00    +0.277 C 
ATOM     24  O   UNL     1       0.002  -0.004   0.002  0.00  0.00    -0.491 OA
ENDBRANCH  17  24
BRANCH  22  25
ATOM     25  O   UNL     1       0.114  -2.752   0.113  0.00  0.00    -0.503 OA
ATOM     26  H   UNL     1       0.710  -2.954  -0.621  0.00  0.00    +0.292 HD
ENDBRANCH  22  25
ENDBRANCH  15  21
ENDBRANCH   1  16
BRANCH   9  27
ATOM     27  O   UNL     1      -1.493  -5.077  -2.765  0.00  0.00    -0.503 OA
ATOM     28  H   UNL     1      -2.270  -4.696  -2.333  0.00  0.00    +0.292 HD
ENDBRANCH   9  27
TORSDOF 5
