REMARK  Name = ZINC06659313
REMARK  9 active torsions:
REMARK  status: ('A' for Active; 'I' for Inactive)
REMARK    1  A    between atoms: C_1  and  C_2
REMARK    2  A    between atoms: C_4  and  C_25
REMARK    3  A    between atoms: C_6  and  N_24
REMARK    4  A    between atoms: C_7  and  C_11
REMARK    5  A    between atoms: N_13  and  C_14
REMARK    6  A    between atoms: C_17  and  N_21
REMARK    7  A    between atoms: C_19  and  O_20
REMARK    8  A    between atoms: C_25  and  O_26
REMARK    9  A    between atoms: O_26  and  C_27
REMARK                            x       y       z     vdW  Elec       q    Type
REMARK                         _______ _______ _______ _____ _____    ______ ____
ROOT
ATOM      1  C   UNL     1       9.463  -3.488   0.564  0.00  0.00    +0.065 C 
ATOM      2  C   UNL     1       7.980  -3.231   0.492  0.00  0.00    +0.040 A 
ATOM      3  C   UNL     1       7.094  -4.297   0.535  0.00  0.00    +0.029 A 
ATOM      4  C   UNL     1       5.738  -4.077   0.470  0.00  0.00    -0.009 A 
ATOM      5  C   UNL     1       5.263  -2.747   0.359  0.00  0.00    +0.034 A 
ATOM      6  C   UNL     1       3.888  -2.277   0.282  0.00  0.00    +0.054 A 
ATOM      7  C   UNL     1       3.665  -0.922   0.173  0.00  0.00    +0.097 A 
ATOM      8  S   UNL     1       5.308  -0.232   0.184  0.00  0.00    -0.062 S 
ATOM      9  C   UNL     1       6.246  -1.733   0.324  0.00  0.00    +0.111 A 
ATOM     10  N   UNL     1       7.534  -1.994   0.389  0.00  0.00    -0.245 NA
ENDROOT
BRANCH   7  11
ATOM     11  C   UNL     1       2.426  -0.240   0.081  0.00  0.00    +0.257 C 
ATOM     12  O   UNL     1       1.383  -0.868   0.088  0.00  0.00    -0.269 OA
ATOM     13  N   UNL     1       2.403   1.105  -0.014  0.00  0.00    -0.278 N 
ATOM     14  H   UNL     1       3.232   1.599  -0.100  0.00  0.00    +0.155 HD
BRANCH  13  15
ATOM     15  C   UNL     1       1.180   1.787   0.012  0.00  0.00    +0.076 A 
ATOM     16  C   UNL     1       0.076   1.214   0.626  0.00  0.00    +0.029 A 
ATOM     17  C   UNL     1      -1.131   1.887   0.646  0.00  0.00    +0.035 A 
ATOM     18  C   UNL     1      -1.239   3.136   0.064  0.00  0.00    +0.130 A 
ATOM     19  C   UNL     1      -0.143   3.714  -0.551  0.00  0.00    +0.080 A 
ATOM     20  C   UNL     1       1.069   3.043  -0.580  0.00  0.00    +0.140 A 
BRANCH  18  21
ATOM     21  N   UNL     1      -2.533   3.855   0.093  0.00  0.00    +0.057 N 
ATOM     22  O   UNL     1      -2.631   4.953  -0.424  0.00  0.00    -0.126 OA
ATOM     23  O   UNL     1      -3.499   3.347   0.634  0.00  0.00    -0.126 OA
ENDBRANCH  18  21
BRANCH  20  24
ATOM     24  O   UNL     1       2.147   3.610  -1.183  0.00  0.00    -0.505 OA
ATOM     25  H   UNL     1       2.231   3.394  -2.122  0.00  0.00    +0.292 HD
ENDBRANCH  20  24
ENDBRANCH  13  15
ENDBRANCH   7  11
BRANCH   6  26
ATOM     26  N   UNL     1       2.827  -3.172   0.314  0.00  0.00    -0.356 N 
ATOM     27  H   UNL     1       1.915  -2.845   0.259  0.00  0.00    +0.142 HD
ATOM     28  H   UNL     1       2.998  -4.123   0.391  0.00  0.00    +0.142 HD
ENDBRANCH   6  26
BRANCH   4  29
ATOM     29  C   UNL     1       4.773  -5.233   0.516  0.00  0.00    +0.195 C 
BRANCH  29  30
ATOM     30  O   UNL     1       5.501  -6.457   0.629  0.00  0.00    -0.378 OA
ATOM     31  C   UNL     1       4.675  -7.622   0.680  0.00  0.00    +0.194 C 
ENDBRANCH  29  30
ENDBRANCH   4  29
TORSDOF 7
