REMARK  Name = ZINC22995865
REMARK  1 active torsions:
REMARK  status: ('A' for Active; 'I' for Inactive)
REMARK    1  A    between atoms: C_1  and  C_2
REMARK                            x       y       z     vdW  Elec       q    Type
REMARK                         _______ _______ _______ _____ _____    ______ ____
ROOT
ATOM      1  C   UNL     1      -0.013   1.086   0.008  0.00  0.00    +0.030 C 
ATOM      2  C   UNL     1      -0.729   1.579   1.267  0.00  0.00    +0.104 C 
ATOM      3  C   UNL     1      -0.667   3.117   1.359  0.00  0.00    +0.097 C 
ATOM      4  C   UNL     1       0.091   3.374   2.642  0.00  0.00    +0.113 C 
ATOM      5  N   UNL     1       0.407   2.256   3.186  0.00  0.00    -0.168 NA
ATOM      6  N   UNL     1      -0.017   1.134   2.476  0.00  0.00    -0.203 N 
ATOM      7  C   UNL     1       0.196  -0.186   2.848  0.00  0.00    +0.141 A 
ATOM      8  C   UNL     1       0.888  -0.469   4.023  0.00  0.00    +0.047 A 
ATOM      9  C   UNL     1       1.093  -1.788   4.382  0.00  0.00    +0.025 A 
ATOM     10  C   UNL     1       0.598  -2.786   3.551  0.00  0.00    +0.059 A 
ATOM     11  C   UNL     1      -0.080  -2.434   2.400  0.00  0.00    +0.133 A 
ATOM     12  N   UNL     1      -0.266  -1.166   2.085  0.00  0.00    -0.237 NA
ATOM     13 CL   UNL     1       0.828  -4.459   3.956  0.00  0.00    -0.082 Cl
ATOM     14  N   UNL     1       0.398   4.626   3.151  0.00  0.00    -0.345 N 
ATOM     15  H   UNL     1       0.955   4.714   4.095  0.00  0.00    +0.143 HD
ATOM     16  H   UNL     1       0.084   5.532   2.611  0.00  0.00    +0.143 HD
ENDROOT
TORSDOF 0
