REMARK  Name = ZINC02131103
REMARK  4 active torsions:
REMARK  status: ('A' for Active; 'I' for Inactive)
REMARK    1  A    between atoms: C_4  and  N_7
REMARK    2  A    between atoms: C_8  and  O_35
REMARK    3  A    between atoms: C_9  and  C_21
REMARK    4  A    between atoms: N_12  and  C_15
REMARK                            x       y       z     vdW  Elec       q    Type
REMARK                         _______ _______ _______ _____ _____    ______ ____
ROOT
ATOM      1  N   UNL     1       2.823   0.867  -0.468  0.00  0.00    -0.232 N 
ATOM      2  C   UNL     1       1.565   1.352  -0.732  0.00  0.00    +0.208 A 
ATOM      3  C   UNL     1       1.214   2.587  -0.275  0.00  0.00    +0.069 A 
ATOM      4  C   UNL     1       2.148   3.333   0.467  0.00  0.00    +0.267 A 
ATOM      5  O   UNL     1       1.854   4.437   0.890  0.00  0.00    -0.267 OA
ATOM      6  N   UNL     1       3.371   2.820   0.703  0.00  0.00    -0.228 N 
ATOM      7  C   UNL     1       3.702   1.601   0.239  0.00  0.00    +0.344 A 
ATOM      8  O   UNL     1       4.811   1.155   0.463  0.00  0.00    -0.245 OA
ENDROOT
BRANCH   3   9
ATOM      9  C   UNL     1      -0.158   3.144  -0.556  0.00  0.00    +0.018 C 
ATOM     10  C   UNL     1      -0.039   4.367  -1.434  0.00  0.00    +0.011 A 
ATOM     11  C   UNL     1      -0.747   5.502  -1.212  0.00  0.00    -0.022 A 
ATOM     12  C   UNL     1      -0.368   6.447  -2.239  0.00  0.00    +0.003 A 
ATOM     13  C   UNL     1      -0.762   7.759  -2.517  0.00  0.00    +0.010 A 
ATOM     14  C   UNL     1      -0.179   8.368  -3.600  0.00  0.00    +0.001 A 
ATOM     15  C   UNL     1       0.757   7.722  -4.391  0.00  0.00    +0.002 A 
ATOM     16  C   UNL     1       1.166   6.424  -4.141  0.00  0.00    +0.026 A 
ATOM     17  C   UNL     1       0.591   5.781  -3.047  0.00  0.00    +0.047 A 
ATOM     18  N   UNL     1       0.763   4.529  -2.527  0.00  0.00    -0.359 N 
ATOM     19  H   UNL     1       1.363   3.855  -2.883  0.00  0.00    +0.166 HD
ATOM     20  C   UNL     1      -1.730   5.663  -0.081  0.00  0.00    +0.018 C 
ATOM     21  C   UNL     1      -2.053   4.267   0.469  0.00  0.00    -0.076 C 
ATOM     22  N   UNL     1      -0.797   3.531   0.721  0.00  0.00    +0.388 N 
ATOM     23  H   UNL     1      -0.155   4.130   1.252  0.00  0.00    -0.084 HD
ATOM     24  H   UNL     1      -1.004   2.685   1.265  0.00  0.00    -0.084 HD
ENDBRANCH   3   9
BRANCH   1  28
ATOM     25  C   UNL     1       3.925  -2.901  -1.867  0.00  0.00    +0.000 A 
ATOM     26  C   UNL     1       3.394  -2.765  -0.598  0.00  0.00    +0.002 A 
ATOM     27  C   UNL     1       3.028  -1.518  -0.132  0.00  0.00    +0.026 A 
ATOM     28  C   UNL     1       3.194  -0.400  -0.939  0.00  0.00    +0.054 A 
ATOM     29  C   UNL     1       3.722  -0.541  -2.215  0.00  0.00    +0.026 A 
ATOM     30  C   UNL     1       4.092  -1.790  -2.673  0.00  0.00    +0.002 A 
ENDBRANCH   1  28
BRANCH   6  31
ATOM     31  C   UNL     1       4.306   3.561   1.438  0.00  0.00    +0.054 A 
ATOM     32  C   UNL     1       5.198   4.400   0.783  0.00  0.00    +0.026 A 
ATOM     33  C   UNL     1       6.115   5.134   1.510  0.00  0.00    +0.002 A 
ATOM     34  C   UNL     1       6.152   5.025   2.888  0.00  0.00    +0.000 A 
ATOM     35  C   UNL     1       5.269   4.186   3.542  0.00  0.00    +0.002 A 
ATOM     36  C   UNL     1       4.346   3.454   2.821  0.00  0.00    +0.026 A 
ENDBRANCH   6  31
BRANCH   2  37
ATOM     37  O   UNL     1       0.686   0.614  -1.442  0.00  0.00    -0.493 OA
ATOM     38  H   UNL     1       1.031  -0.245  -1.724  0.00  0.00    +0.294 HD
ENDBRANCH   2  37
TORSDOF 4
