REMARK  Name = ZINC40512782
REMARK  6 active torsions:
REMARK  status: ('A' for Active; 'I' for Inactive)
REMARK    1  A    between atoms: C_1  and  C_2
REMARK    2  A    between atoms: C_5  and  C_8
REMARK    3  A    between atoms: C_8  and  N_9
REMARK    4  A    between atoms: C_22  and  C_27
REMARK    5  A    between atoms: C_29  and  N_33
REMARK    6  A    between atoms: C_30  and  C_31
REMARK                            x       y       z     vdW  Elec       q    Type
REMARK                         _______ _______ _______ _____ _____    ______ ____
ROOT
ATOM      1  N   UNL     1       1.447  -4.746  -0.032  0.00  0.00    -0.265 N 
ATOM      2  C   UNL     1       2.174  -4.983  -1.184  0.00  0.00    +0.041 A 
ATOM      3  C   UNL     1       1.792  -4.839  -2.519  0.00  0.00    +0.024 A 
ATOM      4  C   UNL     1       2.735  -5.152  -3.486  0.00  0.00    +0.002 A 
ATOM      5  C   UNL     1       4.002  -5.589  -3.156  0.00  0.00    +0.000 A 
ATOM      6  C   UNL     1       4.396  -5.735  -1.830  0.00  0.00    +0.007 A 
ATOM      7  C   UNL     1       3.464  -5.424  -0.864  0.00  0.00    -0.001 A 
ATOM      8  C   UNL     1       3.537  -5.457   0.631  0.00  0.00    +0.147 C 
ATOM      9  C   UNL     1       2.167  -4.993   1.081  0.00  0.00    +0.241 C 
ATOM     10  O   UNL     1       1.789  -4.870   2.227  0.00  0.00    -0.274 OA
ATOM     11  C   UNL     1       3.801  -6.850   1.127  0.00  0.00    +0.084 A 
ATOM     12  C   UNL     1       5.033  -7.186   1.649  0.00  0.00    +0.142 A 
ATOM     13  C   UNL     1       5.243  -8.503   2.108  0.00  0.00    +0.067 A 
ATOM     14  C   UNL     1       4.245  -9.409   2.028  0.00  0.00    +0.019 A 
ATOM     15  N   UNL     1       3.034  -9.070   1.512  0.00  0.00    -0.326 N 
ATOM     16  H   UNL     1       2.332  -9.737   1.465  0.00  0.00    +0.169 HD
ATOM     17  C   UNL     1       2.795  -7.823   1.065  0.00  0.00    +0.257 A 
ATOM     18  O   UNL     1       1.700  -7.540   0.605  0.00  0.00    -0.267 OA
ATOM     19  C   UNL     1       4.476 -10.815   2.519  0.00  0.00    +0.063 C 
ATOM     20  O   UNL     1       6.030  -6.279   1.721  0.00  0.00    -0.441 OA
ATOM     21  C   UNL     1       5.755  -4.966   1.645  0.00  0.00    +0.199 C 
ATOM     22  C   UNL     1       4.585  -4.508   1.136  0.00  0.00    +0.110 C 
ENDROOT
BRANCH  21  23
ATOM     23  N   UNL     1       6.684  -4.063   2.096  0.00  0.00    -0.328 N 
ATOM     24  H   UNL     1       7.526  -4.376   2.463  0.00  0.00    +0.145 HD
ATOM     25  H   UNL     1       6.500  -3.112   2.048  0.00  0.00    +0.145 HD
ENDBRANCH  21  23
BRANCH  22  26
ATOM     26  C   UNL     1       4.346  -3.097   1.079  0.00  0.00    +0.102 C 
ATOM     27  N   UNL     1       4.156  -1.978   1.033  0.00  0.00    -0.191 NA
ENDBRANCH  22  26
BRANCH   1  28
ATOM     28  C   UNL     1       0.059  -4.275  -0.021  0.00  0.00    +0.148 C 
BRANCH  28  33
ATOM     29  C   UNL     1      -0.018   1.503   0.010  0.00  0.00    +0.044 C 
ATOM     30  C   UNL     1       0.002  -0.004   0.002  0.00  0.00    -0.050 A 
ATOM     31  C   UNL     1       0.006  -0.689  -1.199  0.00  0.00    +0.003 A 
ATOM     32  C   UNL     1       0.025  -2.071  -1.206  0.00  0.00    +0.005 A 
ATOM     33  C   UNL     1       0.040  -2.768  -0.013  0.00  0.00    -0.030 A 
ATOM     34  C   UNL     1       0.037  -2.084   1.188  0.00  0.00    +0.005 A 
ATOM     35  C   UNL     1       0.023  -0.702   1.195  0.00  0.00    +0.003 A 
ENDBRANCH  28  33
ENDBRANCH   1  28
TORSDOF 4
