REMARK  Name = ZINC39542353
REMARK  8 active torsions:
REMARK  status: ('A' for Active; 'I' for Inactive)
REMARK    1  A    between atoms: C_1  and  C_2
REMARK    2  A    between atoms: C_2  and  O_3
REMARK    3  A    between atoms: O_3  and  C_4
REMARK    4  A    between atoms: C_6  and  C_18
REMARK    5  A    between atoms: N_20  and  C_21
REMARK    6  A    between atoms: N_20  and  C_28
REMARK    7  A    between atoms: C_21  and  C_22
REMARK    8  A    between atoms: C_33  and  O_34
REMARK                            x       y       z     vdW  Elec       q    Type
REMARK                         _______ _______ _______ _____ _____    ______ ____
ROOT
ATOM      1  C   UNL     1      -1.501  -1.845  -0.099  0.00  0.00    +0.134 C 
ATOM      2  C   UNL     1      -2.829  -2.557  -0.223  0.00  0.00    +0.107 C 
ATOM      3  C   UNL     1      -2.449  -4.048  -0.307  0.00  0.00    +0.152 C 
ATOM      4  N   UNL     1      -0.978  -4.047  -0.259  0.00  0.00    -0.367 NA
ATOM      5  C   UNL     1      -0.531  -2.726  -0.121  0.00  0.00    +0.113 C 
ATOM      6  N   UNL     1       0.852  -2.448   0.004  0.00  0.00    -0.301 N 
ATOM      7  C   UNL     1       1.584  -3.409   0.720  0.00  0.00    +0.037 A 
ATOM      8  C   UNL     1       2.926  -3.188   0.998  0.00  0.00    +0.023 A 
ATOM      9  C   UNL     1       3.648  -4.138   1.694  0.00  0.00    +0.002 A 
ATOM     10  C   UNL     1       3.031  -5.303   2.110  0.00  0.00    +0.000 A 
ATOM     11  C   UNL     1       1.694  -5.521   1.836  0.00  0.00    +0.007 A 
ATOM     12  C   UNL     1       0.959  -4.574   1.143  0.00  0.00    -0.010 A 
ATOM     13  C   UNL     1      -0.507  -4.831   0.888  0.00  0.00    +0.124 C 
ATOM     14  H   UNL     1       1.262  -1.655  -0.376  0.00  0.00    +0.153 HD
ATOM     15  H   UNL     1      -0.610  -4.437  -1.113  0.00  0.00    +0.129 HD
ENDROOT
BRANCH   3  16
ATOM     16  C   UNL     1      -2.937  -4.645  -1.602  0.00  0.00    +0.240 C 
ATOM     17  O   UNL     1      -2.143  -5.104  -2.396  0.00  0.00    -0.273 OA
ATOM     18  N   UNL     1      -4.256  -4.670  -1.878  0.00  0.00    -0.262 N 
BRANCH  18  19
ATOM     19  C   UNL     1      -5.174  -4.140  -0.961  0.00  0.00    +0.078 A 
ATOM     20  C   UNL     1      -5.543  -2.805  -1.039  0.00  0.00    +0.027 A 
ATOM     21  C   UNL     1      -6.448  -2.285  -0.134  0.00  0.00    +0.002 A 
ATOM     22  C   UNL     1      -6.988  -3.092   0.851  0.00  0.00    +0.004 A 
ATOM     23  C   UNL     1      -6.625  -4.423   0.934  0.00  0.00    +0.047 A 
ATOM     24  C   UNL     1      -5.722  -4.954   0.027  0.00  0.00    +0.138 A 
BRANCH  24  25
ATOM     25  O   UNL     1      -5.369  -6.264   0.104  0.00  0.00    -0.505 OA
ATOM     26  H   UNL     1      -4.602  -6.432   0.669  0.00  0.00    +0.292 HD
ENDBRANCH  24  25
ENDBRANCH  18  19
BRANCH  18  27
ATOM     27  C   UNL     1      -4.730  -5.250  -3.137  0.00  0.00    +0.149 C 
BRANCH  27  28
ATOM     28  C   UNL     1      -5.000  -6.719  -2.942  0.00  0.00    -0.030 A 
ATOM     29  C   UNL     1      -3.994  -7.642  -3.158  0.00  0.00    +0.005 A 
ATOM     30  C   UNL     1      -4.242  -8.990  -2.980  0.00  0.00    +0.000 A 
ATOM     31  C   UNL     1      -5.496  -9.416  -2.585  0.00  0.00    +0.000 A 
ATOM     32  C   UNL     1      -6.502  -8.493  -2.368  0.00  0.00    +0.000 A 
ATOM     33  C   UNL     1      -6.253  -7.145  -2.542  0.00  0.00    +0.005 A 
ENDBRANCH  27  28
ENDBRANCH  18  27
ENDBRANCH   3  16
BRANCH   1  34
ATOM     34  O   UNL     1      -1.339  -0.499   0.012  0.00  0.00    -0.493 OA
BRANCH  34  36
ATOM     35  C   UNL     1      -0.013   1.513   0.196  0.00  0.00    +0.048 C 
ATOM     36  C   UNL     1       0.002  -0.004   0.000  0.00  0.00    +0.225 C 
ENDBRANCH  34  36
ENDBRANCH   1  34
TORSDOF 7
