REMARK  Name = ZINC65504109
REMARK  5 active torsions:
REMARK  status: ('A' for Active; 'I' for Inactive)
REMARK    1  A    between atoms: C_5  and  C_7
REMARK    2  A    between atoms: C_7  and  C_8
REMARK    3  A    between atoms: C_8  and  N_9
REMARK    4  A    between atoms: N_12  and  N_13
REMARK    5  A    between atoms: C_14  and  C_16
REMARK                            x       y       z     vdW  Elec       q    Type
REMARK                         _______ _______ _______ _____ _____    ______ ____
ROOT
ATOM      1  N   UNL     1       1.427  -6.889   1.341  0.00  0.00    -0.228 N 
ATOM      2  C   UNL     1       1.446  -8.236   1.333  0.00  0.00    +0.281 C 
ATOM      3  O   UNL     1       1.556  -8.849   2.377  0.00  0.00    -0.267 OA
ATOM      4  H   UNL     1       1.339  -6.400   0.507  0.00  0.00    +0.173 HD
ENDROOT
BRANCH   2   5
ATOM      5  C   UNL     1       1.331  -8.969   0.056  0.00  0.00    +0.155 A 
ATOM      6  C   UNL     1       1.344 -10.441   0.038  0.00  0.00    +0.020 A 
ATOM      7  C   UNL     1       1.462 -11.207   1.193  0.00  0.00    +0.011 A 
ATOM      8  C   UNL     1       1.466 -12.582   1.094  0.00  0.00    +0.001 A 
ATOM      9  C   UNL     1       1.355 -13.207  -0.141  0.00  0.00    +0.001 A 
ATOM     10  C   UNL     1       1.237 -12.466  -1.298  0.00  0.00    +0.014 A 
ATOM     11  C   UNL     1       1.230 -11.077  -1.220  0.00  0.00    +0.050 A 
ATOM     12  C   UNL     1       1.109 -10.211  -2.401  0.00  0.00    +0.272 A 
ATOM     13  O   UNL     1       1.008 -10.690  -3.516  0.00  0.00    -0.266 OA
ATOM     14  N   UNL     1       1.113  -8.875  -2.221  0.00  0.00    -0.242 N 
ATOM     15  H   UNL     1       1.034  -8.306  -3.003  0.00  0.00    +0.192 HD
ATOM     16  N   UNL     1       1.212  -8.316  -1.074  0.00  0.00    -0.166 NA
ENDBRANCH   2   5
BRANCH   1  20
ATOM     17  N   UNL     1       1.395  -4.167   1.402  0.00  0.00    -0.298 N 
ATOM     18  C   UNL     1       1.518  -4.846   2.560  0.00  0.00    +0.316 C 
ATOM     19  O   UNL     1       1.612  -4.243   3.612  0.00  0.00    -0.251 OA
ATOM     20  N   UNL     1       1.536  -6.194   2.552  0.00  0.00    -0.218 N 
ATOM     21  H   UNL     1       1.320  -4.648   0.564  0.00  0.00    +0.150 HD
ATOM     22  H   UNL     1       1.624  -6.683   3.386  0.00  0.00    +0.174 HD
BRANCH  17  23
ATOM     23  C   UNL     1       1.376  -2.702   1.411  0.00  0.00    +0.110 C 
BRANCH  23  24
ATOM     24  C   UNL     1       1.229  -2.186  -0.022  0.00  0.00    +0.055 C 
BRANCH  24  29
ATOM     25  C   UNL     1      -0.017   1.378   0.010  0.00  0.00    +0.000 A 
ATOM     26  C   UNL     1       1.171   2.086   0.002  0.00  0.00    +0.001 A 
ATOM     27  C   UNL     1       2.377   1.412  -0.013  0.00  0.00    +0.020 A 
ATOM     28  C   UNL     1       2.397   0.029  -0.021  0.00  0.00    +0.044 A 
ATOM     29  C   UNL     1       1.208  -0.679  -0.013  0.00  0.00    -0.028 A 
ATOM     30  C   UNL     1       0.002  -0.004   0.002  0.00  0.00    +0.005 A 
ATOM     31 CL   UNL     1       3.912  -0.818  -0.041  0.00  0.00    -0.083 Cl
ENDBRANCH  24  29
ENDBRANCH  23  24
ENDBRANCH  17  23
ENDBRANCH   1  20
TORSDOF 5
