REMARK  Name = ZINC58481607
REMARK  7 active torsions:
REMARK  status: ('A' for Active; 'I' for Inactive)
REMARK    1  A    between atoms: C_1  and  C_2
REMARK    2  A    between atoms: C_3  and  C_32
REMARK    3  A    between atoms: C_11  and  C_13
REMARK    4  A    between atoms: C_13  and  C_15
REMARK    5  A    between atoms: C_13  and  S_16
REMARK    6  A    between atoms: S_16  and  C_17
REMARK    7  A    between atoms: C_25  and  C_27
REMARK                            x       y       z     vdW  Elec       q    Type
REMARK                         _______ _______ _______ _____ _____    ______ ____
ROOT
ATOM      1  S   UNL     1      -0.875  -4.913   4.139  0.00  0.00    -0.094 S 
ENDROOT
BRANCH   1   2
ATOM      2  C   UNL     1      -0.876  -5.847   5.633  0.00  0.00    +0.109 A 
ATOM      3  C   UNL     1      -1.557  -7.138   5.718  0.00  0.00    +0.032 A 
ATOM      4  C   UNL     1      -2.234  -7.695   4.631  0.00  0.00    +0.012 A 
ATOM      5  C   UNL     1      -2.850  -8.905   4.772  0.00  0.00    +0.001 A 
ATOM      6  C   UNL     1      -2.812  -9.589   5.984  0.00  0.00    +0.002 A 
ATOM      7  C   UNL     1      -2.159  -9.072   7.063  0.00  0.00    +0.028 A 
ATOM      8  C   UNL     1      -1.515  -7.832   6.953  0.00  0.00    +0.076 A 
ATOM      9  N   UNL     1      -0.858  -7.277   7.980  0.00  0.00    -0.225 NA
ATOM     10  C   UNL     1      -0.259  -6.107   7.852  0.00  0.00    +0.197 A 
ATOM     11  N   UNL     1      -0.254  -5.405   6.719  0.00  0.00    -0.218 NA
BRANCH  10  12
ATOM     12  C   UNL     1       0.448  -5.551   9.021  0.00  0.00    +0.172 A 
ATOM     13  C   UNL     1       1.110  -4.362   9.065  0.00  0.00    +0.053 A 
ATOM     14  C   UNL     1       1.629  -4.235  10.366  0.00  0.00    +0.042 A 
ATOM     15  C   UNL     1       1.263  -5.340  11.048  0.00  0.00    +0.196 A 
ATOM     16  O   UNL     1       0.545  -6.129  10.235  0.00  0.00    -0.460 OA
ENDBRANCH  10  12
ENDBRANCH   1   2
BRANCH   1  17
ATOM     17  C   UNL     1       0.090  -3.432   4.547  0.00  0.00    +0.116 C 
ATOM     18  C   UNL     1       1.535  -3.832   4.850  0.00  0.00    +0.027 C 
BRANCH  17  29
ATOM     19  C   UNL     1      -0.018   1.503   0.010  0.00  0.00    +0.045 C 
ATOM     20  C   UNL     1       0.002  -0.004   0.002  0.00  0.00    -0.026 A 
ATOM     21  C   UNL     1       0.006  -0.677  -1.160  0.00  0.00    -0.008 A 
ATOM     22  S   UNL     1       0.032  -2.385  -0.648  0.00  0.00    -0.073 S 
ATOM     23  C   UNL     1       0.037  -2.144   1.110  0.00  0.00    +0.116 A 
ATOM     24  C   UNL     1       0.024  -0.745   1.250  0.00  0.00    +0.075 A 
ATOM     25  C   UNL     1       0.029  -0.257   2.597  0.00  0.00    +0.260 A 
ATOM     26  O   UNL     1       0.014   0.942   2.821  0.00  0.00    -0.267 OA
ATOM     27  N   UNL     1       0.051  -1.142   3.611  0.00  0.00    -0.309 N 
ATOM     28  H   UNL     1       0.054  -0.817   4.525  0.00  0.00    +0.170 HD
ATOM     29  C   UNL     1       0.067  -2.480   3.380  0.00  0.00    +0.124 A 
ATOM     30  N   UNL     1       0.053  -2.956   2.163  0.00  0.00    -0.225 NA
ATOM     31  C   UNL     1      -0.009  -0.122  -2.561  0.00  0.00    +0.052 C 
ENDBRANCH  17  29
ENDBRANCH   1  17
TORSDOF 4
