REMARK  Name = ZINC25075765
REMARK  13 active torsions:
REMARK  status: ('A' for Active; 'I' for Inactive)
REMARK    1  A    between atoms: C_1  and  C_2
REMARK    2  A    between atoms: C_2  and  C_3
REMARK    3  A    between atoms: C_2  and  C_5
REMARK    4  A    between atoms: C_2  and  N_8
REMARK    5  A    between atoms: C_9  and  C_11
REMARK    6  A    between atoms: C_11  and  N_12
REMARK    7  A    between atoms: N_12  and  C_13
REMARK    8  A    between atoms: N_12  and  C_21
REMARK    9  A    between atoms: C_13  and  C_14
REMARK   10  A    between atoms: C_14  and  C_15
REMARK   11  A    between atoms: C_22  and  N_37
REMARK   12  A    between atoms: N_23  and  C_30
REMARK   13  A    between atoms: C_30  and  C_31
REMARK                            x       y       z     vdW  Elec       q    Type
REMARK                         _______ _______ _______ _____ _____    ______ ____
ROOT
ATOM      1  N   UNL     1      -0.457   4.995  -4.294  0.00  0.00    -0.314 N 
ENDROOT
BRANCH   1   2
ATOM      2  C   UNL     1      -1.119   4.161  -5.224  0.00  0.00    +0.134 A 
ATOM      3  C   UNL     1      -2.390   4.453  -5.637  0.00  0.00    +0.127 A 
ATOM      4  N   UNL     1      -3.011   3.627  -6.547  0.00  0.00    -0.276 N 
ATOM      5  C   UNL     1      -2.378   2.538  -7.019  0.00  0.00    +0.331 A 
ATOM      6  O   UNL     1      -2.943   1.817  -7.820  0.00  0.00    -0.246 OA
ATOM      7  N   UNL     1      -1.129   2.233  -6.621  0.00  0.00    -0.273 N 
ATOM      8  H   UNL     1      -0.628   1.339  -7.018  0.00  0.00    +0.173 HD
ATOM      9  C   UNL     1      -0.482   3.016  -5.735  0.00  0.00    +0.277 A 
ATOM     10  O   UNL     1       0.650   2.732  -5.379  0.00  0.00    -0.266 OA
BRANCH   3  11
ATOM     11  N   UNL     1      -3.041   5.563  -5.150  0.00  0.00    -0.343 N 
ATOM     12  H   UNL     1      -4.063   5.793  -5.485  0.00  0.00    +0.144 HD
ATOM     13  H   UNL     1      -2.539   6.222  -4.426  0.00  0.00    +0.144 HD
ENDBRANCH   3  11
BRANCH   4  14
ATOM     14  C   UNL     1      -4.370   3.933  -6.999  0.00  0.00    +0.163 C 
BRANCH  14  15
ATOM     15  C   UNL     1      -5.366   3.266  -6.085  0.00  0.00    -0.028 A 
ATOM     16  C   UNL     1      -5.814   1.989  -6.365  0.00  0.00    +0.005 A 
ATOM     17  C   UNL     1      -6.723   1.375  -5.524  0.00  0.00    +0.000 A 
ATOM     18  C   UNL     1      -7.193   2.043  -4.409  0.00  0.00    +0.000 A 
ATOM     19  C   UNL     1      -6.748   3.322  -4.131  0.00  0.00    +0.000 A 
ATOM     20  C   UNL     1      -5.835   3.934  -4.969  0.00  0.00    +0.005 A 
ENDBRANCH  14  15
ENDBRANCH   4  14
ENDBRANCH   1   2
BRANCH   1  21
ATOM     21  C   UNL     1       0.732   5.615  -4.895  0.00  0.00    +0.201 C 
BRANCH  21  23
ATOM     22  N   UNL     1       2.362   7.382  -4.314  0.00  0.00    -0.296 N 
ATOM     23  C   UNL     1       1.268   6.676  -3.968  0.00  0.00    +0.231 C 
ATOM     24  O   UNL     1       0.714   6.894  -2.911  0.00  0.00    -0.274 OA
ATOM     25  H   UNL     1       2.864   7.184  -5.273  0.00  0.00    +0.150 HD
BRANCH  22  27
ATOM     26  C   UNL     1       3.262   7.777  -2.075  0.00  0.00    +0.048 C 
ATOM     27  C   UNL     1       2.884   8.413  -3.413  0.00  0.00    +0.121 C 
BRANCH  27  28
ATOM     28  C   UNL     1       4.121   9.059  -4.040  0.00  0.00    +0.026 C 
ATOM     29  C   UNL     1       5.454   8.886  -3.309  0.00  0.00    +0.007 C 
ATOM     30  C   UNL     1       4.749  10.244  -3.303  0.00  0.00    +0.007 C 
ENDBRANCH  27  28
BRANCH  27  31
ATOM     31  C   UNL     1       1.852   9.440  -3.195  0.00  0.00    +0.088 C 
ATOM     32  N   UNL     1       1.056  10.233  -3.026  0.00  0.00    -0.194 NA
ENDBRANCH  27  31
ENDBRANCH  22  27
ENDBRANCH  21  23
ENDBRANCH   1  21
BRANCH   1  33
ATOM     33  C   UNL     1      -0.104   4.251  -3.077  0.00  0.00    +0.110 C 
BRANCH  33  34
ATOM     34  C   UNL     1      -1.382   3.833  -2.347  0.00  0.00    +0.049 C 
BRANCH  34  35
ATOM     35  C   UNL     1      -1.020   3.070  -1.099  0.00  0.00    -0.072 C 
ATOM     36  C   UNL     1      -0.952   3.725   0.015  0.00  0.00    -0.028 C 
ATOM     37  C   UNL     1      -0.595   3.106   1.335  0.00  0.00    +0.027 C 
ATOM     38  C   UNL     1      -0.739   1.585   1.264  0.00  0.00    +0.004 C 
ATOM     39  C   UNL     1      -0.013   1.086   0.008  0.00  0.00    +0.005 C 
ATOM     40  C   UNL     1      -0.761   1.597  -1.225  0.00  0.00    +0.030 C 
ENDBRANCH  34  35
ENDBRANCH  33  34
ENDBRANCH   1  33
TORSDOF 12
