REMARK  Name = ZINC00545492
REMARK  6 active torsions:
REMARK  status: ('A' for Active; 'I' for Inactive)
REMARK    1  A    between atoms: C_1  and  C_2
REMARK    2  A    between atoms: C_9  and  O_20
REMARK    3  A    between atoms: C_10  and  C_13
REMARK    4  A    between atoms: C_14  and  C_15
REMARK    5  A    between atoms: C_14  and  C_17
REMARK    6  A    between atoms: O_20  and  C_21
REMARK                            x       y       z     vdW  Elec       q    Type
REMARK                         _______ _______ _______ _____ _____    ______ ____
ROOT
ATOM      1  C   UNL     1       0.401   0.869  -0.456  0.00  0.00    +0.047 C 
ATOM      2  C   UNL     1       0.307  -0.626  -0.288  0.00  0.00    -0.007 A 
ATOM      3  C   UNL     1       0.279  -1.439  -1.383  0.00  0.00    +0.008 A 
ATOM      4  C   UNL     1       0.191  -2.826  -1.210  0.00  0.00    +0.019 A 
ATOM      5  C   UNL     1       0.134  -3.352   0.035  0.00  0.00    +0.096 A 
ATOM      6  N   UNL     1       0.161  -2.548   1.134  0.00  0.00    -0.267 N 
ATOM      7  C   UNL     1       0.253  -1.191   0.998  0.00  0.00    +0.147 A 
ATOM      8  N   UNL     1       0.286  -0.387   2.062  0.00  0.00    -0.194 NA
ATOM      9  C   UNL     1       0.238  -0.861   3.295  0.00  0.00    +0.235 A 
ATOM     10  C   UNL     1       0.149  -2.260   3.501  0.00  0.00    +0.103 A 
ATOM     11  C   UNL     1       0.102  -3.106   2.362  0.00  0.00    +0.269 A 
ATOM     12  O   UNL     1       0.026  -4.315   2.491  0.00  0.00    -0.266 OA
ENDROOT
BRANCH  10  13
ATOM     13  C   UNL     1       0.097  -2.795   4.801  0.00  0.00    +0.042 C 
ATOM     14  C   UNL     1      -0.900  -2.391   5.678  0.00  0.00    +0.114 C 
BRANCH  14  15
ATOM     15  C   UNL     1      -0.878  -2.847   7.072  0.00  0.00    +0.252 C 
ATOM     16  O   UNL     1       0.014  -3.579   7.460  0.00  0.00    -0.270 OA
ATOM     17  N   UNL     1      -1.846  -2.455   7.924  0.00  0.00    -0.325 N 
ATOM     18  H   UNL     1      -2.557  -1.871   7.616  0.00  0.00    +0.145 HD
ATOM     19  H   UNL     1      -1.832  -2.756   8.846  0.00  0.00    +0.145 HD
ENDBRANCH  14  15
BRANCH  14  20
ATOM     20  C   UNL     1      -1.949  -1.530   5.223  0.00  0.00    +0.104 C 
ATOM     21  N   UNL     1      -2.782  -0.847   4.861  0.00  0.00    -0.191 NA
ENDBRANCH  14  20
ENDBRANCH  10  13
BRANCH   9  22
ATOM     22  O   UNL     1       0.274  -0.018   4.351  0.00  0.00    -0.437 OA
BRANCH  22  23
ATOM     23  C   UNL     1       0.463   1.305   4.105  0.00  0.00    +0.130 A 
ATOM     24  C   UNL     1      -0.508   2.032   3.432  0.00  0.00    +0.046 A 
ATOM     25  C   UNL     1      -0.314   3.377   3.183  0.00  0.00    +0.004 A 
ATOM     26  C   UNL     1       0.848   3.998   3.604  0.00  0.00    +0.000 A 
ATOM     27  C   UNL     1       1.818   3.276   4.274  0.00  0.00    +0.004 A 
ATOM     28  C   UNL     1       1.625   1.932   4.531  0.00  0.00    +0.046 A 
ENDBRANCH  22  23
ENDBRANCH   9  22
TORSDOF 5
