REMARK  Name = ZINC12309723
REMARK  9 active torsions:
REMARK  status: ('A' for Active; 'I' for Inactive)
REMARK    1  A    between atoms: C_1  and  C_2
REMARK    2  A    between atoms: C_2  and  C_3
REMARK    3  A    between atoms: C_3  and  C_4
REMARK    4  A    between atoms: C_10  and  N_11
REMARK    5  A    between atoms: N_11  and  O_12
REMARK    6  A    between atoms: O_12  and  C_13
REMARK    7  A    between atoms: C_13  and  C_14
REMARK    8  A    between atoms: N_23  and  C_28
REMARK    9  A    between atoms: N_26  and  C_27
REMARK                            x       y       z     vdW  Elec       q    Type
REMARK                         _______ _______ _______ _____ _____    ______ ____
ROOT
ATOM      1  C   UNL     1       1.258   6.049  -0.312  0.00  0.00    -0.005 A 
ATOM      2  C   UNL     1       2.371   5.298  -0.305  0.00  0.00    +0.090 A 
ATOM      3  N   UNL     1       2.341   3.965   0.004  0.00  0.00    -0.347 N 
ATOM      4  H   UNL     1       3.276   3.431   0.229  0.00  0.00    +0.167 HD
ATOM      5  C   UNL     1       1.179   3.259   0.046  0.00  0.00    +0.129 A 
ATOM      6  C   UNL     1      -0.040   3.931   0.061  0.00  0.00    +0.106 A 
ATOM      7  C   UNL     1      -0.029   5.406   0.019  0.00  0.00    +0.082 A 
ATOM      8  C   UNL     1      -1.243   3.191   0.114  0.00  0.00    +0.268 A 
ATOM      9  O   UNL     1      -2.321   3.758   0.131  0.00  0.00    -0.267 OA
ATOM     10  N   UNL     1      -1.175   1.842   0.140  0.00  0.00    -0.263 N 
ATOM     11  C   UNL     1       0.013   1.213   0.127  0.00  0.00    +0.333 A 
ATOM     12  O   UNL     1       0.038  -0.002   0.154  0.00  0.00    -0.246 OA
ATOM     13  N   UNL     1       1.176   1.888   0.079  0.00  0.00    -0.282 N 
ATOM     14  C   UNL     1       2.445   1.156   0.062  0.00  0.00    +0.155 C 
ATOM     15  C   UNL     1      -2.410   1.055   0.188  0.00  0.00    +0.157 C 
ENDROOT
BRANCH   7  16
ATOM     16  N   UNL     1      -1.111   6.111   0.264  0.00  0.00    -0.264 N 
ATOM     17  H   UNL     1      -1.199   7.136  -0.125  0.00  0.00    +0.194 HD
BRANCH  16  18
ATOM     18  O   UNL     1      -2.163   5.551   1.029  0.00  0.00    -0.269 OA
BRANCH  18  19
ATOM     19  C   UNL     1      -3.275   6.428   1.217  0.00  0.00    +0.228 C 
BRANCH  19  20
ATOM     20  C   UNL     1      -4.329   5.733   2.040  0.00  0.00    -0.019 A 
ATOM     21  C   UNL     1      -5.318   4.996   1.417  0.00  0.00    +0.007 A 
ATOM     22  C   UNL     1      -6.282   4.354   2.171  0.00  0.00    +0.020 A 
ATOM     23  C   UNL     1      -6.263   4.459   3.551  0.00  0.00    +0.041 A 
ATOM     24  C   UNL     1      -5.276   5.202   4.174  0.00  0.00    +0.020 A 
ATOM     25  C   UNL     1      -4.309   5.838   3.418  0.00  0.00    +0.007 A 
ATOM     26 CL   UNL     1      -7.476   3.658   4.499  0.00  0.00    -0.084 Cl
ENDBRANCH  19  20
ENDBRANCH  18  19
ENDBRANCH  16  18
ENDBRANCH   7  16
BRANCH   1  27
ATOM     27  C   UNL     1       1.321   7.517  -0.649  0.00  0.00    +0.038 C 
BRANCH  27  29
ATOM     28  C   UNL     1       2.743   9.569  -0.568  0.00  0.00    +0.004 C 
ATOM     29  C   UNL     1       2.679   8.079  -0.225  0.00  0.00    +0.001 C 
ENDBRANCH  27  29
ENDBRANCH   1  27
TORSDOF 6
