REMARK  Name = ZINC40755895
REMARK  7 active torsions:
REMARK  status: ('A' for Active; 'I' for Inactive)
REMARK    1  A    between atoms: C_1  and  O_2
REMARK    2  A    between atoms: O_2  and  C_3
REMARK    3  A    between atoms: C_6  and  O_9
REMARK    4  A    between atoms: O_9  and  C_10
REMARK    5  A    between atoms: C_11  and  N_27
REMARK    6  A    between atoms: C_12  and  N_16
REMARK    7  A    between atoms: N_16  and  C_17
REMARK                            x       y       z     vdW  Elec       q    Type
REMARK                         _______ _______ _______ _____ _____    ______ ____
ROOT
ATOM      1  C   UNL     1      -4.861  -3.914  -0.072  0.00  0.00    +0.246 A 
ATOM      2  C   UNL     1      -6.066  -4.608  -0.179  0.00  0.00    +0.128 A 
ATOM      3  C   UNL     1      -6.018  -6.000  -0.286  0.00  0.00    +0.147 A 
ATOM      4  N   UNL     1      -4.833  -6.606  -0.281  0.00  0.00    -0.219 NA
ATOM      5  C   UNL     1      -3.718  -5.911  -0.178  0.00  0.00    +0.227 A 
ATOM      6  N   UNL     1      -3.721  -4.597  -0.081  0.00  0.00    -0.199 NA
ENDROOT
BRANCH   2   7
ATOM      7  N   UNL     1      -7.293  -3.927  -0.179  0.00  0.00    -0.351 N 
ATOM      8  H   UNL     1      -7.311  -2.960  -0.103  0.00  0.00    +0.143 HD
ATOM      9  H   UNL     1      -8.123  -4.423  -0.254  0.00  0.00    +0.143 HD
ENDBRANCH   2   7
BRANCH   3  10
ATOM     10  N   UNL     1      -7.189  -6.740  -0.394  0.00  0.00    -0.322 N 
ATOM     11  H   UNL     1      -8.048  -6.291  -0.397  0.00  0.00    +0.148 HD
BRANCH  10  12
ATOM     12  C   UNL     1      -7.125  -8.200  -0.506  0.00  0.00    +0.034 C 
ATOM     13  C   UNL     1      -6.437  -8.777   0.733  0.00  0.00    +0.029 C 
ATOM     14  C   UNL     1      -6.370 -10.301   0.617  0.00  0.00    -0.008 C 
ATOM     15  C   UNL     1      -7.788 -10.866   0.511  0.00  0.00    +0.007 C 
ATOM     16  C   UNL     1      -8.476 -10.290  -0.728  0.00  0.00    -0.008 C 
ATOM     17  C   UNL     1      -8.543  -8.766  -0.612  0.00  0.00    +0.029 C 
ATOM     18  C   UNL     1      -7.680 -10.671  -1.978  0.00  0.00    +0.007 C 
ATOM     19  C   UNL     1      -6.262 -10.106  -1.872  0.00  0.00    -0.008 C 
ATOM     20  C   UNL     1      -5.574 -10.682  -0.633  0.00  0.00    +0.007 C 
ATOM     21  C   UNL     1      -6.329  -8.582  -1.756  0.00  0.00    +0.029 C 
ENDBRANCH  10  12
ENDBRANCH   3  10
BRANCH   1  22
ATOM     22  O   UNL     1      -4.853  -2.562   0.035  0.00  0.00    -0.436 OA
BRANCH  22  26
ATOM     23  C   UNL     1      -1.201  -0.637   0.015  0.00  0.00    +0.120 A 
ATOM     24  C   UNL     1      -1.740  -1.114  -1.171  0.00  0.00    +0.049 A 
ATOM     25  C   UNL     1      -2.962  -1.758  -1.164  0.00  0.00    +0.050 A 
ATOM     26  C   UNL     1      -3.650  -1.928   0.028  0.00  0.00    +0.131 A 
ATOM     27  C   UNL     1      -3.111  -1.452   1.214  0.00  0.00    +0.050 A 
ATOM     28  C   UNL     1      -1.887  -0.812   1.208  0.00  0.00    +0.049 A 
BRANCH  23  30
ATOM     29  C   UNL     1       0.652   0.142  -1.256  0.00  0.00    +0.277 C 
ATOM     30  O   UNL     1       0.002  -0.003   0.009  0.00  0.00    -0.495 OA
ENDBRANCH  23  30
ENDBRANCH  22  26
ENDBRANCH   1  22
TORSDOF 6
