REMARK  Name = ZINC22691800
REMARK  12 active torsions:
REMARK  status: ('A' for Active; 'I' for Inactive)
REMARK    1  A    between atoms: C_1  and  C_2
REMARK    2  A    between atoms: C_2  and  C_3
REMARK    3  A    between atoms: C_3  and  C_4
REMARK    4  A    between atoms: C_4  and  N_5
REMARK    5  A    between atoms: C_6  and  N_35
REMARK    6  A    between atoms: C_7  and  N_14
REMARK    7  A    between atoms: N_14  and  C_15
REMARK    8  A    between atoms: C_15  and  C_16
REMARK    9  A    between atoms: C_17  and  C_19
REMARK   10  A    between atoms: N_24  and  S_26
REMARK   11  A    between atoms: S_26  and  C_29
REMARK   12  A    between atoms: C_32  and  C_34
REMARK                            x       y       z     vdW  Elec       q    Type
REMARK                         _______ _______ _______ _____ _____    ______ ____
ROOT
ATOM      1  N   UNL     1       1.711   1.314  -2.405  0.00  0.00    -0.264 N 
ATOM      2  C   UNL     1       0.384   1.343  -2.162  0.00  0.00    +0.224 C 
ATOM      3  O   UNL     1      -0.030   1.753  -1.098  0.00  0.00    -0.275 OA
ENDROOT
BRANCH   1   6
ATOM      4  N   UNL     1       3.204   1.471  -5.758  0.00  0.00    -0.280 N 
ATOM      5  C   UNL     1       2.748   1.871  -4.523  0.00  0.00    +0.127 A 
ATOM      6  C   UNL     1       2.187   0.936  -3.677  0.00  0.00    +0.140 A 
ATOM      7  C   UNL     1       2.104  -0.403  -4.104  0.00  0.00    +0.277 A 
ATOM      8  O   UNL     1       1.618  -1.250  -3.374  0.00  0.00    -0.266 OA
ATOM      9  N   UNL     1       2.562  -0.741  -5.325  0.00  0.00    -0.273 N 
ATOM     10  H   UNL     1       2.493  -1.784  -5.669  0.00  0.00    +0.173 HD
ATOM     11  C   UNL     1       3.105   0.184  -6.136  0.00  0.00    +0.331 A 
ATOM     12  O   UNL     1       3.514  -0.149  -7.232  0.00  0.00    -0.246 OA
BRANCH   5  13
ATOM     13  N   UNL     1       2.850   3.186  -4.137  0.00  0.00    -0.343 N 
ATOM     14  H   UNL     1       2.483   3.498  -3.148  0.00  0.00    +0.144 HD
ATOM     15  H   UNL     1       3.298   3.926  -4.816  0.00  0.00    +0.144 HD
ENDBRANCH   5  13
BRANCH   4  16
ATOM     16  C   UNL     1       3.802   2.453  -6.666  0.00  0.00    +0.128 C 
BRANCH  16  17
ATOM     17  C   UNL     1       5.309   2.528  -6.416  0.00  0.00    +0.021 C 
BRANCH  17  19
ATOM     18  C   UNL     1       7.441   3.628  -7.114  0.00  0.00    +0.004 C 
ATOM     19  C   UNL     1       5.934   3.553  -7.364  0.00  0.00    -0.002 C 
ENDBRANCH  17  19
ENDBRANCH  16  17
ENDBRANCH   4  16
ENDBRANCH   1   6
BRANCH   2  20
ATOM     20  C   UNL     1      -0.585   0.866  -3.213  0.00  0.00    +0.091 C 
ATOM     21  C   UNL     1      -1.079   2.060  -4.033  0.00  0.00    +0.015 C 
ATOM     22  C   UNL     1      -2.038   1.572  -5.121  0.00  0.00    +0.018 C 
ATOM     23  C   UNL     1      -3.249   0.901  -4.467  0.00  0.00    +0.109 C 
ATOM     24  N   UNL     1      -2.773  -0.156  -3.564  0.00  0.00    -0.175 NA
ATOM     25  C   UNL     1      -1.780   0.186  -2.537  0.00  0.00    +0.122 C 
BRANCH  24  26
ATOM     26  S   UNL     1      -3.344  -1.704  -3.703  0.00  0.00    +0.067 S 
ATOM     27  O   UNL     1      -3.802  -1.850  -5.040  0.00  0.00    -0.152 OA
ATOM     28  O   UNL     1      -2.355  -2.554  -3.139  0.00  0.00    -0.152 OA
BRANCH  26  29
ATOM     29  C   UNL     1      -4.765  -1.830  -2.668  0.00  0.00    +0.143 A 
ATOM     30  C   UNL     1      -6.064  -1.587  -2.968  0.00  0.00    +0.036 A 
ATOM     31  C   UNL     1      -7.022  -1.757  -1.986  0.00  0.00    +0.013 A 
ATOM     32  C   UNL     1      -6.633  -2.151  -0.749  0.00  0.00    -0.011 A 
ATOM     33  S   UNL     1      -4.865  -2.301  -0.949  0.00  0.00    -0.074 S 
ATOM     34  C   UNL     1      -7.473  -2.397   0.477  0.00  0.00    +0.051 C 
ENDBRANCH  26  29
ENDBRANCH  24  26
ENDBRANCH   2  20
BRANCH   1  35
ATOM     35  C   UNL     1       2.657   1.676  -1.346  0.00  0.00    +0.110 C 
ATOM     36  C   UNL     1       2.946   0.449  -0.479  0.00  0.00    +0.025 C 
ENDBRANCH   1  35
TORSDOF 9
