REMARK  Name = ZINC05689647
REMARK  7 active torsions:
REMARK  status: ('A' for Active; 'I' for Inactive)
REMARK    1  A    between atoms: C_1  and  N_2
REMARK    2  A    between atoms: N_2  and  C_3
REMARK    3  A    between atoms: N_2  and  C_16
REMARK    4  A    between atoms: C_3  and  C_4
REMARK    5  A    between atoms: N_6  and  C_7
REMARK    6  A    between atoms: C_19  and  N_24
REMARK    7  A    between atoms: C_21  and  C_22
REMARK                            x       y       z     vdW  Elec       q    Type
REMARK                         _______ _______ _______ _____ _____    ______ ____
ROOT
ATOM      1  C   UNL     1      -2.018   1.748  -1.177  0.00  0.00    +0.200 C 
ENDROOT
BRANCH   1   2
ATOM      2  C   UNL     1      -3.208   2.670  -1.255  0.00  0.00    +0.235 C 
ATOM      3  O   UNL     1      -3.370   3.524  -0.409  0.00  0.00    -0.274 OA
ATOM      4  N   UNL     1      -4.091   2.546  -2.265  0.00  0.00    -0.282 N 
ATOM      5  H   UNL     1      -3.928   1.907  -2.977  0.00  0.00    +0.155 HD
BRANCH   4   6
ATOM      6  C   UNL     1      -5.246   3.340  -2.288  0.00  0.00    +0.072 A 
ATOM      7  C   UNL     1      -5.204   4.641  -1.805  0.00  0.00    +0.029 A 
ATOM      8  C   UNL     1      -6.342   5.425  -1.833  0.00  0.00    +0.043 A 
ATOM      9  C   UNL     1      -7.527   4.912  -2.331  0.00  0.00    +0.161 A 
ATOM     10  C   UNL     1      -7.575   3.611  -2.809  0.00  0.00    +0.195 A 
ATOM     11  C   UNL     1      -6.436   2.824  -2.788  0.00  0.00    +0.182 A 
ATOM     12  F   UNL     1      -6.481   1.556  -3.253  0.00  0.00    -0.200 F 
ATOM     13  F   UNL     1      -8.732   3.111  -3.294  0.00  0.00    -0.199 F 
ATOM     14  F   UNL     1      -8.639   5.679  -2.352  0.00  0.00    -0.202 F 
ENDBRANCH   4   6
ENDBRANCH   1   2
BRANCH   1  16
ATOM     15  C   UNL     1      -1.956   1.805   1.243  0.00  0.00    +0.130 C 
ATOM     16  N   UNL     1      -1.215   2.085   0.006  0.00  0.00    -0.323 N 
BRANCH  16  17
ATOM     17  C   UNL     1       0.001   1.411  -0.009  0.00  0.00    +0.048 A 
ATOM     18  C   UNL     1       0.030   0.022  -0.019  0.00  0.00    +0.026 A 
ATOM     19  C   UNL     1       1.238  -0.644  -0.040  0.00  0.00    +0.034 A 
ATOM     20  C   UNL     1       2.430   0.063  -0.052  0.00  0.00    +0.128 A 
ATOM     21  C   UNL     1       2.421   1.441  -0.044  0.00  0.00    +0.053 A 
ATOM     22  C   UNL     1       1.206   2.130  -0.022  0.00  0.00    +0.075 A 
BRANCH  20  23
ATOM     23  N   UNL     1       3.718  -0.665  -0.076  0.00  0.00    +0.056 N 
ATOM     24  O   UNL     1       3.729  -1.883  -0.084  0.00  0.00    -0.126 OA
ATOM     25  O   UNL     1       4.767  -0.047  -0.087  0.00  0.00    -0.126 OA
ENDBRANCH  20  23
BRANCH  22  26
ATOM     26  C   UNL     1       1.191   3.562  -0.013  0.00  0.00    +0.101 C 
ATOM     27  N   UNL     1       1.178   4.698  -0.006  0.00  0.00    -0.191 NA
ENDBRANCH  22  26
ENDBRANCH  16  17
ENDBRANCH   1  16
TORSDOF 6
