REMARK  Name = ZINC52060999
REMARK  3 active torsions:
REMARK  status: ('A' for Active; 'I' for Inactive)
REMARK    1  A    between atoms: C_1  and  C_2
REMARK    2  A    between atoms: C_5  and  N_9
REMARK    3  A    between atoms: N_12  and  C_15
REMARK                            x       y       z     vdW  Elec       q    Type
REMARK                         _______ _______ _______ _____ _____    ______ ____
ROOT
ATOM      1  N   UNL     1      -1.240   1.467  -4.434  0.00  0.00    -0.279 NA
ATOM      2  C   UNL     1       0.208   1.710  -4.365  0.00  0.00    +0.068 C 
ATOM      3  C   UNL     1       0.817   1.545  -5.759  0.00  0.00    -0.063 C 
ATOM      4  N   UNL     1       0.554   0.186  -6.250  0.00  0.00    +0.383 N 
ATOM      5  C   UNL     1      -0.896  -0.033  -6.337  0.00  0.00    -0.063 C 
ATOM      6  C   UNL     1      -1.519   0.119  -4.948  0.00  0.00    +0.068 C 
ATOM      7  H   UNL     1       0.958  -0.486  -5.614  0.00  0.00    -0.081 HD
ENDROOT
BRANCH   1  11
ATOM      8  C   UNL     1      -0.013   1.086   0.008  0.00  0.00    +0.085 C 
ATOM      9  C   UNL     1      -0.742   1.585  -1.213  0.00  0.00    +0.102 C 
ATOM     10  N   UNL     1      -1.256   0.800  -2.106  0.00  0.00    -0.245 NA
ATOM     11  C   UNL     1      -1.871   1.672  -3.123  0.00  0.00    +0.238 C 
ATOM     12  C   UNL     1      -1.584   3.066  -2.598  0.00  0.00    +0.111 C 
ATOM     13  N   UNL     1      -0.927   2.882  -1.480  0.00  0.00    -0.333 N 
ATOM     14  N   UNL     1      -1.938   4.250  -3.163  0.00  0.00    -0.345 N 
ATOM     15  H   UNL     1      -2.431   4.261  -3.998  0.00  0.00    +0.143 HD
ATOM     16  H   UNL     1      -1.696   5.085  -2.731  0.00  0.00    +0.143 HD
ATOM     17  H   UNL     1      -0.609   3.602  -0.913  0.00  0.00    +0.168 HD
ENDBRANCH   1  11
BRANCH   4  18
ATOM     18  C   UNL     1       1.154   0.022  -7.581  0.00  0.00    -0.068 C 
ATOM     19  C   UNL     1       0.947  -1.423  -8.079  0.00  0.00    -0.015 C 
ATOM     20  C   UNL     1       2.259  -1.757  -8.832  0.00  0.00    -0.002 C 
ATOM     21  C   UNL     1       3.338  -1.070  -7.960  0.00  0.00    -0.002 C 
ATOM     22  C   UNL     1       2.674   0.246  -7.505  0.00  0.00    -0.015 C 
ENDBRANCH   4  18
TORSDOF 2
