REMARK  Name = ZINC67545460
REMARK  6 active torsions:
REMARK  status: ('A' for Active; 'I' for Inactive)
REMARK    1  A    between atoms: C_1  and  C_2
REMARK    2  A    between atoms: C_5  and  N_9
REMARK    3  A    between atoms: N_12  and  C_13
REMARK    4  A    between atoms: C_13  and  C_14
REMARK    5  A    between atoms: C_15  and  C_20
REMARK    6  A    between atoms: C_18  and  C_19
REMARK                            x       y       z     vdW  Elec       q    Type
REMARK                         _______ _______ _______ _____ _____    ______ ____
ROOT
ATOM      1  N   UNL     1       0.059  -4.171  -0.022  0.00  0.00    -0.269 N 
ATOM      2  C   UNL     1       0.175  -4.850   1.136  0.00  0.00    +0.304 C 
ATOM      3  O   UNL     1       0.173  -4.252   2.195  0.00  0.00    -0.252 OA
ATOM      4  N   UNL     1       0.295  -6.192   1.121  0.00  0.00    -0.295 N 
ATOM      5  H   UNL     1      -0.017  -4.652  -0.861  0.00  0.00    +0.156 HD
ATOM      6  H   UNL     1       0.296  -6.670   0.277  0.00  0.00    +0.151 HD
ENDROOT
BRANCH   1  11
ATOM      7  C   UNL     1       0.013   1.503   0.010  0.00  0.00    +0.045 C 
ATOM      8  C   UNL     1       0.025  -0.004   0.002  0.00  0.00    -0.036 A 
ATOM      9  C   UNL     1       0.780  -0.693   0.933  0.00  0.00    +0.006 A 
ATOM     10  C   UNL     1       0.793  -2.074   0.928  0.00  0.00    +0.023 A 
ATOM     11  C   UNL     1       0.047  -2.771  -0.014  0.00  0.00    +0.036 A 
ATOM     12  C   UNL     1      -0.711  -2.077  -0.948  0.00  0.00    +0.039 A 
ATOM     13  C   UNL     1      -0.724  -0.695  -0.934  0.00  0.00    +0.023 A 
ATOM     14 BR   UNL     1      -1.760   0.253  -2.201  0.00  0.00    -0.050 Br
ENDBRANCH   1  11
BRANCH   4  15
ATOM     15  C   UNL     1       0.422  -6.931   2.380  0.00  0.00    +0.146 C 
BRANCH  15  16
ATOM     16  C   UNL     1       0.539  -8.405   2.088  0.00  0.00    +0.034 A 
ATOM     17  C   UNL     1      -0.530  -9.312   1.977  0.00  0.00    +0.085 A 
ATOM     18  N   UNL     1      -0.035 -10.490   1.719  0.00  0.00    -0.083 NA
ATOM     19  O   UNL     1       1.375 -10.366   1.658  0.00  0.00    -0.359 OA
ATOM     20  C   UNL     1       1.686  -9.081   1.883  0.00  0.00    +0.139 A 
ATOM     21  C   UNL     1       3.075  -8.496   1.904  0.00  0.00    +0.089 C 
ATOM     22  C   UNL     1      -1.992  -8.980   2.130  0.00  0.00    +0.069 C 
ENDBRANCH  15  16
ENDBRANCH   4  15
TORSDOF 3
