REMARK  Name = ZINC04177337
REMARK  7 active torsions:
REMARK  status: ('A' for Active; 'I' for Inactive)
REMARK    1  A    between atoms: C_2  and  C_3
REMARK    2  A    between atoms: C_3  and  O_4
REMARK    3  A    between atoms: O_4  and  C_5
REMARK    4  A    between atoms: C_8  and  C_12
REMARK    5  A    between atoms: C_17  and  O_26
REMARK    6  A    between atoms: C_21  and  N_25
REMARK    7  A    between atoms: C_22  and  C_23
REMARK                            x       y       z     vdW  Elec       q    Type
REMARK                         _______ _______ _______ _____ _____    ______ ____
ROOT
ATOM      1  C   UNL     1      -2.513   0.977   0.019  0.00  0.00    +0.098 C 
ATOM      2  C   UNL     1      -3.303   1.324  -1.215  0.00  0.00    +0.008 A 
ATOM      3  C   UNL     1      -2.935   0.780  -2.433  0.00  0.00    +0.012 A 
ATOM      4  C   UNL     1      -3.647   1.087  -3.575  0.00  0.00    +0.046 A 
ATOM      5  C   UNL     1      -4.738   1.942  -3.504  0.00  0.00    +0.120 A 
ATOM      6  C   UNL     1      -5.109   2.488  -2.286  0.00  0.00    +0.092 A 
ATOM      7  C   UNL     1      -4.391   2.179  -1.138  0.00  0.00    +0.138 A 
ATOM      8  O   UNL     1      -4.768   2.720   0.047  0.00  0.00    -0.441 OA
ATOM      9  C   UNL     1      -4.361   2.161   1.199  0.00  0.00    +0.199 C 
ATOM     10  C   UNL     1      -3.298   1.324   1.253  0.00  0.00    +0.098 C 
ENDROOT
BRANCH   1  14
ATOM     11  C   UNL     1       1.155   3.171   0.008  0.00  0.00    +0.136 A 
ATOM     12  C   UNL     1      -0.057   3.844   0.022  0.00  0.00    +0.047 A 
ATOM     13  C   UNL     1      -1.241   3.133   0.030  0.00  0.00    +0.008 A 
ATOM     14  C   UNL     1      -1.219   1.750   0.017  0.00  0.00    -0.033 A 
ATOM     15  C   UNL     1      -0.013   1.076   0.008  0.00  0.00    +0.023 A 
ATOM     16  C   UNL     1       1.175   1.783   0.000  0.00  0.00    +0.060 A 
ATOM     17 BR   UNL     1       2.826   0.860  -0.019  0.00  0.00    -0.047 Br
BRANCH  11  18
ATOM     18  O   UNL     1       2.322   3.868  -0.000  0.00  0.00    -0.478 OA
BRANCH  18  19
ATOM     19  C   UNL     1       2.225   5.294   0.008  0.00  0.00    +0.317 C 
BRANCH  19  21
ATOM     20  C   UNL     1       4.654   6.343  -0.011  0.00  0.00    +0.007 C 
ATOM     21  C   UNL     1       3.576   5.878  -0.002  0.00  0.00    -0.065 C 
ENDBRANCH  19  21
ENDBRANCH  18  19
ENDBRANCH  11  18
ENDBRANCH   1  14
BRANCH   9  22
ATOM     22  N   UNL     1      -5.045   2.445   2.354  0.00  0.00    -0.328 N 
ATOM     23  H   UNL     1      -4.764   2.049   3.194  0.00  0.00    +0.145 HD
ATOM     24  H   UNL     1      -5.808   3.043   2.332  0.00  0.00    +0.145 HD
ENDBRANCH   9  22
BRANCH  10  25
ATOM     25  C   UNL     1      -2.915   0.757   2.511  0.00  0.00    +0.101 C 
ATOM     26  N   UNL     1      -2.610   0.308   3.509  0.00  0.00    -0.191 NA
ENDBRANCH  10  25
BRANCH   5  27
ATOM     27  O   UNL     1      -5.440   2.244  -4.628  0.00  0.00    -0.507 OA
ATOM     28  H   UNL     1      -5.112   3.022  -5.100  0.00  0.00    +0.292 HD
ENDBRANCH   5  27
TORSDOF 7
