REMARK  Name = ZINC05606379
REMARK  11 active torsions:
REMARK  status: ('A' for Active; 'I' for Inactive)
REMARK    1  A    between atoms: C_1  and  C_2
REMARK    2  A    between atoms: C_2  and  C_3
REMARK    3  A    between atoms: C_2  and  N_4
REMARK    4  A    between atoms: N_4  and  C_26
REMARK    5  A    between atoms: N_11  and  C_14
REMARK    6  A    between atoms: C_16  and  O_25
REMARK    7  A    between atoms: C_18  and  N_51
REMARK    8  A    between atoms: C_20  and  C_23
REMARK    9  A    between atoms: C_23  and  O_24
REMARK   10  A    between atoms: C_26  and  C_27
REMARK   11  A    between atoms: C_26  and  C_28
REMARK                            x       y       z     vdW  Elec       q    Type
REMARK                         _______ _______ _______ _____ _____    ______ ____
ROOT
ATOM      1  N   UNL     1       0.831   7.672  -6.651  0.00  0.00    -0.308 N 
ATOM      2  C   UNL     1       1.434   7.552  -5.412  0.00  0.00    +0.153 A 
ATOM      3  C   UNL     1       2.761   7.102  -5.298  0.00  0.00    +0.148 A 
ATOM      4  C   UNL     1       3.319   7.002  -4.012  0.00  0.00    +0.167 A 
ATOM      5  N   UNL     1       2.579   7.334  -2.959  0.00  0.00    -0.216 NA
ATOM      6  C   UNL     1       1.340   7.750  -3.114  0.00  0.00    +0.225 A 
ATOM      7  N   UNL     1       0.772   7.861  -4.301  0.00  0.00    -0.218 NA
ATOM      8  N   UNL     1       4.601   6.548  -4.191  0.00  0.00    -0.286 N 
ATOM      9  C   UNL     1       4.795   6.390  -5.531  0.00  0.00    +0.203 A 
ATOM     10  N   UNL     1       3.713   6.711  -6.178  0.00  0.00    -0.231 NA
ENDROOT
BRANCH   8  11
ATOM     11  C   UNL     1       5.583   6.286  -3.136  0.00  0.00    +0.249 C 
ATOM     12  C   UNL     1       6.383   7.568  -2.815  0.00  0.00    +0.152 C 
ATOM     13  C   UNL     1       7.815   7.057  -2.539  0.00  0.00    -0.010 C 
ATOM     14  C   UNL     1       7.710   5.527  -2.725  0.00  0.00    +0.134 C 
ATOM     15  O   UNL     1       6.572   5.338  -3.594  0.00  0.00    -0.350 OA
BRANCH  13  18
ATOM     16  H   UNL     1       9.687   7.253  -3.372  0.00  0.00    -0.089 HD
ATOM     17  H   UNL     1       8.444   7.484  -4.452  0.00  0.00    -0.089 HD
ATOM     18  N   UNL     1       8.760   7.655  -3.499  0.00  0.00    +0.383 N 
ATOM     19  H   UNL     1       8.808   8.668  -3.339  0.00  0.00    -0.089 HD
ENDBRANCH  13  18
BRANCH  12  20
ATOM     20  O   UNL     1       5.850   8.214  -1.658  0.00  0.00    -0.389 OA
ATOM     21  H   UNL     1       4.931   8.501  -1.756  0.00  0.00    +0.210 HD
ENDBRANCH  12  20
BRANCH  14  22
ATOM     22  C   UNL     1       8.979   4.983  -3.385  0.00  0.00    +0.185 C 
BRANCH  22  23
ATOM     23  O   UNL     1       8.880   3.563  -3.509  0.00  0.00    -0.393 OA
ATOM     24  H   UNL     1       9.652   3.150  -3.920  0.00  0.00    +0.210 HD
ENDBRANCH  22  23
ENDBRANCH  14  22
ENDBRANCH   8  11
BRANCH   1  26
ATOM     25  C   UNL     1      -1.446   8.276  -5.983  0.00  0.00    +0.028 C 
ATOM     26  C   UNL     1      -0.158   8.758  -6.653  0.00  0.00    +0.069 C 
ATOM     27  C   UNL     1       0.399   9.957  -5.884  0.00  0.00    +0.028 C 
ENDBRANCH   1  26
BRANCH   1  28
ATOM     28  C   UNL     1       1.833   7.870  -7.707  0.00  0.00    +0.069 C 
ATOM     29  C   UNL     1       1.138   7.900  -9.070  0.00  0.00    +0.028 C 
ATOM     30  C   UNL     1       2.561   9.196  -7.476  0.00  0.00    +0.028 C 
ENDBRANCH   1  28
TORSDOF 7
