REMARK  Name = ZINC13592884
REMARK  4 active torsions:
REMARK  status: ('A' for Active; 'I' for Inactive)
REMARK    1  A    between atoms: C_4  and  C_7
REMARK    2  A    between atoms: N_10  and  C_12
REMARK    3  A    between atoms: C_15  and  N_18
REMARK    4  A    between atoms: C_25  and  C_27
REMARK                            x       y       z     vdW  Elec       q    Type
REMARK                         _______ _______ _______ _____ _____    ______ ____
ROOT
ATOM      1  C   UNL     1       3.786  -1.147  -0.435  0.00  0.00    +0.099 A 
ATOM      2  C   UNL     1       4.029  -2.141   0.516  0.00  0.00    +0.028 A 
ATOM      3  C   UNL     1       5.286  -2.632   0.301  0.00  0.00    +0.133 A 
ATOM      4  N   UNL     1       5.818  -1.961  -0.744  0.00  0.00    -0.217 N 
ATOM      5  N   UNL     1       4.860  -1.040  -1.197  0.00  0.00    -0.164 NA
ATOM      6  N   UNL     1       5.820  -3.659   1.080  0.00  0.00    -0.270 N 
ATOM      7  C   UNL     1       4.995  -4.305   1.932  0.00  0.00    +0.219 C 
ATOM      8  O   UNL     1       5.472  -5.066   2.747  0.00  0.00    -0.275 OA
ATOM      9  C   UNL     1       3.506  -4.110   1.902  0.00  0.00    +0.109 C 
ATOM     10  C   UNL     1       3.142  -2.648   1.624  0.00  0.00    +0.064 C 
ATOM     11  H   UNL     1       6.756  -3.901   1.012  0.00  0.00    +0.156 HD
ENDROOT
BRANCH   1  15
ATOM     12  C   UNL     1       0.211   1.124  -0.823  0.00  0.00    +0.000 A 
ATOM     13  C   UNL     1       0.769   0.925   0.427  0.00  0.00    +0.001 A 
ATOM     14  C   UNL     1       1.929   0.189   0.559  0.00  0.00    +0.010 A 
ATOM     15  C   UNL     1       2.538  -0.355  -0.571  0.00  0.00    +0.002 A 
ATOM     16  C   UNL     1       1.972  -0.151  -1.827  0.00  0.00    +0.010 A 
ATOM     17  C   UNL     1       0.812   0.586  -1.947  0.00  0.00    +0.001 A 
ENDBRANCH   1  15
BRANCH   4  18
ATOM     18  C   UNL     1       7.097  -2.153  -1.282  0.00  0.00    +0.068 A 
ATOM     19  C   UNL     1       8.159  -2.484  -0.451  0.00  0.00    +0.030 A 
ATOM     20  C   UNL     1       9.419  -2.672  -0.985  0.00  0.00    +0.035 A 
ATOM     21  C   UNL     1       9.623  -2.531  -2.346  0.00  0.00    +0.126 A 
ATOM     22  C   UNL     1       8.567  -2.201  -3.176  0.00  0.00    +0.035 A 
ATOM     23  C   UNL     1       7.304  -2.018  -2.648  0.00  0.00    +0.030 A 
BRANCH  21  24
ATOM     24  N   UNL     1      10.975  -2.733  -2.915  0.00  0.00    +0.056 N 
ATOM     25  O   UNL     1      11.899  -3.021  -2.190  0.00  0.00    -0.126 OA
ATOM     26  O   UNL     1      11.154  -2.611  -4.104  0.00  0.00    -0.126 OA
ENDBRANCH  21  24
ENDBRANCH   4  18
BRANCH  10  27
ATOM     27  C   UNL     1       1.698  -2.556   1.202  0.00  0.00    -0.032 A 
ATOM     28  C   UNL     1       0.769  -1.928   2.010  0.00  0.00    +0.012 A 
ATOM     29  C   UNL     1      -0.521  -1.862   1.600  0.00  0.00    +0.045 A 
ATOM     30  S   UNL     1      -0.453  -2.705   0.028  0.00  0.00    -0.105 S 
ATOM     31  C   UNL     1       1.292  -3.083   0.021  0.00  0.00    +0.049 A 
ENDBRANCH  10  27
TORSDOF 4
