REMARK  Name = ZINC24786809
REMARK  10 active torsions:
REMARK  status: ('A' for Active; 'I' for Inactive)
REMARK    1  A    between atoms: C_1  and  O_2
REMARK    2  A    between atoms: O_2  and  C_3
REMARK    3  A    between atoms: C_3  and  C_4
REMARK    4  A    between atoms: C_4  and  N_5
REMARK    5  A    between atoms: C_6  and  N_31
REMARK    6  A    between atoms: C_7  and  C_14
REMARK    7  A    between atoms: C_14  and  C_16
REMARK    8  A    between atoms: C_16  and  S_17
REMARK    9  A    between atoms: S_17  and  C_18
REMARK   10  A    between atoms: C_21  and  C_24
REMARK                            x       y       z     vdW  Elec       q    Type
REMARK                         _______ _______ _______ _____ _____    ______ ____
ROOT
ATOM      1  C   UNL     1      -4.137   2.612  -2.578  0.00  0.00    +0.182 C 
ATOM      2  O   UNL     1      -4.280   3.316  -1.598  0.00  0.00    -0.291 OA
ENDROOT
BRANCH   1   5
ATOM      3  N   UNL     1      -2.083  -0.142  -1.241  0.00  0.00    -0.279 N 
ATOM      4  C   UNL     1      -2.765   1.041  -1.288  0.00  0.00    +0.116 A 
ATOM      5  C   UNL     1      -3.424   1.399  -2.477  0.00  0.00    +0.120 A 
ATOM      6  C   UNL     1      -3.349   0.468  -3.610  0.00  0.00    +0.266 A 
ATOM      7  O   UNL     1      -3.904   0.724  -4.663  0.00  0.00    -0.267 OA
ATOM      8  N   UNL     1      -2.654  -0.678  -3.460  0.00  0.00    -0.274 N 
ATOM      9  H   UNL     1      -2.583  -1.392  -4.294  0.00  0.00    +0.173 HD
ATOM     10  C   UNL     1      -2.041  -0.965  -2.300  0.00  0.00    +0.331 A 
ATOM     11  O   UNL     1      -1.425  -2.009  -2.206  0.00  0.00    -0.246 OA
BRANCH   4  12
ATOM     12  N   UNL     1      -2.802   1.861  -0.203  0.00  0.00    -0.344 N 
ATOM     13  H   UNL     1      -3.354   2.812  -0.251  0.00  0.00    +0.144 HD
ATOM     14  H   UNL     1      -2.281   1.574   0.722  0.00  0.00    +0.144 HD
ENDBRANCH   4  12
BRANCH   3  15
ATOM     15  C   UNL     1      -1.390  -0.522  -0.008  0.00  0.00    +0.156 C 
BRANCH  15  16
ATOM     16  C   UNL     1       0.045   0.008  -0.045  0.00  0.00    +0.181 C 
BRANCH  16  18
ATOM     17  C   UNL     1       1.322   2.036  -0.077  0.00  0.00    +0.194 C 
ATOM     18  O   UNL     1       0.025   1.437  -0.043  0.00  0.00    -0.381 OA
ENDBRANCH  16  18
ENDBRANCH  15  16
ENDBRANCH   3  15
ENDBRANCH   1   5
BRANCH   1  19
ATOM     19  C   UNL     1      -4.722   3.035  -3.900  0.00  0.00    +0.157 C 
BRANCH  19  20
ATOM     20  S   UNL     1      -5.570   4.622  -3.705  0.00  0.00    -0.078 S 
BRANCH  20  21
ATOM     21  C   UNL     1      -6.141   4.870  -5.354  0.00  0.00    +0.185 A 
ATOM     22  N   UNL     1      -6.863   5.935  -5.810  0.00  0.00    -0.201 NA
ATOM     23  H   UNL     1      -5.412   3.104  -6.425  0.00  0.00    +0.191 HD
ATOM     24  C   UNL     1      -7.075   5.694  -7.148  0.00  0.00    +0.183 A 
ATOM     25  N   UNL     1      -6.508   4.544  -7.427  0.00  0.00    -0.152 NA
ATOM     26  N   UNL     1      -5.950   4.063  -6.374  0.00  0.00    -0.253 N 
BRANCH  24  27
ATOM     27  C   UNL     1      -7.806   6.566  -8.093  0.00  0.00    +0.035 A 
ATOM     28  C   UNL     1      -8.275   7.812  -7.677  0.00  0.00    +0.013 A 
ATOM     29  C   UNL     1      -8.956   8.621  -8.563  0.00  0.00    +0.001 A 
ATOM     30  C   UNL     1      -9.173   8.199  -9.863  0.00  0.00    +0.001 A 
ATOM     31  C   UNL     1      -8.710   6.965 -10.283  0.00  0.00    +0.016 A 
ATOM     32  C   UNL     1      -8.023   6.148  -9.407  0.00  0.00    +0.029 A 
ATOM     33 BR   UNL     1      -7.384   4.464  -9.985  0.00  0.00    -0.050 Br
ENDBRANCH  24  27
ENDBRANCH  20  21
ENDBRANCH  19  20
ENDBRANCH   1  19
TORSDOF 9
