REMARK  Name = ZINC36628890
REMARK  11 active torsions:
REMARK  status: ('A' for Active; 'I' for Inactive)
REMARK    1  A    between atoms: C_1  and  C_2
REMARK    2  A    between atoms: C_2  and  C_3
REMARK    3  A    between atoms: C_2  and  C_4
REMARK    4  A    between atoms: C_7  and  O_10
REMARK    5  A    between atoms: O_10  and  C_11
REMARK    6  A    between atoms: C_11  and  C_12
REMARK    7  A    between atoms: N_14  and  C_15
REMARK    8  A    between atoms: C_16  and  C_27
REMARK    9  A    between atoms: N_21  and  C_24
REMARK   10  A    between atoms: C_24  and  C_25
REMARK   11  A    between atoms: C_24  and  C_26
REMARK                            x       y       z     vdW  Elec       q    Type
REMARK                         _______ _______ _______ _____ _____    ______ ____
ROOT
ATOM      1  C   UNL     1       3.213  -4.162   8.678  0.00  0.00    +0.084 A 
ATOM      2  C   UNL     1       2.885  -4.979   9.751  0.00  0.00    +0.068 A 
ATOM      3  C   UNL     1       3.926  -5.236  10.726  0.00  0.00    -0.027 A 
ATOM      4  C   UNL     1       5.105  -4.631  10.455  0.00  0.00    -0.021 A 
ATOM      5  S   UNL     1       4.822  -3.760   8.944  0.00  0.00    -0.079 S 
ATOM      6  C   UNL     1       6.349  -4.711  11.282  0.00  0.00    -0.035 C 
ATOM      7  N   UNL     1       5.987  -5.228  12.615  0.00  0.00    +0.384 N 
ATOM      8  C   UNL     1       5.186  -6.450  12.469  0.00  0.00    -0.073 C 
ATOM      9  C   UNL     1       3.779  -6.104  11.969  0.00  0.00    +0.018 C 
ATOM     10  H   UNL     1       5.451  -4.532  13.111  0.00  0.00    -0.081 HD
ENDROOT
BRANCH   2  11
ATOM     11  C   UNL     1       1.545  -5.556   9.892  0.00  0.00    +0.244 C 
ATOM     12  O   UNL     1       1.295  -6.641   9.401  0.00  0.00    -0.270 OA
ATOM     13  N   UNL     1       0.590  -4.884  10.566  0.00  0.00    -0.325 N 
ATOM     14  H   UNL     1       0.789  -4.019  10.957  0.00  0.00    +0.145 HD
ATOM     15  H   UNL     1      -0.297  -5.266  10.659  0.00  0.00    +0.145 HD
ENDBRANCH   2  11
BRANCH   1  18
ATOM     16  C   UNL     1       2.889  -2.972   6.657  0.00  0.00    +0.255 C 
ATOM     17  O   UNL     1       4.040  -2.594   6.706  0.00  0.00    -0.272 OA
ATOM     18  N   UNL     1       2.400  -3.772   7.625  0.00  0.00    -0.277 N 
ATOM     19  H   UNL     1       1.479  -4.074   7.585  0.00  0.00    +0.155 HD
BRANCH  16  20
ATOM     20  C   UNL     1       2.005  -2.548   5.512  0.00  0.00    +0.324 C 
BRANCH  20  21
ATOM     21  O   UNL     1       2.746  -1.710   4.623  0.00  0.00    -0.483 OA
BRANCH  21  25
ATOM     22  C   UNL     1       0.758  -0.277   1.305  0.00  0.00    -0.045 A 
ATOM     23  C   UNL     1       2.082   0.060   1.515  0.00  0.00    +0.007 A 
ATOM     24  C   UNL     1       2.750  -0.418   2.625  0.00  0.00    +0.046 A 
ATOM     25  C   UNL     1       2.091  -1.238   3.530  0.00  0.00    +0.121 A 
ATOM     26  C   UNL     1       0.762  -1.575   3.317  0.00  0.00    +0.046 A 
ATOM     27  C   UNL     1       0.097  -1.089   2.208  0.00  0.00    +0.007 A 
BRANCH  22  29
ATOM     28  C   UNL     1       0.029   1.775   0.119  0.00  0.00    +0.012 C 
ATOM     29  C   UNL     1       0.031   0.245   0.092  0.00  0.00    +0.013 C 
ATOM     30  C   UNL     1       0.738  -0.241  -1.175  0.00  0.00    +0.012 C 
ENDBRANCH  22  29
ENDBRANCH  21  25
ENDBRANCH  20  21
ENDBRANCH  16  20
ENDBRANCH   1  18
BRANCH   7  31
ATOM     31  C   UNL     1       7.210  -5.533  13.370  0.00  0.00    -0.074 C 
ATOM     32  C   UNL     1       8.108  -4.295  13.407  0.00  0.00    -0.014 C 
ATOM     33  C   UNL     1       6.840  -5.938  14.798  0.00  0.00    -0.014 C 
ENDBRANCH   7  31
TORSDOF 7
