REMARK  Name = ZINC34259521
REMARK  9 active torsions:
REMARK  status: ('A' for Active; 'I' for Inactive)
REMARK    1  A    between atoms: C_1  and  C_2
REMARK    2  A    between atoms: C_2  and  C_4
REMARK    3  A    between atoms: C_2  and  O_40
REMARK    4  A    between atoms: C_4  and  C_37
REMARK    5  A    between atoms: C_9  and  C_12
REMARK    6  A    between atoms: C_16  and  O_18
REMARK    7  A    between atoms: O_18  and  C_19
REMARK    8  A    between atoms: N_25  and  C_28
REMARK    9  A    between atoms: C_32  and  N_34
REMARK                            x       y       z     vdW  Elec       q    Type
REMARK                         _______ _______ _______ _____ _____    ______ ____
ROOT
ATOM      1  C   UNL     1       0.593  -0.786   1.177  0.00  0.00    +0.074 C 
ATOM      2  C   UNL     1       0.295  -2.268   1.025  0.00  0.00    +0.089 C 
ATOM      3  C   UNL     1       1.522  -2.661   0.118  0.00  0.00    +0.077 C 
ATOM      4  C   UNL     1       2.646  -2.038   0.837  0.00  0.00    -0.026 C 
ATOM      5  N   UNL     1       2.083  -0.674   1.175  0.00  0.00    +0.397 N 
ATOM      6  C   UNL     1       1.111  -3.946  -0.390  0.00  0.00    +0.229 C 
ATOM      7  O   UNL     1       1.816  -4.900  -0.641  0.00  0.00    -0.275 OA
ATOM      8  N   UNL     1      -0.252  -3.856  -0.526  0.00  0.00    -0.210 N 
ATOM      9  C   UNL     1      -0.785  -2.758   0.112  0.00  0.00    +0.229 C 
ATOM     10  O   UNL     1      -1.890  -2.282  -0.034  0.00  0.00    -0.275 OA
ATOM     11  H   UNL     1       2.374   0.002   0.485  0.00  0.00    -0.083 HD
ATOM     12  H   UNL     1       2.406  -0.393   2.088  0.00  0.00    -0.083 HD
ENDROOT
BRANCH   4  13
ATOM     13  C   UNL     1       2.989  -2.822   2.078  0.00  0.00    -0.057 A 
ATOM     14  C   UNL     1       2.230  -2.669   3.224  0.00  0.00    +0.002 A 
ATOM     15  C   UNL     1       2.542  -3.387   4.363  0.00  0.00    +0.004 A 
ATOM     16  C   UNL     1       3.614  -4.260   4.359  0.00  0.00    +0.046 A 
ATOM     17  C   UNL     1       4.376  -4.415   3.211  0.00  0.00    +0.130 A 
ATOM     18  C   UNL     1       4.057  -3.698   2.067  0.00  0.00    +0.048 A 
BRANCH  17  19
ATOM     19  O   UNL     1       5.431  -5.272   3.205  0.00  0.00    -0.406 OA
BRANCH  19  20
ATOM     20  C   UNL     1       5.697  -5.982   4.417  0.00  0.00    +0.575 C 
ATOM     21  F   UNL     1       4.583  -6.757   4.757  0.00  0.00    -0.133 F 
ATOM     22  F   UNL     1       6.807  -6.814   4.236  0.00  0.00    -0.133 F 
ATOM     23  F   UNL     1       5.961  -5.069   5.443  0.00  0.00    -0.133 F 
ENDBRANCH  19  20
ENDBRANCH  17  19
ENDBRANCH   4  13
BRANCH   8  24
ATOM     24  C   UNL     1      -1.025  -4.789  -1.233  0.00  0.00    +0.046 A 
ATOM     25  C   UNL     1      -2.400  -4.622  -1.329  0.00  0.00    +0.024 A 
ATOM     26  C   UNL     1      -3.159  -5.542  -2.025  0.00  0.00    +0.004 A 
ATOM     27  C   UNL     1      -2.551  -6.628  -2.626  0.00  0.00    +0.033 A 
ATOM     28  C   UNL     1      -1.182  -6.798  -2.532  0.00  0.00    +0.128 A 
ATOM     29  C   UNL     1      -0.417  -5.878  -1.842  0.00  0.00    +0.056 A 
BRANCH  28  30
ATOM     30  N   UNL     1      -0.535  -7.963  -3.176  0.00  0.00    +0.056 N 
ATOM     31  O   UNL     1      -1.203  -8.766  -3.784  0.00  0.00    -0.126 OA
ATOM     32  O   UNL     1       0.662  -8.111  -3.094  0.00  0.00    -0.126 OA
ENDBRANCH  28  30
ENDBRANCH   8  24
BRANCH   1  33
ATOM     33  C   UNL     1       0.034  -0.270   2.478  0.00  0.00    +0.349 C 
ATOM     34  O   UNL     1      -1.165  -0.322   2.690  0.00  0.00    -0.248 OA
ATOM     35  O   UNL     1       0.782   0.199   3.320  0.00  0.00    -0.248 OA
ENDBRANCH   1  33
BRANCH   1  37
ATOM     36  C   UNL     1       0.267   1.490   0.198  0.00  0.00    +0.037 C 
ATOM     37  C   UNL     1       0.002  -0.004   0.002  0.00  0.00    +0.112 C 
BRANCH  37  38
ATOM     38  O   UNL     1       0.611  -0.440  -1.215  0.00  0.00    -0.393 OA
ATOM     39  H   UNL     1       1.550  -0.217  -1.287  0.00  0.00    +0.210 HD
ENDBRANCH  37  38
ENDBRANCH   1  37
TORSDOF 8
