REMARK  Name = ZINC12465983
REMARK  6 active torsions:
REMARK  status: ('A' for Active; 'I' for Inactive)
REMARK    1  A    between atoms: C_1  and  C_2
REMARK    2  A    between atoms: C_7  and  C_8
REMARK    3  A    between atoms: N_10  and  N_11
REMARK    4  A    between atoms: C_15  and  C_19
REMARK    5  A    between atoms: C_15  and  C_20
REMARK    6  A    between atoms: C_17  and  C_18
REMARK                            x       y       z     vdW  Elec       q    Type
REMARK                         _______ _______ _______ _____ _____    ______ ____
ROOT
ATOM      1  C   UNL     1      -0.018   1.503   0.010  0.00  0.00    +0.044 C 
ATOM      2  C   UNL     1       0.002  -0.004   0.002  0.00  0.00    -0.046 A 
ATOM      3  C   UNL     1       0.005  -0.671  -1.212  0.00  0.00    +0.013 A 
ATOM      4  C   UNL     1       0.024  -2.067  -1.228  0.00  0.00    +0.000 A 
ATOM      5  C   UNL     1       0.040  -2.732  -0.012  0.00  0.00    +0.055 A 
ATOM      6  C   UNL     1       0.036  -2.075   1.208  0.00  0.00    +0.032 A 
ATOM      7  C   UNL     1       0.023  -0.684   1.208  0.00  0.00    -0.036 A 
ATOM      8  C   UNL     1       0.025   0.076   2.510  0.00  0.00    +0.045 C 
ATOM      9  C   UNL     1       0.056  -3.154   2.220  0.00  0.00    +0.152 C 
ATOM     10  N   UNL     1       0.060  -3.023   3.526  0.00  0.00    -0.184 NA
ATOM     11  C   UNL     1       0.070  -4.413   1.443  0.00  0.00    +0.272 C 
ATOM     12  O   UNL     1       0.088  -5.538   1.907  0.00  0.00    -0.268 OA
ATOM     13  N   UNL     1       0.059  -4.100   0.133  0.00  0.00    -0.256 N 
ATOM     14  C   UNL     1       0.065  -4.902  -1.102  0.00  0.00    +0.056 C 
ATOM     15  C   UNL     1       0.047  -4.176  -2.428  0.00  0.00    +0.002 C 
ATOM     16  C   UNL     1       0.029  -2.848  -2.480  0.00  0.00    -0.043 C 
ATOM     17  C   UNL     1       0.011  -2.143  -3.812  0.00  0.00    +0.044 C 
ATOM     18  C   UNL     1       1.310  -5.789  -1.075  0.00  0.00    +0.036 C 
ATOM     19  C   UNL     1      -1.155  -5.825  -1.062  0.00  0.00    +0.036 C 
ENDROOT
BRANCH  10  20
ATOM     20  N   UNL     1       0.078  -4.070   4.280  0.00  0.00    -0.282 N 
ATOM     21  H   UNL     1       0.088  -4.954   3.881  0.00  0.00    +0.164 HD
ATOM     22  H   UNL     1       0.081  -3.973   5.245  0.00  0.00    +0.164 HD
ENDBRANCH  10  20
TORSDOF 1
