REMARK  Name = ZINC63375936
REMARK  8 active torsions:
REMARK  status: ('A' for Active; 'I' for Inactive)
REMARK    1  A    between atoms: C_1  and  C_2
REMARK    2  A    between atoms: C_2  and  C_3
REMARK    3  A    between atoms: C_3  and  C_4
REMARK    4  A    between atoms: C_4  and  N_5
REMARK    5  A    between atoms: C_6  and  O_32
REMARK    6  A    between atoms: C_8  and  C_15
REMARK    7  A    between atoms: C_22  and  O_27
REMARK    8  A    between atoms: O_27  and  C_28
REMARK                            x       y       z     vdW  Elec       q    Type
REMARK                         _______ _______ _______ _____ _____    ______ ____
ROOT
ATOM      1  C   UNL     1       0.839  -2.895  -6.180  0.00  0.00    +0.096 C 
ATOM      2  C   UNL     1       1.597  -2.391  -7.410  0.00  0.00    +0.124 C 
ATOM      3  C   UNL     1       0.787  -2.837  -8.623  0.00  0.00    -0.036 C 
ATOM      4  C   UNL     1       1.621  -3.507  -9.405  0.00  0.00    +0.003 A 
ATOM      5  C   UNL     1       1.454  -4.104 -10.739  0.00  0.00    +0.055 A 
ATOM      6  C   UNL     1       2.535  -4.747 -11.260  0.00  0.00    +0.121 A 
ATOM      7  C   UNL     1       3.769  -4.865 -10.604  0.00  0.00    +0.047 A 
ATOM      8  C   UNL     1       4.033  -4.349  -9.376  0.00  0.00    +0.029 A 
ATOM      9  C   UNL     1       2.941  -3.624  -8.712  0.00  0.00    +0.043 A 
ATOM     10  N   UNL     1       2.917  -3.006  -7.549  0.00  0.00    -0.376 N 
ATOM     11  C   UNL     1      -0.697  -2.580  -8.721  0.00  0.00    +0.048 C 
ATOM     12  C   UNL     1      -1.300  -3.020  -7.375  0.00  0.00    +0.085 C 
ATOM     13  N   UNL     1      -0.551  -2.421  -6.266  0.00  0.00    -0.310 NA
ATOM     14  H   UNL     1      -1.033  -2.554  -5.390  0.00  0.00    +0.122 HD
ATOM     15  H   UNL     1       3.634  -2.963  -6.897  0.00  0.00    +0.160 HD
ENDROOT
BRANCH   1  18
ATOM     16  N   UNL     1       1.827  -0.288  -3.633  0.00  0.00    -0.286 N 
ATOM     17  C   UNL     1       1.501  -0.817  -4.959  0.00  0.00    +0.217 C 
ATOM     18  C   UNL     1       1.494  -2.347  -4.911  0.00  0.00    +0.141 C 
ATOM     19  C   UNL     1       0.713  -2.801  -3.703  0.00  0.00    +0.227 C 
ATOM     20  O   UNL     1       0.057  -3.820  -3.753  0.00  0.00    -0.275 OA
ATOM     21  N   UNL     1       0.745  -2.076  -2.570  0.00  0.00    -0.267 N 
ATOM     22  C   UNL     1       1.398  -0.903  -2.520  0.00  0.00    +0.141 C 
ATOM     23  S   UNL     1       1.684  -0.172  -0.998  0.00  0.00    -0.018 S 
ATOM     24  H   UNL     1       0.294  -2.407  -1.778  0.00  0.00    +0.157 HD
BRANCH  17  25
ATOM     25  O   UNL     1       0.211  -0.348  -5.355  0.00  0.00    -0.373 OA
ATOM     26  H   UNL     1       0.142   0.616  -5.408  0.00  0.00    +0.212 HD
ENDBRANCH  17  25
BRANCH  16  27
ATOM     27  C   UNL     1       2.637   0.928  -3.521  0.00  0.00    +0.109 C 
BRANCH  27  28
ATOM     28  C   UNL     1       4.118   0.549  -3.462  0.00  0.00    +0.019 C 
BRANCH  28  30
ATOM     29  C   UNL     1       6.446   1.440  -3.286  0.00  0.00    +0.004 C 
ATOM     30  C   UNL     1       4.965   1.818  -3.344  0.00  0.00    -0.002 C 
ENDBRANCH  28  30
ENDBRANCH  27  28
ENDBRANCH  16  27
ENDBRANCH   1  18
BRANCH   6  31
ATOM     31  O   UNL     1       2.411  -5.309 -12.492  0.00  0.00    -0.495 OA
ATOM     32  C   UNL     1       3.558  -5.979 -13.018  0.00  0.00    +0.277 C 
ENDBRANCH   6  31
TORSDOF 6
