REMARK  Name = ZINC24295295
REMARK  9 active torsions:
REMARK  status: ('A' for Active; 'I' for Inactive)
REMARK    1  A    between atoms: C_1  and  C_2
REMARK    2  A    between atoms: C_2  and  C_3
REMARK    3  A    between atoms: C_3  and  N_4
REMARK    4  A    between atoms: C_14  and  S_15
REMARK    5  A    between atoms: S_15  and  C_16
REMARK    6  A    between atoms: C_16  and  C_18
REMARK    7  A    between atoms: C_16  and  C_21
REMARK    8  A    between atoms: C_18  and  C_19
REMARK    9  A    between atoms: C_18  and  C_20
REMARK                            x       y       z     vdW  Elec       q    Type
REMARK                         _______ _______ _______ _____ _____    ______ ____
ROOT
ATOM      1  N   UNL     1       0.642  -2.059  -1.139  0.00  0.00    -0.287 N 
ATOM      2  C   UNL     1      -0.343  -2.767  -1.740  0.00  0.00    +0.262 A 
ATOM      3  O   UNL     1      -1.310  -2.212  -2.228  0.00  0.00    -0.267 OA
ATOM      4  C   UNL     1      -0.201  -4.228  -1.783  0.00  0.00    +0.066 A 
ATOM      5  C   UNL     1      -1.161  -5.044  -2.380  0.00  0.00    +0.030 A 
ATOM      6  C   UNL     1      -0.977  -6.410  -2.390  0.00  0.00    +0.019 A 
ATOM      7  C   UNL     1       0.154  -6.975  -1.813  0.00  0.00    +0.017 A 
ATOM      8  C   UNL     1       1.107  -6.194  -1.223  0.00  0.00    +0.029 A 
ATOM      9  C   UNL     1       0.948  -4.805  -1.196  0.00  0.00    +0.079 A 
ATOM     10  N   UNL     1       1.870  -3.998  -0.621  0.00  0.00    -0.223 NA
ATOM     11  C   UNL     1       1.723  -2.696  -0.600  0.00  0.00    +0.173 A 
ATOM     12 BR   UNL     1      -2.274  -7.525  -3.197  0.00  0.00    -0.050 Br
ENDROOT
BRANCH   1  13
ATOM     13  C   UNL     1       0.549  -0.599  -1.070  0.00  0.00    +0.127 C 
BRANCH  13  15
ATOM     14  C   UNL     1      -0.275   1.331   0.286  0.00  0.00    +0.005 C 
ATOM     15  C   UNL     1      -0.178  -0.194   0.214  0.00  0.00    +0.018 C 
ENDBRANCH  13  15
ENDBRANCH   1  13
BRANCH  11  16
ATOM     16  S   UNL     1       2.976  -1.722   0.165  0.00  0.00    -0.075 S 
BRANCH  16  17
ATOM     17  C   UNL     1       4.070  -3.032   0.767  0.00  0.00    +0.143 C 
BRANCH  17  18
ATOM     18  C   UNL     1       4.733  -3.711  -0.405  0.00  0.00    +0.234 C 
ATOM     19  O   UNL     1       4.873  -3.114  -1.451  0.00  0.00    -0.274 OA
ATOM     20  N   UNL     1       5.170  -4.980  -0.289  0.00  0.00    -0.239 N 
ATOM     21  C   UNL     1       5.763  -5.587  -1.336  0.00  0.00    +0.303 C 
ATOM     22  O   UNL     1       5.904  -4.989  -2.385  0.00  0.00    -0.253 OA
ATOM     23  N   UNL     1       6.200  -6.856  -1.220  0.00  0.00    -0.313 N 
ATOM     24  H   UNL     1       5.043  -5.521   0.660  0.00  0.00    +0.159 HD
ATOM     25  H   UNL     1       6.684  -7.351  -2.075  0.00  0.00    +0.146 HD
ATOM     26  H   UNL     1       6.073  -7.397  -0.271  0.00  0.00    +0.146 HD
ENDBRANCH  17  18
BRANCH  17  27
ATOM     27  C   UNL     1       5.140  -2.426   1.677  0.00  0.00    +0.005 C 
ATOM     28  C   UNL     1       4.467  -1.740   2.868  0.00  0.00    +0.009 C 
ATOM     29  C   UNL     1       6.066  -3.533   2.183  0.00  0.00    +0.009 C 
ENDBRANCH  17  27
ENDBRANCH  16  17
ENDBRANCH  11  16
TORSDOF 6
