REMARK  Name = ZINC03642495
REMARK  7 active torsions:
REMARK  status: ('A' for Active; 'I' for Inactive)
REMARK    1  A    between atoms: C_1  and  C_2
REMARK    2  A    between atoms: C_2  and  C_3
REMARK    3  A    between atoms: C_6  and  C_9
REMARK    4  A    between atoms: C_12  and  C_21
REMARK    5  A    between atoms: C_24  and  O_27
REMARK    6  A    between atoms: O_27  and  C_28
REMARK    7  A    between atoms: C_28  and  C_29
REMARK                            x       y       z     vdW  Elec       q    Type
REMARK                         _______ _______ _______ _____ _____    ______ ____
ROOT
ATOM      1  C   UNL     1       2.707  -1.868  -4.752  0.00  0.00    +0.106 C 
ATOM      2  C   UNL     1       3.393  -0.689  -5.450  0.00  0.00    +0.058 C 
ATOM      3  C   UNL     1       4.368  -0.009  -4.481  0.00  0.00    +0.143 C 
ATOM      4  N   UNL     1       5.209  -1.033  -3.862  0.00  0.00    -0.224 N 
ATOM      5  C   UNL     1       4.903  -2.352  -3.825  0.00  0.00    +0.216 A 
ATOM      6  N   UNL     1       5.868  -2.977  -3.204  0.00  0.00    -0.180 NA
ATOM      7  C   UNL     1       6.804  -2.093  -2.829  0.00  0.00    +0.233 A 
ATOM      8  N   UNL     1       6.436  -0.891  -3.213  0.00  0.00    -0.132 NA
ATOM      9  N   UNL     1       7.979  -2.400  -2.141  0.00  0.00    -0.326 N 
ATOM     10  N   UNL     1       3.732  -2.862  -4.381  0.00  0.00    -0.307 N 
ATOM     11  H   UNL     1       8.171  -3.318  -1.896  0.00  0.00    +0.145 HD
ATOM     12  H   UNL     1       8.603  -1.694  -1.908  0.00  0.00    +0.145 HD
ATOM     13  H   UNL     1       3.598  -3.813  -4.518  0.00  0.00    +0.149 HD
ENDROOT
BRANCH   1  17
ATOM     14  C   UNL     1       0.707  -0.490  -1.238  0.00  0.00    -0.048 A 
ATOM     15  C   UNL     1      -0.011  -0.719  -2.397  0.00  0.00    +0.004 A 
ATOM     16  C   UNL     1       0.636  -1.164  -3.534  0.00  0.00    +0.006 A 
ATOM     17  C   UNL     1       2.002  -1.381  -3.513  0.00  0.00    -0.027 A 
ATOM     18  C   UNL     1       2.720  -1.152  -2.354  0.00  0.00    +0.006 A 
ATOM     19  C   UNL     1       2.073  -0.702  -1.218  0.00  0.00    +0.004 A 
BRANCH  14  21
ATOM     20  C   UNL     1      -0.019   1.526   0.010  0.00  0.00    +0.009 C 
ATOM     21  C   UNL     1       0.002  -0.004   0.002  0.00  0.00    +0.032 C 
ENDBRANCH  14  21
ENDBRANCH   1  17
BRANCH   3  22
ATOM     22  C   UNL     1       5.231   0.969  -5.235  0.00  0.00    -0.023 A 
ATOM     23  C   UNL     1       6.037   0.525  -6.268  0.00  0.00    +0.009 A 
ATOM     24  C   UNL     1       6.829   1.420  -6.960  0.00  0.00    +0.046 A 
ATOM     25  C   UNL     1       6.816   2.765  -6.620  0.00  0.00    +0.121 A 
ATOM     26  C   UNL     1       6.007   3.208  -5.584  0.00  0.00    +0.046 A 
ATOM     27  C   UNL     1       5.212   2.310  -4.897  0.00  0.00    +0.009 A 
BRANCH  25  28
ATOM     28  O   UNL     1       7.595   3.647  -7.299  0.00  0.00    -0.487 OA
BRANCH  28  29
ATOM     29  C   UNL     1       7.531   5.015  -6.894  0.00  0.00    +0.264 C 
BRANCH  29  30
ATOM     30  C   UNL     1       8.455   5.838  -7.755  0.00  0.00    -0.010 A 
ATOM     31  C   UNL     1       9.771   6.022  -7.375  0.00  0.00    +0.007 A 
ATOM     32  C   UNL     1      10.619   6.777  -8.164  0.00  0.00    +0.000 A 
ATOM     33  C   UNL     1      10.151   7.347  -9.333  0.00  0.00    +0.000 A 
ATOM     34  C   UNL     1       8.835   7.162  -9.713  0.00  0.00    +0.000 A 
ATOM     35  C   UNL     1       7.988   6.403  -8.926  0.00  0.00    +0.007 A 
ENDBRANCH  29  30
ENDBRANCH  28  29
ENDBRANCH  25  28
ENDBRANCH   3  22
TORSDOF 6
