REMARK  Name = ZINC58522290
REMARK  9 active torsions:
REMARK  status: ('A' for Active; 'I' for Inactive)
REMARK    1  A    between atoms: C_1  and  C_2
REMARK    2  A    between atoms: C_5  and  N_9
REMARK    3  A    between atoms: C_6  and  C_8
REMARK    4  A    between atoms: N_9  and  C_10
REMARK    5  A    between atoms: C_10  and  C_11
REMARK    6  A    between atoms: N_13  and  N_14
REMARK    7  A    between atoms: C_15  and  C_17
REMARK    8  A    between atoms: C_17  and  N_18
REMARK    9  A    between atoms: N_27  and  C_30
REMARK                            x       y       z     vdW  Elec       q    Type
REMARK                         _______ _______ _______ _____ _____    ______ ____
ROOT
ATOM      1  N   UNL     1      -0.011  -8.461  -2.020  0.00  0.00    -0.233 N 
ATOM      2  C   UNL     1       0.015  -9.389  -2.997  0.00  0.00    +0.247 C 
ATOM      3  O   UNL     1      -0.054  -9.047  -4.159  0.00  0.00    -0.273 OA
ATOM      4  H   UNL     1       0.044  -8.735  -1.091  0.00  0.00    +0.173 HD
ENDROOT
BRANCH   1   7
ATOM      5  C   UNL     1      -0.143  -6.176  -1.368  0.00  0.00    +0.246 C 
ATOM      6  O   UNL     1      -0.074  -6.517  -0.206  0.00  0.00    -0.273 OA
ATOM      7  N   UNL     1      -0.118  -7.103  -2.345  0.00  0.00    -0.233 N 
ATOM      8  H   UNL     1      -0.173  -6.830  -3.275  0.00  0.00    +0.173 HD
BRANCH   5   9
ATOM      9  C   UNL     1      -0.258  -4.715  -1.718  0.00  0.00    +0.199 C 
BRANCH   9  10
ATOM     10  N   UNL     1      -0.265  -3.917  -0.489  0.00  0.00    -0.335 N 
ATOM     11  H   UNL     1      -0.201  -4.355   0.374  0.00  0.00    +0.147 HD
BRANCH  10  16
ATOM     12  C   UNL     1      -0.668   1.732  -0.778  0.00  0.00    +0.044 C 
ATOM     13  C   UNL     1      -0.561   0.231  -0.702  0.00  0.00    -0.050 A 
ATOM     14  C   UNL     1      -0.554  -0.520  -1.863  0.00  0.00    +0.005 A 
ATOM     15  C   UNL     1      -0.456  -1.896  -1.796  0.00  0.00    +0.023 A 
ATOM     16  C   UNL     1      -0.364  -2.525  -0.560  0.00  0.00    +0.030 A 
ATOM     17  C   UNL     1      -0.371  -1.768   0.604  0.00  0.00    -0.029 A 
ATOM     18  C   UNL     1      -0.464  -0.392   0.529  0.00  0.00    +0.008 A 
ATOM     19  C   UNL     1      -0.272  -2.446   1.946  0.00  0.00    +0.045 C 
ENDBRANCH  10  16
ENDBRANCH   9  10
ENDBRANCH   5   9
ENDBRANCH   1   7
BRANCH   2  20
ATOM     20  C   UNL     1       0.130 -10.850  -2.647  0.00  0.00    +0.215 C 
BRANCH  20  21
ATOM     21  N   UNL     1       0.137 -11.648  -3.876  0.00  0.00    -0.215 N 
ATOM     22  C   UNL     1      -0.973 -12.133  -4.471  0.00  0.00    +0.247 C 
ATOM     23  O   UNL     1      -2.121 -11.998  -4.105  0.00  0.00    -0.273 OA
ATOM     24  C   UNL     1      -0.482 -12.881  -5.690  0.00  0.00    +0.115 C 
ATOM     25  C   UNL     1      -1.049 -12.256  -6.960  0.00  0.00    +0.035 C 
ATOM     26  C   UNL     1      -0.517 -13.008  -8.182  0.00  0.00    +0.003 C 
ATOM     27  C   UNL     1      -0.925 -14.480  -8.092  0.00  0.00    +0.000 C 
ATOM     28  C   UNL     1      -0.330 -15.099  -6.825  0.00  0.00    +0.003 C 
ATOM     29  C   UNL     1      -0.862 -14.355  -5.597  0.00  0.00    +0.035 C 
ATOM     30  N   UNL     1       0.976 -12.721  -5.644  0.00  0.00    -0.274 N 
ATOM     31  C   UNL     1       1.244 -11.981  -4.550  0.00  0.00    +0.312 C 
ATOM     32  O   UNL     1       2.365 -11.655  -4.212  0.00  0.00    -0.252 OA
ATOM     33  C   UNL     1       1.948 -13.255  -6.600  0.00  0.00    +0.134 C 
ENDBRANCH  20  21
ENDBRANCH   2  20
TORSDOF 6
