REMARK  Name = ZINC20314653
REMARK  3 active torsions:
REMARK  status: ('A' for Active; 'I' for Inactive)
REMARK    1  A    between atoms: C_2  and  N_14
REMARK    2  A    between atoms: C_3  and  C_11
REMARK    3  A    between atoms: N_5  and  C_6
REMARK                            x       y       z     vdW  Elec       q    Type
REMARK                         _______ _______ _______ _____ _____    ______ ____
ROOT
ATOM      1  C   UNL     1      -2.757   2.011   2.294  0.00  0.00    +0.131 A 
ATOM      2  C   UNL     1      -1.822   1.127   1.861  0.00  0.00    +0.066 A 
ATOM      3  C   UNL     1      -1.137   1.716   0.789  0.00  0.00    +0.087 A 
ATOM      4  N   UNL     1      -1.643   2.904   0.578  0.00  0.00    -0.174 NA
ATOM      5  N   UNL     1      -2.666   3.119   1.511  0.00  0.00    -0.266 N 
ENDROOT
BRANCH   5   6
ATOM      6  C   UNL     1      -3.492   4.324   1.623  0.00  0.00    +0.107 C 
ATOM      7  C   UNL     1      -3.868   4.572   3.098  0.00  0.00    +0.027 C 
ATOM      8  C   UNL     1      -5.321   5.109   3.034  0.00  0.00    +0.002 C 
ATOM      9  C   UNL     1      -5.947   4.267   1.895  0.00  0.00    +0.002 C 
ATOM     10  C   UNL     1      -4.813   4.131   0.858  0.00  0.00    +0.027 C 
ENDBRANCH   5   6
BRANCH   3  11
ATOM     11  C   UNL     1      -0.013   1.086   0.008  0.00  0.00    +0.041 C 
ATOM     12  C   UNL     1       0.460   1.806  -1.256  0.00  0.00    +0.010 C 
ATOM     13  C   UNL     1       1.335   1.811  -0.001  0.00  0.00    +0.010 C 
ENDBRANCH   3  11
BRANCH   2  14
ATOM     14  N   UNL     1      -1.581  -0.152   2.396  0.00  0.00    -0.355 N 
ATOM     15  H   UNL     1      -0.795  -0.789   1.966  0.00  0.00    +0.142 HD
ATOM     16  H   UNL     1      -2.180  -0.515   3.245  0.00  0.00    +0.142 HD
ENDBRANCH   2  14
TORSDOF 3
