REMARK  Name = ZINC06462116
REMARK  14 active torsions:
REMARK  status: ('A' for Active; 'I' for Inactive)
REMARK    1  A    between atoms: C_1  and  C_2
REMARK    2  A    between atoms: C_2  and  C_3
REMARK    3  A    between atoms: C_3  and  C_4
REMARK    4  A    between atoms: C_3  and  C_5
REMARK    5  A    between atoms: C_3  and  N_6
REMARK    6  A    between atoms: C_7  and  C_9
REMARK    7  A    between atoms: C_9  and  C_11
REMARK    8  A    between atoms: C_9  and  N_17
REMARK    9  A    between atoms: C_14  and  C_16
REMARK   10  A    between atoms: N_17  and  C_18
REMARK   11  A    between atoms: C_18  and  C_19
REMARK   12  A    between atoms: C_25  and  C_27
REMARK   13  A    between atoms: C_28  and  N_35
REMARK   14  A    between atoms: C_29  and  C_32
REMARK                            x       y       z     vdW  Elec       q    Type
REMARK                         _______ _______ _______ _____ _____    ______ ____
ROOT
ATOM      1  N   UNL     1       4.083  -0.961  -1.389  0.00  0.00    -0.275 N 
ATOM      2  C   UNL     1       4.530   0.215  -1.872  0.00  0.00    +0.258 C 
ATOM      3  O   UNL     1       4.713   0.351  -3.068  0.00  0.00    -0.269 OA
ENDROOT
BRANCH   2   4
ATOM      4  C   UNL     1       4.795   1.328  -0.959  0.00  0.00    +0.115 A 
ATOM      5  C   UNL     1       5.355   2.579  -1.228  0.00  0.00    +0.076 A 
ATOM      6  C   UNL     1       5.444   3.380  -0.089  0.00  0.00    +0.155 A 
ATOM      7  N   UNL     1       5.027   2.906   1.065  0.00  0.00    -0.203 NA
ATOM      8  S   UNL     1       4.497   1.447   0.792  0.00  0.00    +0.019 S 
BRANCH   6   9
ATOM      9  C   UNL     1       6.006   4.740  -0.177  0.00  0.00    +0.262 C 
ATOM     10  O   UNL     1       6.390   5.171  -1.247  0.00  0.00    -0.269 OA
ATOM     11  N   UNL     1       6.093   5.506   0.928  0.00  0.00    -0.324 N 
ATOM     12  H   UNL     1       5.787   5.162   1.782  0.00  0.00    +0.145 HD
ATOM     13  H   UNL     1       6.463   6.401   0.871  0.00  0.00    +0.145 HD
ENDBRANCH   6   9
BRANCH   5  14
ATOM     14  N   UNL     1       5.774   2.982  -2.489  0.00  0.00    -0.355 N 
ATOM     15  H   UNL     1       5.684   2.380  -3.245  0.00  0.00    +0.142 HD
ATOM     16  H   UNL     1       6.156   3.864  -2.614  0.00  0.00    +0.142 HD
ENDBRANCH   5  14
ENDBRANCH   2   4
BRANCH   1  17
ATOM     17  C   UNL     1       3.868  -2.092  -2.296  0.00  0.00    +0.229 C 
BRANCH  17  18
ATOM     18  C   UNL     1       2.405  -2.451  -2.312  0.00  0.00    +0.135 A 
ATOM     19  C   UNL     1       1.684  -2.765  -3.404  0.00  0.00    +0.047 A 
ATOM     20  C   UNL     1       0.368  -3.034  -2.963  0.00  0.00    +0.045 A 
ATOM     21  C   UNL     1       0.361  -2.861  -1.629  0.00  0.00    +0.102 A 
ATOM     22  O   UNL     1       1.597  -2.508  -1.241  0.00  0.00    -0.462 OA
ATOM     23  C   UNL     1      -0.832  -3.033  -0.725  0.00  0.00    +0.086 C 
ENDBRANCH  17  18
BRANCH  17  25
ATOM     24  N   UNL     1       4.511  -4.478  -2.409  0.00  0.00    -0.308 N 
ATOM     25  C   UNL     1       4.671  -3.276  -1.821  0.00  0.00    +0.242 C 
ATOM     26  O   UNL     1       5.461  -3.146  -0.910  0.00  0.00    -0.273 OA
ATOM     27  H   UNL     1       3.879  -4.581  -3.138  0.00  0.00    +0.149 HD
BRANCH  24  28
ATOM     28  C   UNL     1       5.291  -5.628  -1.948  0.00  0.00    +0.029 C 
ATOM     29  C   UNL     1       6.783  -5.332  -2.113  0.00  0.00    +0.031 C 
ATOM     30  C   UNL     1       4.984  -5.895  -0.473  0.00  0.00    +0.031 C 
BRANCH  28  32
ATOM     31  C   UNL     1       5.737  -8.062  -2.294  0.00  0.00    +0.006 C 
ATOM     32  C   UNL     1       4.922  -6.861  -2.776  0.00  0.00    +0.022 C 
ENDBRANCH  28  32
ENDBRANCH  24  28
ENDBRANCH  17  25
ENDBRANCH   1  17
BRANCH   1  33
ATOM     33  C   UNL     1       3.811  -1.109   0.043  0.00  0.00    +0.144 C 
BRANCH  33  34
ATOM     34  C   UNL     1       5.062  -1.568   0.747  0.00  0.00    -0.030 A 
ATOM     35  C   UNL     1       6.216  -0.811   0.671  0.00  0.00    +0.005 A 
ATOM     36  C   UNL     1       7.363  -1.232   1.317  0.00  0.00    +0.000 A 
ATOM     37  C   UNL     1       7.357  -2.412   2.038  0.00  0.00    +0.000 A 
ATOM     38  C   UNL     1       6.203  -3.169   2.114  0.00  0.00    +0.000 A 
ATOM     39  C   UNL     1       5.056  -2.748   1.468  0.00  0.00    +0.005 A 
ENDBRANCH  33  34
ENDBRANCH   1  33
TORSDOF 10
