REMARK  Name = ZINC63780818
REMARK  6 active torsions:
REMARK  status: ('A' for Active; 'I' for Inactive)
REMARK    1  A    between atoms: C_6  and  C_11
REMARK    2  A    between atoms: C_19  and  C_21
REMARK    3  A    between atoms: C_21  and  C_22
REMARK    4  A    between atoms: C_22  and  C_23
REMARK    5  A    between atoms: C_23  and  C_24
REMARK    6  A    between atoms: C_29  and  C_32
REMARK                            x       y       z     vdW  Elec       q    Type
REMARK                         _______ _______ _______ _____ _____    ______ ____
ROOT
ATOM      1  C   UNL     1       3.656  -2.764   1.185  0.00  0.00    +0.242 C 
ATOM      2  O   UNL     1       4.332  -2.165   1.995  0.00  0.00    -0.273 OA
ATOM      3  N   UNL     1       3.363  -4.065   1.381  0.00  0.00    -0.297 N 
ATOM      4  C   UNL     1       2.551  -4.804   0.405  0.00  0.00    +0.127 C 
ATOM      5  C   UNL     1       3.333  -6.045  -0.044  0.00  0.00    +0.126 C 
ATOM      6  N   UNL     1       3.821  -6.750   1.150  0.00  0.00    -0.298 N 
ATOM      7  C   UNL     1       4.634  -6.010   2.126  0.00  0.00    +0.126 C 
ATOM      8  C   UNL     1       3.857  -4.771   2.572  0.00  0.00    +0.127 C 
ATOM      9  C   UNL     1       3.529  -8.050   1.346  0.00  0.00    +0.216 C 
ATOM     10  O   UNL     1       2.857  -8.650   0.534  0.00  0.00    -0.276 OA
ENDROOT
BRANCH   1  16
ATOM     11  C   UNL     1      -0.016   1.348   0.009  0.00  0.00    +0.001 A 
ATOM     12  C   UNL     1       1.166   2.101   0.002  0.00  0.00    +0.002 A 
ATOM     13  C   UNL     1       2.391   1.535  -0.013  0.00  0.00    +0.026 A 
ATOM     14  C   UNL     1       2.529   0.120  -0.022  0.00  0.00    +0.043 A 
ATOM     15  N   UNL     1       3.587  -0.654  -0.037  0.00  0.00    -0.370 N 
ATOM     16  C   UNL     1       3.143  -2.053  -0.041  0.00  0.00    +0.190 C 
ATOM     17  C   UNL     1       1.631  -2.008  -0.025  0.00  0.00    +0.016 C 
ATOM     18  C   UNL     1       1.295  -0.698  -0.014  0.00  0.00    -0.004 A 
ATOM     19  C   UNL     1       0.002  -0.004   0.002  0.00  0.00    +0.010 A 
ATOM     20  H   UNL     1       4.509  -0.353  -0.045  0.00  0.00    +0.161 HD
ENDBRANCH   1  16
BRANCH   9  21
ATOM     21  C   UNL     1       4.037  -8.760   2.575  0.00  0.00    +0.096 C 
BRANCH  21  22
ATOM     22  C   UNL     1       3.566 -10.216   2.554  0.00  0.00    +0.018 C 
BRANCH  22  23
ATOM     23  C   UNL     1       4.082 -10.936   3.801  0.00  0.00    +0.096 C 
BRANCH  23  24
ATOM     24  C   UNL     1       3.619 -12.370   3.781  0.00  0.00    +0.216 C 
ATOM     25  O   UNL     1       2.943 -12.776   2.860  0.00  0.00    -0.276 OA
ATOM     26  N   UNL     1       3.956 -13.201   4.787  0.00  0.00    -0.301 N 
ATOM     27  C   UNL     1       4.769 -12.723   5.913  0.00  0.00    +0.108 C 
ATOM     28  C   UNL     1       5.981 -13.646   6.074  0.00  0.00    +0.032 C 
ATOM     29  C   UNL     1       5.501 -15.092   6.215  0.00  0.00    +0.078 C 
ATOM     30  C   UNL     1       4.742 -15.505   4.952  0.00  0.00    +0.032 C 
ATOM     31  C   UNL     1       3.512 -14.602   4.781  0.00  0.00    +0.108 C 
BRANCH  29  32
ATOM     32  C   UNL     1       6.689 -15.999   6.407  0.00  0.00    +0.214 C 
ATOM     33  O   UNL     1       7.809 -15.535   6.429  0.00  0.00    -0.276 OA
ATOM     34  N   UNL     1       6.506 -17.326   6.555  0.00  0.00    -0.329 N 
ATOM     35  H   UNL     1       5.610 -17.697   6.537  0.00  0.00    +0.145 HD
ATOM     36  H   UNL     1       7.271 -17.910   6.678  0.00  0.00    +0.145 HD
ENDBRANCH  29  32
ENDBRANCH  23  24
ENDBRANCH  22  23
ENDBRANCH  21  22
ENDBRANCH   9  21
TORSDOF 6
