REMARK  Name = ZINC00755761
REMARK  8 active torsions:
REMARK  status: ('A' for Active; 'I' for Inactive)
REMARK    1  A    between atoms: C_1  and  C_2
REMARK    2  A    between atoms: C_2  and  O_3
REMARK    3  A    between atoms: O_3  and  C_4
REMARK    4  A    between atoms: C_4  and  C_6
REMARK    5  A    between atoms: C_7  and  N_28
REMARK    6  A    between atoms: C_11  and  C_13
REMARK    7  A    between atoms: C_24  and  C_26
REMARK    8  A    between atoms: C_24  and  C_27
REMARK                            x       y       z     vdW  Elec       q    Type
REMARK                         _______ _______ _______ _____ _____    ______ ____
ROOT
ATOM      1  C   UNL     1      -0.801   1.597   1.031  0.00  0.00    +0.105 C 
ATOM      2  C   UNL     1      -0.325   2.489   1.938  0.00  0.00    +0.195 C 
ATOM      3  O   UNL     1       0.857   3.099   1.763  0.00  0.00    -0.446 OA
ATOM      4  C   UNL     1       1.781   2.549   0.953  0.00  0.00    +0.115 C 
ATOM      5  C   UNL     1       1.438   1.674  -0.009  0.00  0.00    +0.045 C 
ATOM      6  C   UNL     1      -0.004   1.268  -0.200  0.00  0.00    +0.098 C 
ATOM      7  C   UNL     1       2.404   1.113  -0.867  0.00  0.00    +0.164 C 
ATOM      8  O   UNL     1       2.057   0.314  -1.714  0.00  0.00    -0.292 OA
ATOM      9  C   UNL     1       3.857   1.485  -0.754  0.00  0.00    +0.086 C 
ATOM     10  C   UNL     1       3.962   2.905  -0.186  0.00  0.00    -0.021 C 
ATOM     11  C   UNL     1       3.225   2.946   1.155  0.00  0.00    +0.081 C 
ATOM     12  C   UNL     1       3.318   3.896  -1.157  0.00  0.00    +0.012 C 
ATOM     13  C   UNL     1       5.432   3.272   0.024  0.00  0.00    +0.012 C 
ENDROOT
BRANCH   6  14
ATOM     14  C   UNL     1      -0.580   2.009  -1.379  0.00  0.00    -0.034 A 
ATOM     15  C   UNL     1      -1.065   1.308  -2.467  0.00  0.00    +0.006 A 
ATOM     16  C   UNL     1      -1.594   1.986  -3.548  0.00  0.00    +0.022 A 
ATOM     17  C   UNL     1      -1.638   3.369  -3.543  0.00  0.00    +0.059 A 
ATOM     18  C   UNL     1      -1.152   4.072  -2.453  0.00  0.00    +0.060 A 
ATOM     19  C   UNL     1      -0.629   3.390  -1.369  0.00  0.00    +0.026 A 
ATOM     20 CL   UNL     1      -1.207   5.807  -2.444  0.00  0.00    -0.082 Cl
ATOM     21 CL   UNL     1      -2.302   4.223  -4.901  0.00  0.00    -0.082 Cl
ENDBRANCH   6  14
BRANCH   2  22
ATOM     22  N   UNL     1      -1.066   2.771   3.054  0.00  0.00    -0.329 N 
ATOM     23  H   UNL     1      -1.052   3.664   3.433  0.00  0.00    +0.145 HD
ATOM     24  H   UNL     1      -1.606   2.078   3.466  0.00  0.00    +0.145 HD
ENDBRANCH   2  22
BRANCH   1  25
ATOM     25  C   UNL     1      -2.043   0.981   1.244  0.00  0.00    +0.341 C 
ATOM     26  O   UNL     1      -2.743   1.327   2.179  0.00  0.00    -0.245 OA
BRANCH  25  27
ATOM     27  O   UNL     1      -2.464   0.004   0.411  0.00  0.00    -0.462 OA
BRANCH  27  29
ATOM     28  C   UNL     1      -4.042  -1.659  -0.354  0.00  0.00    +0.048 C 
ATOM     29  C   UNL     1      -3.739  -0.580   0.687  0.00  0.00    +0.229 C 
ENDBRANCH  27  29
ENDBRANCH  25  27
ENDBRANCH   1  25
TORSDOF 5
