REMARK  Name = ZINC05072156
REMARK  1 active torsions:
REMARK  status: ('A' for Active; 'I' for Inactive)
REMARK    1  A    between atoms: C_5  and  C_7
REMARK                            x       y       z     vdW  Elec       q    Type
REMARK                         _______ _______ _______ _____ _____    ______ ____
ROOT
ATOM      1  C   UNL     1       3.123   0.107  -0.018  0.00  0.00    +0.219 C 
ATOM      2  C   UNL     1       5.270   1.213  -0.361  0.00  0.00    +0.159 C 
ATOM      3  N   UNL     1       4.767   2.466  -0.064  0.00  0.00    -0.259 N 
ATOM      4  C   UNL     1       3.384   2.585  -0.004  0.00  0.00    +0.205 A 
ATOM      5  N   UNL     1       2.586   1.466   0.013  0.00  0.00    -0.287 N 
ATOM      6  C   UNL     1       1.279   1.893   0.064  0.00  0.00    +0.072 A 
ATOM      7  C   UNL     1       0.049   1.251   0.099  0.00  0.00    +0.028 A 
ATOM      8  C   UNL     1      -1.113   1.991   0.146  0.00  0.00    +0.002 A 
ATOM      9  C   UNL     1      -1.064   3.377   0.170  0.00  0.00    +0.002 A 
ATOM     10  C   UNL     1       0.146   4.033   0.135  0.00  0.00    +0.030 A 
ATOM     11  C   UNL     1       1.333   3.299   0.082  0.00  0.00    +0.091 A 
ATOM     12  N   UNL     1       2.647   3.654   0.040  0.00  0.00    -0.214 NA
ATOM     13  N   UNL     1       6.602   1.099  -0.681  0.00  0.00    -0.332 N 
ATOM     14  H   UNL     1       5.350   3.224   0.095  0.00  0.00    +0.158 HD
ATOM     15  H   UNL     1       6.978   0.231  -0.893  0.00  0.00    +0.145 HD
ATOM     16  H   UNL     1       7.167   1.888  -0.694  0.00  0.00    +0.145 HD
ATOM     17  N   UNL     1       4.594   0.056  -0.377  0.00  0.00    -0.337 N 
ATOM     18  H   UNL     1       5.054  -0.828  -0.623  0.00  0.00    +0.164 HD
ENDROOT
BRANCH   1  23
ATOM     19  C   UNL     1       2.495  -0.338   3.678  0.00  0.00    +0.000 A 
ATOM     20  C   UNL     1       2.612  -1.709   3.816  0.00  0.00    +0.001 A 
ATOM     21  C   UNL     1       2.895  -2.493   2.713  0.00  0.00    +0.015 A 
ATOM     22  C   UNL     1       3.061  -1.905   1.471  0.00  0.00    +0.025 A 
ATOM     23  C   UNL     1       2.943  -0.534   1.334  0.00  0.00    +0.009 A 
ATOM     24  C   UNL     1       2.666   0.250   2.439  0.00  0.00    +0.008 A 
ATOM     25 BR   UNL     1       3.447  -2.977  -0.038  0.00  0.00    -0.050 Br
ENDBRANCH   1  23
TORSDOF 1
