REMARK  Name = ZINC24215011
REMARK  7 active torsions:
REMARK  status: ('A' for Active; 'I' for Inactive)
REMARK    1  A    between atoms: C_1  and  C_2
REMARK    2  A    between atoms: C_3  and  C_14
REMARK    3  A    between atoms: C_4  and  C_13
REMARK    4  A    between atoms: N_5  and  C_7
REMARK    5  A    between atoms: N_21  and  C_22
REMARK    6  A    between atoms: C_22  and  C_23
REMARK    7  A    between atoms: N_25  and  C_26
REMARK                            x       y       z     vdW  Elec       q    Type
REMARK                         _______ _______ _______ _____ _____    ______ ____
ROOT
ATOM      1  C   UNL     1       1.789   1.683  -0.222  0.00  0.00    +0.054 C 
ATOM      2  C   UNL     1       0.549   0.845  -0.090  0.00  0.00    +0.204 C 
ATOM      3  O   UNL     1       0.664  -0.362  -0.059  0.00  0.00    -0.277 OA
ATOM      4  N   UNL     1      -0.676   1.373  -0.010  0.00  0.00    -0.318 N 
ATOM      5  C   UNL     1      -0.926   2.811  -0.068  0.00  0.00    +0.085 C 
ATOM      6  C   UNL     1       0.366   3.581   0.212  0.00  0.00    -0.058 C 
ATOM      7  N   UNL     1       1.432   3.043  -0.648  0.00  0.00    +0.397 N 
ATOM      8  H   UNL     1      -1.517   0.673   0.104  0.00  0.00    +0.149 HD
ATOM      9  H   UNL     1       1.060   2.997  -1.682  0.00  0.00    -0.079 HD
ENDROOT
BRANCH   1  12
ATOM     10  C   UNL     1       1.394   1.758  -3.365  0.00  0.00    +0.068 C 
ATOM     11  C   UNL     1       2.532   1.095  -2.633  0.00  0.00    +0.063 A 
ATOM     12  C   UNL     1       2.705   1.063  -1.245  0.00  0.00    -0.009 A 
ATOM     13  C   UNL     1       3.845   0.381  -0.984  0.00  0.00    +0.044 A 
ATOM     14  N   UNL     1       4.370  -0.012  -2.166  0.00  0.00    -0.237 N 
ATOM     15  N   UNL     1       3.528   0.452  -3.186  0.00  0.00    -0.171 NA
ATOM     16  C   UNL     1       4.423   0.105   0.381  0.00  0.00    +0.066 C 
BRANCH  14  17
ATOM     17  C   UNL     1       5.550  -0.748  -2.341  0.00  0.00    +0.066 A 
ATOM     18  C   UNL     1       6.427  -0.422  -3.367  0.00  0.00    +0.028 A 
ATOM     19  C   UNL     1       7.591  -1.147  -3.534  0.00  0.00    +0.002 A 
ATOM     20  C   UNL     1       7.878  -2.202  -2.688  0.00  0.00    +0.000 A 
ATOM     21  C   UNL     1       7.004  -2.532  -1.669  0.00  0.00    +0.002 A 
ATOM     22  C   UNL     1       5.840  -1.808  -1.493  0.00  0.00    +0.028 A 
ENDBRANCH  14  17
ENDBRANCH   1  12
BRANCH   7  23
ATOM     23  C   UNL     1       2.609   3.923  -0.640  0.00  0.00    +0.020 C 
BRANCH  23  24
ATOM     24  C   UNL     1       3.115   4.071   0.772  0.00  0.00    +0.201 C 
ATOM     25  O   UNL     1       2.531   3.529   1.686  0.00  0.00    -0.278 OA
ATOM     26  N   UNL     1       4.217   4.807   1.018  0.00  0.00    -0.287 N 
ATOM     27  H   UNL     1       4.707   5.355   0.200  0.00  0.00    +0.155 HD
BRANCH  26  28
ATOM     28  C   UNL     1       4.739   4.874   2.317  0.00  0.00    +0.037 A 
ATOM     29  C   UNL     1       3.882   4.895   3.409  0.00  0.00    +0.027 A 
ATOM     30  C   UNL     1       4.395   4.956   4.690  0.00  0.00    +0.051 A 
ATOM     31  C   UNL     1       5.766   5.006   4.889  0.00  0.00    +0.173 A 
ATOM     32  C   UNL     1       6.628   4.991   3.795  0.00  0.00    +0.174 A 
ATOM     33  C   UNL     1       6.112   4.924   2.511  0.00  0.00    +0.073 A 
ATOM     34  O   UNL     1       7.913   5.048   4.252  0.00  0.00    -0.395 OA
ATOM     35  C   UNL     1       7.818   5.511   5.612  0.00  0.00    +0.589 C 
ATOM     36  O   UNL     1       6.512   5.074   6.031  0.00  0.00    -0.395 OA
ATOM     37  F   UNL     1       7.909   6.906   5.663  0.00  0.00    -0.125 F 
ATOM     38  F   UNL     1       8.810   4.925   6.404  0.00  0.00    -0.125 F 
ENDBRANCH  26  28
ENDBRANCH  23  24
ENDBRANCH   7  23
TORSDOF 5
