REMARK  Name = ZINC39469276
REMARK  6 active torsions:
REMARK  status: ('A' for Active; 'I' for Inactive)
REMARK    1  A    between atoms: C_1  and  C_2
REMARK    2  A    between atoms: C_2  and  O_3
REMARK    3  A    between atoms: O_3  and  C_4
REMARK    4  A    between atoms: C_16  and  S_17
REMARK    5  A    between atoms: S_17  and  O_20
REMARK    6  A    between atoms: O_20  and  C_21
REMARK                            x       y       z     vdW  Elec       q    Type
REMARK                         _______ _______ _______ _____ _____    ______ ____
ROOT
ATOM      1  C   UNL     1       1.288  -2.135   1.296  0.00  0.00    +0.145 C 
ATOM      2  C   UNL     1       1.007  -3.083   0.394  0.00  0.00    +0.023 C 
ATOM      3  C   UNL     1       1.388  -4.505   0.699  0.00  0.00    +0.008 C 
ATOM      4  C   UNL     1       1.525  -5.337  -0.571  0.00  0.00    -0.046 C 
ATOM      5  N   UNL     1       1.857  -6.729  -0.222  0.00  0.00    +0.399 N 
ATOM      6  C   UNL     1       3.117  -6.810   0.516  0.00  0.00    -0.020 C 
ATOM      7  C   UNL     1       3.068  -5.955   1.790  0.00  0.00    -0.003 C 
ATOM      8  C   UNL     1       2.743  -4.512   1.418  0.00  0.00    +0.018 C 
ATOM      9  C   UNL     1       2.651  -3.636   2.636  0.00  0.00    +0.011 C 
ATOM     10  C   UNL     1       1.953  -2.506   2.561  0.00  0.00    +0.166 C 
ATOM     11  C   UNL     1       3.412  -8.247   0.966  0.00  0.00    +0.159 C 
ATOM     12  O   UNL     1       3.547  -9.091  -0.192  0.00  0.00    -0.297 OA
ATOM     13  P   UNL     1       2.375  -9.024  -1.319  0.00  0.00    +0.421 P 
ATOM     14  O   UNL     1       1.165  -9.881  -0.885  0.00  0.00    -0.239 OA
ATOM     15  N   UNL     1       1.953  -7.414  -1.415  0.00  0.00    -0.267 NA
ATOM     16  O   UNL     1       2.914  -9.511  -2.682  0.00  0.00    -0.128 OA
ATOM     17  H   UNL     1       1.768  -6.978  -2.261  0.00  0.00    +0.113 HD
ATOM     18  H   UNL     1       1.113  -7.123   0.334  0.00  0.00    -0.055 HD
ENDROOT
BRANCH  10  19
ATOM     19  S   UNL     1       1.818  -1.458   3.972  0.00  0.00    +0.154 S 
ATOM     20  O   UNL     1       2.607  -2.050   4.995  0.00  0.00    -0.131 OA
ATOM     21  O   UNL     1       2.036  -0.131   3.514  0.00  0.00    -0.131 OA
BRANCH  19  22
ATOM     22  O   UNL     1       0.373  -1.524   4.445  0.00  0.00    -0.342 OA
BRANCH  22  23
ATOM     23  C   UNL     1       0.051  -2.682   5.079  0.00  0.00    +0.157 A 
ATOM     24  C   UNL     1      -0.440  -3.758   4.354  0.00  0.00    +0.048 A 
ATOM     25  C   UNL     1      -0.766  -4.934   5.001  0.00  0.00    +0.004 A 
ATOM     26  C   UNL     1      -0.604  -5.039   6.370  0.00  0.00    +0.000 A 
ATOM     27  C   UNL     1      -0.116  -3.967   7.095  0.00  0.00    +0.004 A 
ATOM     28  C   UNL     1       0.217  -2.791   6.452  0.00  0.00    +0.048 A 
ENDBRANCH  22  23
ENDBRANCH  19  22
ENDBRANCH  10  19
BRANCH   1  29
ATOM     29  O   UNL     1       0.968  -0.838   1.047  0.00  0.00    -0.491 OA
BRANCH  29  31
ATOM     30  C   UNL     1      -0.050   0.931  -0.247  0.00  0.00    +0.048 C 
ATOM     31  C   UNL     1       0.228  -0.570  -0.146  0.00  0.00    +0.226 C 
ENDBRANCH  29  31
ENDBRANCH   1  29
TORSDOF 5
