REMARK  Name = ZINC12340210
REMARK  3 active torsions:
REMARK  status: ('A' for Active; 'I' for Inactive)
REMARK    1  A    between atoms: N_12  and  N_13
REMARK    2  A    between atoms: N_13  and  C_14
REMARK    3  A    between atoms: C_14  and  N_16
REMARK                            x       y       z     vdW  Elec       q    Type
REMARK                         _______ _______ _______ _____ _____    ______ ____
ROOT
ATOM      1  C   UNL     1      -3.287   1.800  -1.730  0.00  0.00    +0.001 A 
ATOM      2  C   UNL     1      -3.410   3.131  -1.339  0.00  0.00    +0.001 A 
ATOM      3  C   UNL     1      -2.327   3.838  -0.908  0.00  0.00    +0.009 A 
ATOM      4  C   UNL     1      -1.072   3.220  -0.858  0.00  0.00    -0.005 A 
ATOM      5  C   UNL     1      -0.942   1.867  -1.262  0.00  0.00    -0.017 A 
ATOM      6  C   UNL     1      -2.081   1.168  -1.694  0.00  0.00    +0.008 A 
ATOM      7  C   UNL     1       0.319   1.250  -1.204  0.00  0.00    +0.012 A 
ATOM      8  C   UNL     1       1.415   1.930  -0.775  0.00  0.00    +0.047 A 
ATOM      9  C   UNL     1       1.341   3.265  -0.370  0.00  0.00    +0.130 A 
ATOM     10  C   UNL     1       0.117   3.930  -0.406  0.00  0.00    +0.047 A 
ATOM     11  C   UNL     1       0.048   5.341   0.013  0.00  0.00    +0.074 C 
ATOM     12  N   UNL     1      -1.005   6.070  -0.210  0.00  0.00    -0.185 NA
ATOM     13  C   UNL     1       1.271   5.900   0.720  0.00  0.00    +0.098 C 
ATOM     14  C   UNL     1       2.504   5.327   0.005  0.00  0.00    +0.235 C 
ATOM     15  O   UNL     1       2.460   3.901   0.058  0.00  0.00    -0.491 OA
ENDROOT
BRANCH  12  16
ATOM     16  N   UNL     1      -1.641   6.019  -1.458  0.00  0.00    -0.218 N 
ATOM     17  H   UNL     1      -1.333   5.394  -2.134  0.00  0.00    +0.176 HD
BRANCH  16  18
ATOM     18  C   UNL     1      -2.679   6.837  -1.719  0.00  0.00    +0.147 C 
ATOM     19  S   UNL     1      -3.538   6.686  -3.193  0.00  0.00    -0.017 S 
BRANCH  18  20
ATOM     20  N   UNL     1      -3.043   7.773  -0.820  0.00  0.00    -0.339 N 
ATOM     21  H   UNL     1      -2.556   7.858   0.015  0.00  0.00    +0.144 HD
ATOM     22  H   UNL     1      -3.791   8.361  -1.008  0.00  0.00    +0.144 HD
ENDBRANCH  18  20
ENDBRANCH  16  18
ENDBRANCH  12  16
TORSDOF 3
