REMARK  Name = ZINC02688836
REMARK  8 active torsions:
REMARK  status: ('A' for Active; 'I' for Inactive)
REMARK    1  A    between atoms: C_1  and  C_2
REMARK    2  A    between atoms: C_5  and  C_8
REMARK    3  A    between atoms: C_8  and  C_10
REMARK    4  A    between atoms: C_10  and  N_12
REMARK    5  A    between atoms: C_10  and  N_25
REMARK    6  A    between atoms: N_12  and  C_13
REMARK    7  A    between atoms: C_14  and  C_22
REMARK    8  A    between atoms: C_26  and  C_28
REMARK                            x       y       z     vdW  Elec       q    Type
REMARK                         _______ _______ _______ _____ _____    ______ ____
ROOT
ATOM      1  C   UNL     1       0.188  -5.004   1.274  0.00  0.00    +0.232 C 
ENDROOT
BRANCH   1   2
ATOM      2  N   UNL     1      -0.616  -4.348   2.308  0.00  0.00    -0.284 N 
ATOM      3  C   UNL     1      -0.103  -4.151   3.538  0.00  0.00    +0.281 C 
ATOM      4  O   UNL     1       1.030  -4.519   3.790  0.00  0.00    -0.267 OA
ATOM      5  H   UNL     1      -1.519  -4.056   2.106  0.00  0.00    +0.151 HD
BRANCH   3   6
ATOM      6  C   UNL     1      -0.908  -3.494   4.572  0.00  0.00    +0.189 A 
ATOM      7  C   UNL     1      -0.510  -3.229   5.851  0.00  0.00    +0.054 A 
ATOM      8  C   UNL     1      -1.590  -2.596   6.487  0.00  0.00    +0.042 A 
ATOM      9  C   UNL     1      -2.586  -2.503   5.579  0.00  0.00    +0.196 A 
ATOM     10  O   UNL     1      -2.170  -3.041   4.426  0.00  0.00    -0.458 OA
ENDBRANCH   3   6
ENDBRANCH   1   2
BRANCH   1  11
ATOM     11  C   UNL     1       0.058  -4.245  -0.021  0.00  0.00    +0.201 C 
ATOM     12  O   UNL     1      -0.157  -4.842  -1.055  0.00  0.00    -0.288 OA
BRANCH  11  17
ATOM     13  C   UNL     1       0.579   1.480  -0.063  0.00  0.00    +0.044 C 
ATOM     14  C   UNL     1       0.443  -0.021  -0.052  0.00  0.00    -0.050 A 
ATOM     15  C   UNL     1       0.065  -0.686  -1.205  0.00  0.00    +0.004 A 
ATOM     16  C   UNL     1      -0.063  -2.059  -1.203  0.00  0.00    +0.012 A 
ATOM     17  C   UNL     1       0.192  -2.780  -0.032  0.00  0.00    +0.021 A 
ATOM     18  C   UNL     1       0.575  -2.100   1.129  0.00  0.00    +0.012 A 
ATOM     19  C   UNL     1       0.703  -0.728   1.109  0.00  0.00    +0.004 A 
ENDBRANCH  11  17
ENDBRANCH   1  11
BRANCH   1  20
ATOM     20  N   UNL     1      -0.285  -6.378   1.085  0.00  0.00    -0.314 N 
ATOM     21  H   UNL     1      -1.113  -6.544   0.607  0.00  0.00    +0.149 HD
BRANCH  20  22
ATOM     22  C   UNL     1       0.447  -7.437   1.587  0.00  0.00    +0.080 A 
ATOM     23  C   UNL     1       0.159  -8.791   1.500  0.00  0.00    +0.068 A 
ATOM     24  C   UNL     1       1.101  -9.711   2.117  0.00  0.00    -0.023 A 
ATOM     25  C   UNL     1       2.155  -9.109   2.707  0.00  0.00    -0.005 A 
ATOM     26  S   UNL     1       1.895  -7.380   2.437  0.00  0.00    -0.078 S 
ATOM     27  C   UNL     1       3.287  -9.777   3.424  0.00  0.00    +0.043 C 
ATOM     28  C   UNL     1       2.882 -11.229   3.718  0.00  0.00    +0.005 C 
ATOM     29  C   UNL     1       2.309 -11.852   2.442  0.00  0.00    +0.005 C 
ATOM     30  C   UNL     1       0.951 -11.225   2.120  0.00  0.00    +0.037 C 
BRANCH  23  31
ATOM     31  C   UNL     1      -1.042  -9.273   0.815  0.00  0.00    +0.244 C 
ATOM     32  O   UNL     1      -1.004  -9.530  -0.374  0.00  0.00    -0.270 OA
ATOM     33  N   UNL     1      -2.191  -9.433   1.502  0.00  0.00    -0.325 N 
ATOM     34  H   UNL     1      -2.222  -9.228   2.450  0.00  0.00    +0.145 HD
ATOM     35  H   UNL     1      -2.987  -9.752   1.049  0.00  0.00    +0.145 HD
ENDBRANCH  23  31
ENDBRANCH  20  22
ENDBRANCH   1  20
TORSDOF 7
