REMARK  Name = ZINC06977930
REMARK  6 active torsions:
REMARK  status: ('A' for Active; 'I' for Inactive)
REMARK    1  A    between atoms: C_4  and  S_8
REMARK    2  A    between atoms: C_6  and  N_7
REMARK    3  A    between atoms: S_8  and  C_9
REMARK    4  A    between atoms: C_9  and  C_10
REMARK    5  A    between atoms: N_12  and  C_13
REMARK    6  A    between atoms: N_12  and  C_21
REMARK                            x       y       z     vdW  Elec       q    Type
REMARK                         _______ _______ _______ _____ _____    ______ ____
ROOT
ATOM      1  C   UNL     1       4.564  -3.456  -0.061  0.00  0.00    +0.226 C 
ATOM      2  O   UNL     1       5.664  -2.955  -0.162  0.00  0.00    -0.275 OA
ATOM      3  N   UNL     1       4.439  -4.794   0.035  0.00  0.00    -0.293 N 
ENDROOT
BRANCH   3   4
ATOM      4  C   UNL     1       5.633  -5.637   0.129  0.00  0.00    +0.099 C 
ATOM      5  C   UNL     1       6.460  -5.230   1.361  0.00  0.00    +0.046 C 
ATOM      6  C   UNL     1       7.862  -5.881   1.294  0.00  0.00    +0.168 C 
ATOM      7  S   UNL     1       8.136  -6.064  -0.516  0.00  0.00    -0.029 S 
ATOM      8  O   UNL     1       8.247  -7.446  -0.829  0.00  0.00    -0.174 OA
ATOM      9  O   UNL     1       9.164  -5.170  -0.921  0.00  0.00    -0.174 OA
ATOM     10  C   UNL     1       6.518  -5.437  -1.135  0.00  0.00    +0.188 C 
ENDBRANCH   3   4
BRANCH   3  11
ATOM     11  C   UNL     1       3.108  -5.407   0.045  0.00  0.00    +0.076 C 
ATOM     12  C   UNL     1       2.876  -6.146   1.379  0.00  0.00    +0.022 C 
ATOM     13  C   UNL     1       2.072  -7.408   0.980  0.00  0.00    +0.002 C 
ATOM     14  C   UNL     1       2.717  -7.811  -0.370  0.00  0.00    +0.002 C 
ATOM     15  C   UNL     1       3.006  -6.465  -1.067  0.00  0.00    +0.022 C 
ENDBRANCH   3  11
BRANCH   1  16
ATOM     16  C   UNL     1       3.337  -2.581  -0.043  0.00  0.00    +0.173 C 
BRANCH  16  17
ATOM     17  S   UNL     1       3.837  -0.838  -0.039  0.00  0.00    -0.077 S 
BRANCH  17  21
ATOM     18  C   UNL     1      -0.016   1.388   0.013  0.00  0.00    +0.086 A 
ATOM     19  C   UNL     1       1.198   2.067   0.004  0.00  0.00    +0.122 A 
ATOM     20  N   UNL     1       2.331   1.369  -0.011  0.00  0.00    -0.207 NA
ATOM     21  C   UNL     1       2.311   0.044  -0.018  0.00  0.00    +0.192 A 
ATOM     22  N   UNL     1       1.174  -0.636  -0.010  0.00  0.00    -0.207 NA
ATOM     23  C   UNL     1       0.002  -0.004   0.005  0.00  0.00    +0.122 A 
ATOM     24  N   UNL     1       1.228   3.453   0.011  0.00  0.00    -0.343 N 
ATOM     25  H   UNL     1       0.399   3.956   0.022  0.00  0.00    +0.144 HD
ATOM     26  H   UNL     1       2.078   3.920   0.005  0.00  0.00    +0.144 HD
BRANCH  23  27
ATOM     27  N   UNL     1      -1.183  -0.722   0.014  0.00  0.00    -0.343 N 
ATOM     28  H   UNL     1      -2.033  -0.255   0.025  0.00  0.00    +0.144 HD
ATOM     29  H   UNL     1      -1.163  -1.692   0.008  0.00  0.00    +0.144 HD
ENDBRANCH  23  27
ENDBRANCH  17  21
ENDBRANCH  16  17
ENDBRANCH   1  16
TORSDOF 6
