REMARK  Name = ZINC22240228
REMARK  4 active torsions:
REMARK  status: ('A' for Active; 'I' for Inactive)
REMARK    1  A    between atoms: C_1  and  C_2
REMARK    2  A    between atoms: N_11  and  C_15
REMARK    3  A    between atoms: C_15  and  C_16
REMARK    4  A    between atoms: C_29  and  C_31
REMARK                            x       y       z     vdW  Elec       q    Type
REMARK                         _______ _______ _______ _____ _____    ______ ____
ROOT
ATOM      1  C   UNL     1       0.002  -0.004   0.002  0.00  0.00    +0.238 C 
ATOM      2  O   UNL     1      -1.040  -0.625   0.009  0.00  0.00    -0.273 OA
ATOM      3  N   UNL     1      -0.016   1.344   0.009  0.00  0.00    -0.256 N 
ATOM      4  C   UNL     1       1.180   2.074   0.002  0.00  0.00    +0.058 A 
ATOM      5  C   UNL     1       1.986   2.121   1.128  0.00  0.00    +0.025 A 
ATOM      6  C   UNL     1       3.151   2.867   1.110  0.00  0.00    +0.002 A 
ATOM      7  C   UNL     1       3.513   3.565  -0.027  0.00  0.00    +0.002 A 
ATOM      8  C   UNL     1       2.719   3.516  -1.159  0.00  0.00    +0.025 A 
ATOM      9  C   UNL     1       1.557   2.763  -1.152  0.00  0.00    +0.055 A 
ATOM     10  N   UNL     1       0.766   2.653  -2.301  0.00  0.00    -0.284 N 
ATOM     11  C   UNL     1      -0.571   2.833  -2.233  0.00  0.00    +0.219 C 
ATOM     12  O   UNL     1      -1.254   2.654  -3.219  0.00  0.00    -0.275 OA
ATOM     13  C   UNL     1      -1.218   3.256  -0.941  0.00  0.00    +0.128 C 
ATOM     14  C   UNL     1      -1.286   2.072   0.019  0.00  0.00    +0.194 C 
ATOM     15  H   UNL     1       1.233   2.418  -3.269  0.00  0.00    +0.155 HD
ENDROOT
BRANCH  14  16
ATOM     16  C   UNL     1      -1.567   2.586   1.433  0.00  0.00    +0.409 C 
ATOM     17  F   UNL     1      -0.534   3.441   1.832  0.00  0.00    -0.169 F 
ATOM     18  F   UNL     1      -2.780   3.282   1.444  0.00  0.00    -0.169 F 
ATOM     19  F   UNL     1      -1.642   1.503   2.316  0.00  0.00    -0.169 F 
ENDBRANCH  14  16
BRANCH   1  20
ATOM     20  C   UNL     1       1.317  -0.740  -0.015  0.00  0.00    +0.214 C 
BRANCH  20  30
ATOM     21  C   UNL     1       3.157  -4.718  -0.694  0.00  0.00    +0.010 C 
ATOM     22  C   UNL     1       1.802  -5.260  -1.153  0.00  0.00    +0.018 C 
ATOM     23  C   UNL     1       1.770  -5.325  -2.682  0.00  0.00    +0.006 C 
ATOM     24  C   UNL     1       0.407  -5.848  -3.140  0.00  0.00    +0.000 C 
ATOM     25  C   UNL     1      -0.694  -4.903  -2.656  0.00  0.00    +0.003 C 
ATOM     26  C   UNL     1      -0.671  -4.836  -1.126  0.00  0.00    +0.035 C 
ATOM     27  C   UNL     1       0.693  -4.338  -0.659  0.00  0.00    +0.115 C 
ATOM     28  C   UNL     1       0.930  -2.925  -1.139  0.00  0.00    +0.247 C 
ATOM     29  O   UNL     1       0.985  -2.539  -2.286  0.00  0.00    -0.273 OA
ATOM     30  N   UNL     1       1.069  -2.183  -0.020  0.00  0.00    -0.215 N 
ATOM     31  C   UNL     1       0.958  -2.932   1.085  0.00  0.00    +0.310 C 
ATOM     32  O   UNL     1       1.051  -2.490   2.213  0.00  0.00    -0.252 OA
ATOM     33  N   UNL     1       0.727  -4.229   0.805  0.00  0.00    -0.285 N 
ATOM     34  H   UNL     1       0.576  -5.124   1.427  0.00  0.00    +0.151 HD
ENDBRANCH  20  30
ENDBRANCH   1  20
TORSDOF 3
