REMARK  Name = ZINC44943796
REMARK  5 active torsions:
REMARK  status: ('A' for Active; 'I' for Inactive)
REMARK    1  A    between atoms: C_1  and  C_2
REMARK    2  A    between atoms: C_5  and  C_7
REMARK    3  A    between atoms: C_7  and  N_8
REMARK    4  A    between atoms: C_9  and  C_11
REMARK    5  A    between atoms: C_17  and  C_19
REMARK                            x       y       z     vdW  Elec       q    Type
REMARK                         _______ _______ _______ _____ _____    ______ ____
ROOT
ATOM      1  C   UNL     1       3.132  -4.999  -3.078  0.00  0.00    +0.091 C 
ATOM      2  C   UNL     1       3.810  -3.841  -3.812  0.00  0.00    +0.040 C 
ATOM      3  C   UNL     1       4.343  -4.308  -5.135  0.00  0.00    -0.030 C 
ATOM      4  C   UNL     1       4.524  -5.551  -5.446  0.00  0.00    -0.030 C 
ATOM      5  C   UNL     1       4.218  -6.700  -4.530  0.00  0.00    +0.040 C 
ATOM      6  C   UNL     1       4.079  -6.207  -3.088  0.00  0.00    +0.091 C 
ENDROOT
BRANCH   6   7
ATOM      7  C   UNL     1       5.431  -5.795  -2.565  0.00  0.00    +0.220 C 
ATOM      8  O   UNL     1       6.099  -4.991  -3.179  0.00  0.00    -0.275 OA
ATOM      9  N   UNL     1       5.897  -6.321  -1.415  0.00  0.00    -0.298 N 
ATOM     10  C   UNL     1       5.160  -7.392  -0.730  0.00  0.00    +0.126 C 
ATOM     11  C   UNL     1       6.103  -8.585  -0.530  0.00  0.00    +0.125 C 
ATOM     12  N   UNL     1       7.358  -8.098   0.061  0.00  0.00    -0.314 N 
ATOM     13  C   UNL     1       8.094  -7.027  -0.625  0.00  0.00    +0.125 C 
ATOM     14  C   UNL     1       7.154  -5.838  -0.828  0.00  0.00    +0.126 C 
ATOM     15  C   UNL     1       7.838  -8.640   1.247  0.00  0.00    +0.099 A 
ATOM     16  C   UNL     1       7.191  -9.731   1.819  0.00  0.00    +0.042 A 
ATOM     17  C   UNL     1       7.680 -10.261   2.999  0.00  0.00    +0.005 A 
ATOM     18  C   UNL     1       8.805  -9.680   3.570  0.00  0.00    +0.018 A 
ATOM     19  C   UNL     1       9.398  -8.600   2.948  0.00  0.00    +0.084 A 
ATOM     20  N   UNL     1       8.912  -8.118   1.819  0.00  0.00    -0.350 N 
ATOM     21  H   UNL     1       9.350  -7.361   1.401  0.00  0.00    +0.166 HD
ENDBRANCH   6   7
BRANCH   1  23
ATOM     22  N   UNL     1       2.034  -3.547  -1.404  0.00  0.00    -0.308 N 
ATOM     23  C   UNL     1       2.841  -4.596  -1.655  0.00  0.00    +0.217 C 
ATOM     24  O   UNL     1       3.333  -5.217  -0.737  0.00  0.00    -0.275 OA
ATOM     25  H   UNL     1       1.640  -3.051  -2.139  0.00  0.00    +0.149 HD
BRANCH  22  26
ATOM     26  C   UNL     1       1.751  -3.155  -0.021  0.00  0.00    +0.178 C 
BRANCH  26  31
ATOM     27  C   UNL     1       0.129   1.621  -0.018  0.00  0.00    +0.086 C 
ATOM     28  C   UNL     1       0.124   0.114  -0.014  0.00  0.00    +0.102 A 
ATOM     29  C   UNL     1      -0.970  -0.669   0.001  0.00  0.00    +0.045 A 
ATOM     30  C   UNL     1      -0.515  -2.008   0.000  0.00  0.00    +0.046 A 
ATOM     31  C   UNL     1       0.829  -1.963  -0.015  0.00  0.00    +0.122 A 
ATOM     32  O   UNL     1       1.211  -0.675  -0.029  0.00  0.00    -0.463 OA
ENDBRANCH  26  31
ENDBRANCH  22  26
ENDBRANCH   1  23
TORSDOF 4
