REMARK  Name = ZINC08990509
REMARK  12 active torsions:
REMARK  status: ('A' for Active; 'I' for Inactive)
REMARK    1  A    between atoms: C_1  and  C_2
REMARK    2  A    between atoms: C_10  and  C_12
REMARK    3  A    between atoms: C_14  and  O_21
REMARK    4  A    between atoms: C_15  and  O_20
REMARK    5  A    between atoms: C_16  and  O_18
REMARK    6  A    between atoms: O_18  and  C_19
REMARK    7  A    between atoms: O_21  and  C_22
REMARK    8  A    between atoms: C_26  and  C_29
REMARK    9  A    between atoms: C_32  and  O_37
REMARK   10  A    between atoms: C_33  and  O_35
REMARK   11  A    between atoms: O_35  and  C_36
REMARK   12  A    between atoms: O_37  and  C_38
REMARK                            x       y       z     vdW  Elec       q    Type
REMARK                         _______ _______ _______ _____ _____    ______ ____
ROOT
ATOM      1  C   UNL     1       0.913  -0.004  -3.178  0.00  0.00    +0.069 C 
ATOM      2  C   UNL     1      -0.361  -0.524  -2.563  0.00  0.00    +0.087 A 
ATOM      3  C   UNL     1      -0.707  -0.506  -1.215  0.00  0.00    +0.049 A 
ATOM      4  C   UNL     1      -1.948  -1.088  -1.171  0.00  0.00    +0.226 A 
ATOM      5  O   UNL     1      -2.257  -1.401  -2.425  0.00  0.00    -0.339 OA
ATOM      6  N   UNL     1      -1.366  -1.083  -3.189  0.00  0.00    -0.081 NA
ATOM      7  N   UNL     1      -2.618  -1.252   0.024  0.00  0.00    -0.286 N 
ATOM      8  C   UNL     1      -1.920  -1.091   1.197  0.00  0.00    +0.019 C 
ATOM      9  C   UNL     1      -0.695  -0.526   1.242  0.00  0.00    +0.024 C 
ATOM     10  C   UNL     1       0.002  -0.004   0.002  0.00  0.00    +0.091 C 
ATOM     11  C   UNL     1      -0.002  -0.398   2.460  0.00  0.00    +0.162 C 
ATOM     12  O   UNL     1       1.093   0.129   2.466  0.00  0.00    -0.292 OA
ATOM     13  C   UNL     1      -0.584  -0.895   3.753  0.00  0.00    +0.088 C 
ATOM     14  C   UNL     1      -1.533  -2.061   3.454  0.00  0.00    +0.032 C 
ATOM     15  C   UNL     1      -2.592  -1.576   2.462  0.00  0.00    +0.059 C 
ATOM     16  H   UNL     1      -3.562  -1.476   0.036  0.00  0.00    +0.155 HD
ENDROOT
BRANCH  10  17
ATOM     17  C   UNL     1      -0.018   1.503   0.010  0.00  0.00    -0.028 A 
ATOM     18  C   UNL     1      -1.226   2.176   0.020  0.00  0.00    +0.054 A 
ATOM     19  C   UNL     1      -1.249   3.562   0.033  0.00  0.00    +0.165 A 
ATOM     20  C   UNL     1      -0.056   4.275   0.025  0.00  0.00    +0.201 A 
ATOM     21  C   UNL     1       1.156   3.595   0.010  0.00  0.00    +0.165 A 
ATOM     22  C   UNL     1       1.170   2.208   0.003  0.00  0.00    +0.054 A 
BRANCH  21  23
ATOM     23  O   UNL     1       2.326   4.288   0.002  0.00  0.00    -0.491 OA
ATOM     24  C   UNL     1       3.533   3.523  -0.015  0.00  0.00    +0.277 C 
ENDBRANCH  21  23
BRANCH  20  25
ATOM     25  O   UNL     1      -0.074   5.636   0.033  0.00  0.00    -0.501 OA
ATOM     26  H   UNL     1      -0.088   6.034  -0.849  0.00  0.00    +0.292 HD
ENDBRANCH  20  25
BRANCH  19  27
ATOM     27  O   UNL     1      -2.437   4.223   0.048  0.00  0.00    -0.491 OA
ATOM     28  C   UNL     1      -3.623   3.426   0.055  0.00  0.00    +0.277 C 
ENDBRANCH  19  27
ENDBRANCH  10  17
BRANCH  14  29
ATOM     29  C   UNL     1      -2.200  -2.514   4.727  0.00  0.00    -0.040 A 
ATOM     30  C   UNL     1      -2.955  -1.621   5.465  0.00  0.00    +0.008 A 
ATOM     31  C   UNL     1      -3.573  -2.034   6.631  0.00  0.00    +0.049 A 
ATOM     32  C   UNL     1      -3.427  -3.340   7.068  0.00  0.00    +0.161 A 
ATOM     33  C   UNL     1      -2.662  -4.237   6.328  0.00  0.00    +0.162 A 
ATOM     34  C   UNL     1      -2.050  -3.819   5.158  0.00  0.00    +0.053 A 
BRANCH  33  35
ATOM     35  O   UNL     1      -2.516  -5.520   6.753  0.00  0.00    -0.491 OA
ATOM     36  C   UNL     1      -1.717  -6.385   5.943  0.00  0.00    +0.277 C 
ENDBRANCH  33  35
BRANCH  32  37
ATOM     37  O   UNL     1      -4.030  -3.745   8.218  0.00  0.00    -0.491 OA
ATOM     38  C   UNL     1      -4.799  -2.771   8.926  0.00  0.00    +0.277 C 
ENDBRANCH  32  37
ENDBRANCH  14  29
TORSDOF 7
