REMARK  Name = ZINC09942733
REMARK  8 active torsions:
REMARK  status: ('A' for Active; 'I' for Inactive)
REMARK    1  A    between atoms: C_1  and  C_2
REMARK    2  A    between atoms: C_5  and  N_9
REMARK    3  A    between atoms: C_6  and  C_8
REMARK    4  A    between atoms: C_10  and  C_12
REMARK    5  A    between atoms: C_13  and  C_31
REMARK    6  A    between atoms: C_20  and  C_22
REMARK    7  A    between atoms: C_25  and  O_29
REMARK    8  A    between atoms: O_29  and  C_30
REMARK                            x       y       z     vdW  Elec       q    Type
REMARK                         _______ _______ _______ _____ _____    ______ ____
ROOT
ATOM      1  C   UNL     1      -2.669   3.400   7.018  0.00  0.00    +0.060 C 
ATOM      2  C   UNL     1      -1.948   3.621   8.127  0.00  0.00    +0.018 C 
ATOM      3  N   UNL     1      -2.527   3.990   9.317  0.00  0.00    -0.286 N 
ATOM      4  C   UNL     1      -3.861   4.370   9.287  0.00  0.00    +0.240 A 
ATOM      5  N   UNL     1      -4.602   4.957  10.183  0.00  0.00    -0.092 NA
ATOM      6  N   UNL     1      -5.796   5.132   9.730  0.00  0.00    -0.021 NA
ATOM      7  N   UNL     1      -5.894   4.670   8.526  0.00  0.00    -0.042 NA
ATOM      8  N   UNL     1      -4.642   4.156   8.196  0.00  0.00    -0.201 N 
ATOM      9  C   UNL     1      -4.170   3.509   6.977  0.00  0.00    +0.179 C 
ATOM     10  C   UNL     1      -0.450   3.465   8.064  0.00  0.00    +0.061 C 
ATOM     11  H   UNL     1      -2.024   3.982  10.146  0.00  0.00    +0.155 HD
ENDROOT
BRANCH   9  12
ATOM     12  C   UNL     1      -4.772   2.132   6.874  0.00  0.00    -0.017 A 
ATOM     13  C   UNL     1      -5.564   1.804   5.788  0.00  0.00    +0.010 A 
ATOM     14  C   UNL     1      -6.117   0.542   5.691  0.00  0.00    +0.047 A 
ATOM     15  C   UNL     1      -5.877  -0.398   6.683  0.00  0.00    +0.134 A 
ATOM     16  C   UNL     1      -5.082  -0.067   7.771  0.00  0.00    +0.060 A 
ATOM     17  C   UNL     1      -4.527   1.196   7.861  0.00  0.00    +0.025 A 
ATOM     18 BR   UNL     1      -4.753  -1.345   9.126  0.00  0.00    -0.047 Br
BRANCH  15  19
ATOM     19  O   UNL     1      -6.420  -1.641   6.588  0.00  0.00    -0.494 OA
ATOM     20  C   UNL     1      -7.227  -1.911   5.440  0.00  0.00    +0.277 C 
ENDBRANCH  15  19
ENDBRANCH   9  12
BRANCH   1  22
ATOM     21  N   UNL     1      -2.667   2.912   4.676  0.00  0.00    -0.281 N 
ATOM     22  C   UNL     1      -1.987   3.040   5.832  0.00  0.00    +0.248 C 
ATOM     23  O   UNL     1      -0.784   2.847   5.855  0.00  0.00    -0.270 OA
ATOM     24  H   UNL     1      -3.608   3.145   4.638  0.00  0.00    +0.155 HD
BRANCH  21  29
ATOM     25  C   UNL     1      -0.030   1.008   0.029  0.00  0.00    +0.044 C 
ATOM     26  C   UNL     1      -0.731   1.514   1.263  0.00  0.00    -0.050 A 
ATOM     27  C   UNL     1      -0.248   1.181   2.516  0.00  0.00    +0.005 A 
ATOM     28  C   UNL     1      -0.887   1.643   3.649  0.00  0.00    +0.024 A 
ATOM     29  C   UNL     1      -2.017   2.442   3.530  0.00  0.00    +0.037 A 
ATOM     30  C   UNL     1      -2.500   2.774   2.271  0.00  0.00    -0.029 A 
ATOM     31  C   UNL     1      -1.853   2.313   1.141  0.00  0.00    +0.008 A 
ATOM     32  C   UNL     1      -3.726   3.641   2.137  0.00  0.00    +0.045 C 
ENDBRANCH  21  29
ENDBRANCH   1  22
TORSDOF 4
