REMARK  Name = ZINC02369161
REMARK  5 active torsions:
REMARK  status: ('A' for Active; 'I' for Inactive)
REMARK    1  A    between atoms: C_1  and  C_2
REMARK    2  A    between atoms: C_2  and  O_3
REMARK    3  A    between atoms: O_3  and  C_4
REMARK    4  A    between atoms: C_7  and  N_10
REMARK    5  A    between atoms: C_14  and  C_15
REMARK                            x       y       z     vdW  Elec       q    Type
REMARK                         _______ _______ _______ _____ _____    ______ ____
ROOT
ATOM      1  N   UNL     1       0.846  -5.996   1.942  0.00  0.00    -0.188 N 
ATOM      2  C   UNL     1       1.736  -6.480   2.834  0.00  0.00    +0.264 C 
ATOM      3  O   UNL     1       2.474  -5.735   3.452  0.00  0.00    -0.269 OA
ATOM      4  C   UNL     1       1.785  -7.937   3.034  0.00  0.00    +0.102 C 
ATOM      5  C   UNL     1       2.671  -8.517   3.933  0.00  0.00    +0.028 C 
ATOM      6  C   UNL     1       0.849  -8.755   2.237  0.00  0.00    +0.276 C 
ATOM      7  N   UNL     1       0.019  -8.128   1.387  0.00  0.00    -0.123 NA
ATOM      8  C   UNL     1       0.017  -6.825   1.254  0.00  0.00    +0.340 C 
ATOM      9  O   UNL     1      -0.853  -6.277   0.382  0.00  0.00    -0.250 OA
ATOM     10  O   UNL     1       0.830  -9.969   2.348  0.00  0.00    -0.268 OA
ENDROOT
BRANCH   5  11
ATOM     11  C   UNL     1       2.829  -9.917   3.964  0.00  0.00    +0.001 A 
ATOM     12  C   UNL     1       2.969 -10.763   2.877  0.00  0.00    +0.091 A 
ATOM     13  N   UNL     1       3.095 -12.031   3.307  0.00  0.00    -0.360 N 
ATOM     14  H   UNL     1       3.206 -12.801   2.727  0.00  0.00    +0.165 HD
ATOM     15  C   UNL     1       3.046 -12.089   4.686  0.00  0.00    +0.047 A 
ATOM     16  C   UNL     1       2.884 -10.779   5.163  0.00  0.00    +0.008 A 
ATOM     17  C   UNL     1       2.808 -10.536   6.530  0.00  0.00    +0.025 A 
ATOM     18  C   UNL     1       2.896 -11.590   7.417  0.00  0.00    +0.019 A 
ATOM     19  C   UNL     1       3.059 -12.885   6.947  0.00  0.00    +0.017 A 
ATOM     20  C   UNL     1       3.127 -13.139   5.594  0.00  0.00    +0.027 A 
ATOM     21 BR   UNL     1       2.794 -11.268   9.277  0.00  0.00    -0.050 Br
ENDBRANCH   5  11
BRANCH   1  25
ATOM     22  C   UNL     1       0.625  -1.881   1.296  0.00  0.00    +0.121 A 
ATOM     23  C   UNL     1      -0.152  -2.471   2.283  0.00  0.00    +0.047 A 
ATOM     24  C   UNL     1      -0.079  -3.833   2.497  0.00  0.00    +0.027 A 
ATOM     25  C   UNL     1       0.771  -4.612   1.724  0.00  0.00    +0.046 A 
ATOM     26  C   UNL     1       1.549  -4.021   0.738  0.00  0.00    +0.027 A 
ATOM     27  C   UNL     1       1.471  -2.660   0.521  0.00  0.00    +0.047 A 
BRANCH  22  28
ATOM     28  O   UNL     1       0.553  -0.539   1.086  0.00  0.00    -0.492 OA
BRANCH  28  30
ATOM     29  C   UNL     1      -0.284   1.682   1.540  0.00  0.00    +0.048 C 
ATOM     30  C   UNL     1      -0.339   0.201   1.921  0.00  0.00    +0.225 C 
ENDBRANCH  28  30
ENDBRANCH  22  28
ENDBRANCH   1  25
TORSDOF 4
