REMARK  Name = ZINC44358051
REMARK  10 active torsions:
REMARK  status: ('A' for Active; 'I' for Inactive)
REMARK    1  A    between atoms: C_1  and  C_2
REMARK    2  A    between atoms: C_2  and  O_3
REMARK    3  A    between atoms: O_3  and  C_4
REMARK    4  A    between atoms: C_4  and  C_6
REMARK    5  A    between atoms: C_6  and  C_8
REMARK    6  A    between atoms: C_6  and  N_24
REMARK    7  A    between atoms: C_8  and  C_9
REMARK    8  A    between atoms: C_11  and  C_17
REMARK    9  A    between atoms: C_14  and  O_15
REMARK   10  A    between atoms: C_17  and  C_18
REMARK                            x       y       z     vdW  Elec       q    Type
REMARK                         _______ _______ _______ _____ _____    ______ ____
ROOT
ATOM      1  C   UNL     1       1.238  -2.768  -4.984  0.00  0.00    -0.006 A 
ATOM      2  C   UNL     1       1.087  -4.060  -5.449  0.00  0.00    +0.011 A 
ATOM      3  C   UNL     1       1.755  -4.469  -6.588  0.00  0.00    -0.042 A 
ATOM      4  C   UNL     1       2.576  -3.586  -7.266  0.00  0.00    +0.023 A 
ATOM      5  C   UNL     1       2.730  -2.292  -6.805  0.00  0.00    +0.060 A 
ATOM      6  C   UNL     1       2.056  -1.878  -5.664  0.00  0.00    +0.134 A 
ATOM      7 BR   UNL     1       3.853  -1.085  -7.731  0.00  0.00    -0.047 Br
ENDROOT
BRANCH   6   8
ATOM      8  O   UNL     1       2.202  -0.605  -5.212  0.00  0.00    -0.505 OA
ATOM      9  H   UNL     1       2.931  -0.491  -4.587  0.00  0.00    +0.292 HD
ENDBRANCH   6   8
BRANCH   1  10
ATOM     10  C   UNL     1       0.509  -2.323  -3.742  0.00  0.00    +0.033 C 
BRANCH  10  11
ATOM     11  C   UNL     1       1.468  -2.353  -2.550  0.00  0.00    +0.040 C 
BRANCH  11  12
ATOM     12  N   UNL     1       1.877  -3.739  -2.285  0.00  0.00    +0.387 N 
ATOM     13  H   UNL     1       1.062  -4.296  -2.076  0.00  0.00    -0.089 HD
ATOM     14  H   UNL     1       2.341  -4.114  -3.099  0.00  0.00    -0.089 HD
ATOM     15  H   UNL     1       2.509  -3.759  -1.499  0.00  0.00    -0.089 HD
ENDBRANCH  11  12
BRANCH  11  16
ATOM     16  C   UNL     1       0.775  -1.794  -1.334  0.00  0.00    +0.293 C 
ATOM     17  O   UNL     1       0.314  -2.540  -0.504  0.00  0.00    -0.253 OA
BRANCH  16  18
ATOM     18  O   UNL     1       0.671  -0.465  -1.174  0.00  0.00    -0.466 OA
BRANCH  18  20
ATOM     19  C   UNL     1      -0.019   1.526   0.010  0.00  0.00    +0.048 C 
ATOM     20  C   UNL     1       0.002  -0.004   0.002  0.00  0.00    +0.228 C 
ENDBRANCH  18  20
ENDBRANCH  16  18
ENDBRANCH  11  16
ENDBRANCH  10  11
ENDBRANCH   1  10
BRANCH   3  21
ATOM     21  C   UNL     1       1.589  -5.879  -7.092  0.00  0.00    +0.070 C 
BRANCH  21  22
ATOM     22  C   UNL     1       0.431  -5.935  -8.055  0.00  0.00    -0.043 A 
ATOM     23  C   UNL     1      -0.845  -6.192  -7.589  0.00  0.00    +0.004 A 
ATOM     24  C   UNL     1      -1.907  -6.244  -8.472  0.00  0.00    +0.000 A 
ATOM     25  C   UNL     1      -1.693  -6.038  -9.822  0.00  0.00    +0.000 A 
ATOM     26  C   UNL     1      -0.418  -5.780 -10.289  0.00  0.00    +0.000 A 
ATOM     27  C   UNL     1       0.644  -5.724  -9.405  0.00  0.00    +0.004 A 
ENDBRANCH  21  22
ENDBRANCH   3  21
TORSDOF 9
