REMARK  Name = ZINC10214787
REMARK  4 active torsions:
REMARK  status: ('A' for Active; 'I' for Inactive)
REMARK    1  A    between atoms: C_7  and  N_19
REMARK    2  A    between atoms: N_8  and  C_12
REMARK    3  A    between atoms: C_12  and  C_13
REMARK    4  A    between atoms: N_22  and  C_23
REMARK                            x       y       z     vdW  Elec       q    Type
REMARK                         _______ _______ _______ _____ _____    ______ ____
ROOT
ATOM      1  C   UNL     1      -0.183   1.275  -0.986  0.00  0.00    +0.001 A 
ATOM      2  C   UNL     1       0.959   1.741  -1.630  0.00  0.00    +0.002 A 
ATOM      3  C   UNL     1       2.136   1.054  -1.561  0.00  0.00    +0.028 A 
ATOM      4  C   UNL     1       2.200  -0.140  -0.831  0.00  0.00    +0.080 A 
ATOM      5  C   UNL     1       1.034  -0.613  -0.173  0.00  0.00    +0.039 A 
ATOM      6  C   UNL     1      -0.158   0.117  -0.265  0.00  0.00    +0.013 A 
ATOM      7  C   UNL     1       1.115  -1.816   0.558  0.00  0.00    +0.120 A 
ATOM      8  N   UNL     1       2.303  -2.463   0.599  0.00  0.00    -0.277 N 
ATOM      9  C   UNL     1       3.377  -1.972  -0.040  0.00  0.00    +0.350 A 
ATOM     10  O   UNL     1       4.430  -2.587   0.022  0.00  0.00    -0.244 OA
ATOM     11  N   UNL     1       3.336  -0.846  -0.736  0.00  0.00    -0.193 NA
ENDROOT
BRANCH   7  12
ATOM     12  N   UNL     1       0.021  -2.315   1.210  0.00  0.00    -0.255 N 
ATOM     13  C   UNL     1      -0.250  -3.634   1.158  0.00  0.00    +0.309 C 
ATOM     14  O   UNL     1       0.532  -4.394   0.622  0.00  0.00    -0.252 OA
ATOM     15  N   UNL     1      -1.388  -4.109   1.701  0.00  0.00    -0.269 N 
ATOM     16  H   UNL     1      -0.559  -1.719   1.709  0.00  0.00    +0.158 HD
ATOM     17  H   UNL     1      -1.977  -3.515   2.191  0.00  0.00    +0.156 HD
BRANCH  15  18
ATOM     18  C   UNL     1      -1.720  -5.462   1.559  0.00  0.00    +0.035 A 
ATOM     19  C   UNL     1      -0.722  -6.428   1.576  0.00  0.00    +0.025 A 
ATOM     20  C   UNL     1      -1.052  -7.762   1.435  0.00  0.00    +0.022 A 
ATOM     21  C   UNL     1      -2.375  -8.136   1.277  0.00  0.00    +0.041 A 
ATOM     22  C   UNL     1      -3.371  -7.175   1.259  0.00  0.00    +0.022 A 
ATOM     23  C   UNL     1      -3.047  -5.840   1.406  0.00  0.00    +0.025 A 
ATOM     24 CL   UNL     1      -2.786  -9.813   1.099  0.00  0.00    -0.084 Cl
ENDBRANCH  15  18
ENDBRANCH   7  12
BRANCH   8  25
ATOM     25  C   UNL     1       2.418  -3.715   1.351  0.00  0.00    +0.159 C 
BRANCH  25  26
ATOM     26  C   UNL     1       3.047  -4.788   0.461  0.00  0.00    +0.138 C 
ATOM     27  C   UNL     1       3.062  -6.142   1.203  0.00  0.00    +0.035 C 
ATOM     28  C   UNL     1       4.439  -6.730   0.789  0.00  0.00    +0.031 C 
ATOM     29  C   UNL     1       5.292  -5.440   0.693  0.00  0.00    +0.160 C 
ATOM     30  O   UNL     1       4.404  -4.440   0.164  0.00  0.00    -0.375 OA
ENDBRANCH  25  26
ENDBRANCH   8  25
TORSDOF 4
