REMARK  Name = ZINC62564407
REMARK  6 active torsions:
REMARK  status: ('A' for Active; 'I' for Inactive)
REMARK    1  A    between atoms: C_1  and  C_2
REMARK    2  A    between atoms: C_2  and  C_3
REMARK    3  A    between atoms: C_3  and  C_4
REMARK    4  A    between atoms: C_12  and  C_17
REMARK    5  A    between atoms: C_17  and  C_18
REMARK    6  A    between atoms: C_18  and  N_19
REMARK                            x       y       z     vdW  Elec       q    Type
REMARK                         _______ _______ _______ _____ _____    ______ ____
ROOT
ATOM      1  C   UNL     1       0.739  -2.004  -1.265  0.00  0.00    -0.044 A 
ATOM      2  C   UNL     1       1.789  -2.683  -0.674  0.00  0.00    +0.030 A 
ATOM      3  C   UNL     1       1.809  -4.068  -0.685  0.00  0.00    +0.077 A 
ATOM      4  C   UNL     1       0.762  -4.774  -1.274  0.00  0.00    +0.157 A 
ATOM      5  C   UNL     1      -0.284  -4.088  -1.868  0.00  0.00    +0.062 A 
ATOM      6  C   UNL     1      -0.295  -2.704  -1.858  0.00  0.00    +0.022 A 
ATOM      7 BR   UNL     1      -1.699  -5.041  -2.685  0.00  0.00    -0.046 Br
ATOM      8  O   UNL     1       0.766  -6.134  -1.245  0.00  0.00    -0.477 OA
ATOM      9  C   UNL     1       2.041  -6.780  -1.277  0.00  0.00    +0.257 C 
ATOM     10  C   UNL     1       2.978  -6.100  -0.311  0.00  0.00    +0.258 C 
ATOM     11  O   UNL     1       3.826  -6.743   0.270  0.00  0.00    -0.271 OA
ATOM     12  N   UNL     1       2.869  -4.772  -0.097  0.00  0.00    -0.279 N 
ATOM     13  H   UNL     1       3.517  -4.309   0.457  0.00  0.00    +0.155 HD
ENDROOT
BRANCH   1  14
ATOM     14  C   UNL     1       0.718  -0.497  -1.257  0.00  0.00    +0.035 C 
BRANCH  14  16
ATOM     15  C   UNL     1      -0.019   1.526   0.010  0.00  0.00    +0.004 C 
ATOM     16  C   UNL     1       0.002  -0.004   0.002  0.00  0.00    +0.001 C 
ENDBRANCH  14  16
ENDBRANCH   1  14
BRANCH   9  17
ATOM     17  C   UNL     1       2.619  -6.696  -2.691  0.00  0.00    +0.035 C 
BRANCH  17  18
ATOM     18  C   UNL     1       1.736  -7.495  -3.651  0.00  0.00    -0.082 C 
BRANCH  18  19
ATOM     19  N   UNL     1       2.291  -7.415  -5.009  0.00  0.00    +0.378 N 
ATOM     20  H   UNL     1       1.708  -7.942  -5.643  0.00  0.00    -0.090 HD
ATOM     21  H   UNL     1       2.321  -6.450  -5.304  0.00  0.00    -0.090 HD
ATOM     22  H   UNL     1       3.224  -7.797  -5.014  0.00  0.00    -0.090 HD
ENDBRANCH  18  19
ENDBRANCH  17  18
ENDBRANCH   9  17
TORSDOF 5
