REMARK  Name = ZINC26477907
REMARK  11 active torsions:
REMARK  status: ('A' for Active; 'I' for Inactive)
REMARK    1  A    between atoms: C_1  and  C_2
REMARK    2  A    between atoms: C_6  and  C_33
REMARK    3  A    between atoms: C_11  and  C_30
REMARK    4  A    between atoms: C_12  and  S_13
REMARK    5  A    between atoms: S_13  and  C_14
REMARK    6  A    between atoms: C_17  and  C_21
REMARK    7  A    between atoms: C_21  and  S_22
REMARK    8  A    between atoms: S_22  and  C_23
REMARK    9  A    between atoms: C_24  and  O_29
REMARK   10  A    between atoms: C_33  and  C_35
REMARK   11  A    between atoms: C_33  and  O_36
REMARK                            x       y       z     vdW  Elec       q    Type
REMARK                         _______ _______ _______ _____ _____    ______ ____
ROOT
ATOM      1  S   UNL     1       1.720  -1.766  -0.431  0.00  0.00    -0.126 S 
ENDROOT
BRANCH   1  10
ATOM      2  C   UNL     1       0.805  -0.629   2.657  0.00  0.00    +0.015 C 
ATOM      3  C   UNL     1       1.527   0.267   1.648  0.00  0.00    +0.046 C 
ATOM      4  C   UNL     1       0.959   1.695   1.695  0.00  0.00    +0.104 C 
ATOM      5  C   UNL     1      -0.417   1.806   2.347  0.00  0.00    +0.125 C 
ATOM      6  C   UNL     1      -0.848   2.075   0.930  0.00  0.00    +0.228 C 
ATOM      7  O   UNL     1      -1.928   2.351   0.452  0.00  0.00    -0.275 OA
ATOM      8  N   UNL     1       0.367   1.905   0.369  0.00  0.00    -0.260 N 
ATOM      9  C   UNL     1       0.610   0.775  -0.429  0.00  0.00    +0.135 C 
ATOM     10  C   UNL     1       1.259  -0.201   0.236  0.00  0.00    +0.019 C 
BRANCH   9  11
ATOM     11  C   UNL     1       0.215   0.671  -1.784  0.00  0.00    +0.401 C 
ATOM     12  O   UNL     1      -0.452   1.554  -2.292  0.00  0.00    -0.239 OA
ATOM     13  O   UNL     1       0.577  -0.406  -2.512  0.00  0.00    -0.239 OA
ENDBRANCH   9  11
BRANCH   5  14
ATOM     14  C   UNL     1      -0.573   3.000   3.291  0.00  0.00    +0.125 C 
ATOM     15  C   UNL     1      -1.986   3.004   3.880  0.00  0.00    +0.038 C 
BRANCH  14  16
ATOM     16  O   UNL     1       0.383   2.900   4.349  0.00  0.00    -0.391 OA
ATOM     17  H   UNL     1       0.422   3.673   5.130  0.00  0.00    +0.210 HD
ENDBRANCH  14  16
ENDBRANCH   5  14
ENDBRANCH   1  10
BRANCH   1  18
ATOM     18  C   UNL     1       3.523  -1.614  -0.372  0.00  0.00    +0.033 C 
ATOM     19  C   UNL     1       4.206  -2.961  -0.725  0.00  0.00    -0.002 C 
ATOM     20  C   UNL     1       5.576  -2.521  -1.281  0.00  0.00    -0.060 C 
ATOM     21  N   UNL     1       5.436  -1.125  -1.734  0.00  0.00    +0.382 N 
ATOM     22  C   UNL     1       4.040  -0.694  -1.505  0.00  0.00    -0.068 C 
ATOM     23  H   UNL     1       6.125  -0.484  -1.165  0.00  0.00    -0.085 HD
ATOM     24  H   UNL     1       5.676  -1.062  -2.806  0.00  0.00    -0.085 HD
BRANCH  20  25
ATOM     25  C   UNL     1       5.971  -3.414  -2.459  0.00  0.00    +0.060 C 
BRANCH  25  26
ATOM     26  S   UNL     1       7.645  -2.984  -3.010  0.00  0.00    -0.104 S 
BRANCH  26  27
ATOM     27  C   UNL     1       7.948  -4.085  -4.352  0.00  0.00    +0.138 A 
ATOM     28  C   UNL     1       9.169  -4.032  -5.028  0.00  0.00    +0.149 A 
ATOM     29  C   UNL     1       9.391  -4.905  -6.082  0.00  0.00    +0.049 A 
ATOM     30  C   UNL     1       8.385  -5.801  -6.424  0.00  0.00    +0.023 A 
ATOM     31  C   UNL     1       7.204  -5.796  -5.711  0.00  0.00    +0.112 A 
ATOM     32  N   UNL     1       7.019  -4.958  -4.707  0.00  0.00    -0.245 NA
BRANCH  28  33
ATOM     33  O   UNL     1      10.125  -3.139  -4.659  0.00  0.00    -0.504 OA
ATOM     34  H   UNL     1      11.084  -3.104  -5.197  0.00  0.00    +0.292 HD
ENDBRANCH  28  33
ENDBRANCH  26  27
ENDBRANCH  25  26
ENDBRANCH  20  25
ENDBRANCH   1  18
TORSDOF 9
