REMARK  Name = ZINC45455050
REMARK  10 active torsions:
REMARK  status: ('A' for Active; 'I' for Inactive)
REMARK    1  A    between atoms: C_1  and  C_2
REMARK    2  A    between atoms: N_5  and  C_11
REMARK    3  A    between atoms: C_7  and  C_10
REMARK    4  A    between atoms: C_11  and  C_12
REMARK    5  A    between atoms: C_12  and  C_13
REMARK    6  A    between atoms: C_13  and  N_14
REMARK    7  A    between atoms: N_17  and  C_18
REMARK    8  A    between atoms: N_17  and  C_19
REMARK    9  A    between atoms: C_19  and  C_20
REMARK   10  A    between atoms: C_23  and  C_26
REMARK                            x       y       z     vdW  Elec       q    Type
REMARK                         _______ _______ _______ _____ _____    ______ ____
ROOT
ATOM      1  N   UNL     1      -4.042  -6.105  -0.348  0.00  0.00    -0.299 N 
ATOM      2  C   UNL     1      -5.176  -6.831  -0.414  0.00  0.00    +0.302 C 
ATOM      3  O   UNL     1      -6.256  -6.279  -0.333  0.00  0.00    -0.253 OA
ATOM      4  N   UNL     1      -5.112  -8.168  -0.570  0.00  0.00    -0.284 N 
ATOM      5  C   UNL     1      -3.810  -8.832  -0.667  0.00  0.00    +0.134 C 
ATOM      6  H   UNL     1      -3.180  -6.545  -0.412  0.00  0.00    +0.150 HD
ENDROOT
BRANCH   1   7
ATOM      7  C   UNL     1      -4.111  -4.651  -0.179  0.00  0.00    +0.107 C 
BRANCH   7   8
ATOM      8  C   UNL     1      -2.695  -4.075  -0.135  0.00  0.00    +0.034 C 
BRANCH   8   9
ATOM      9  C   UNL     1      -2.768  -2.557   0.042  0.00  0.00    +0.086 C 
BRANCH   9  13
ATOM     10  C   UNL     1      -0.019   1.526   0.010  0.00  0.00    +0.039 C 
ATOM     11  C   UNL     1       0.002  -0.004   0.002  0.00  0.00    +0.130 C 
ATOM     12  C   UNL     1      -1.434  -0.535   0.015  0.00  0.00    +0.115 C 
ATOM     13  N   UNL     1      -1.407  -2.003   0.085  0.00  0.00    -0.297 NA
ATOM     14  C   UNL     1      -0.692  -2.455   1.287  0.00  0.00    +0.115 C 
ATOM     15  C   UNL     1       0.736  -1.905   1.261  0.00  0.00    +0.130 C 
ATOM     16  O   UNL     1       0.692  -0.479   1.161  0.00  0.00    -0.371 OA
ATOM     17  C   UNL     1       1.461  -2.305   2.548  0.00  0.00    +0.039 C 
ENDBRANCH   9  13
ENDBRANCH   8   9
ENDBRANCH   7   8
ENDBRANCH   1   7
BRANCH   4  18
ATOM     18  C   UNL     1      -6.344  -8.957  -0.641  0.00  0.00    +0.144 C 
BRANCH  18  19
ATOM     19  C   UNL     1      -6.789  -9.064  -2.077  0.00  0.00    -0.030 A 
ATOM     20  C   UNL     1      -7.636  -8.108  -2.609  0.00  0.00    +0.006 A 
ATOM     21  C   UNL     1      -8.047  -8.200  -3.922  0.00  0.00    +0.019 A 
ATOM     22  C   UNL     1      -7.606  -9.261  -4.716  0.00  0.00    +0.052 A 
ATOM     23  C   UNL     1      -6.751 -10.222  -4.173  0.00  0.00    +0.019 A 
ATOM     24  C   UNL     1      -6.344 -10.115  -2.860  0.00  0.00    +0.006 A 
BRANCH  22  25
ATOM     25  C   UNL     1      -8.029  -9.363  -6.080  0.00  0.00    +0.099 C 
ATOM     26  N   UNL     1      -8.365  -9.444  -7.162  0.00  0.00    -0.191 NA
ENDBRANCH  22  25
ENDBRANCH  18  19
ENDBRANCH   4  18
TORSDOF 7
