REMARK  Name = ZINC37557636
REMARK  5 active torsions:
REMARK  status: ('A' for Active; 'I' for Inactive)
REMARK    1  A    between atoms: C_1  and  C_2
REMARK    2  A    between atoms: C_4  and  C_19
REMARK    3  A    between atoms: C_6  and  N_8
REMARK    4  A    between atoms: N_8  and  S_9
REMARK    5  A    between atoms: S_9  and  C_12
REMARK                            x       y       z     vdW  Elec       q    Type
REMARK                         _______ _______ _______ _____ _____    ______ ____
ROOT
ATOM      1  S   UNL     1       1.289  -2.251   3.563  0.00  0.00    +0.077 S 
ATOM      2  O   UNL     1       0.891  -0.896   3.719  0.00  0.00    -0.150 OA
ATOM      3  O   UNL     1       1.329  -3.164   4.651  0.00  0.00    -0.150 OA
ENDROOT
BRANCH   1   4
ATOM      4  C   UNL     1       2.909  -2.224   2.869  0.00  0.00    +0.167 A 
ATOM      5  C   UNL     1       3.629  -1.119   2.572  0.00  0.00    +0.135 A 
ATOM      6  N   UNL     1       4.812  -1.520   2.061  0.00  0.00    -0.281 N 
ATOM      7  H   UNL     1       5.529  -0.940   1.761  0.00  0.00    +0.188 HD
ATOM      8  N   UNL     1       4.823  -2.921   2.041  0.00  0.00    -0.157 NA
ATOM      9  C   UNL     1       3.683  -3.346   2.532  0.00  0.00    +0.165 A 
ATOM     10  N   UNL     1       3.303  -4.684   2.689  0.00  0.00    -0.340 N 
ATOM     11  H   UNL     1       2.408  -4.902   2.991  0.00  0.00    +0.144 HD
ATOM     12  H   UNL     1       3.936  -5.394   2.495  0.00  0.00    +0.144 HD
ENDBRANCH   1   4
BRANCH   1  13
ATOM     13  N   UNL     1       0.281  -2.913   2.427  0.00  0.00    -0.216 N 
ATOM     14  H   UNL     1      -0.191  -3.738   2.619  0.00  0.00    +0.174 HD
BRANCH  13  20
ATOM     15  C   UNL     1      -0.504   1.198  -0.151  0.00  0.00    +0.044 C 
ATOM     16  C   UNL     1      -0.271  -0.290  -0.087  0.00  0.00    -0.048 A 
ATOM     17  C   UNL     1      -0.226  -1.032  -1.253  0.00  0.00    +0.006 A 
ATOM     18  C   UNL     1      -0.013  -2.398  -1.200  0.00  0.00    -0.048 A 
ATOM     19  C   UNL     1       0.156  -3.024   0.019  0.00  0.00    +0.028 A 
ATOM     20  C   UNL     1       0.111  -2.282   1.192  0.00  0.00    +0.049 A 
ATOM     21  C   UNL     1      -0.098  -0.910   1.135  0.00  0.00    +0.028 A 
ATOM     22  C   UNL     1       0.035  -3.203  -2.473  0.00  0.00    +0.044 C 
ENDBRANCH  13  20
ENDBRANCH   1  13
TORSDOF 3
