REMARK  Name = ZINC12278813
REMARK  9 active torsions:
REMARK  status: ('A' for Active; 'I' for Inactive)
REMARK    1  A    between atoms: C_1  and  C_2
REMARK    2  A    between atoms: C_2  and  C_3
REMARK    3  A    between atoms: C_2  and  C_4
REMARK    4  A    between atoms: C_4  and  C_5
REMARK    5  A    between atoms: C_5  and  C_7
REMARK    6  A    between atoms: C_5  and  N_22
REMARK    7  A    between atoms: C_16  and  C_17
REMARK    8  A    between atoms: C_16  and  N_58
REMARK    9  A    between atoms: C_23  and  C_25
REMARK                            x       y       z     vdW  Elec       q    Type
REMARK                         _______ _______ _______ _____ _____    ______ ____
ROOT
ATOM      1  C   UNL     1       1.342   1.654   0.124  0.00  0.00    +0.154 A 
ATOM      2  N   UNL     1       0.144   1.131   0.120  0.00  0.00    -0.132 NA
ATOM      3  N   UNL     1       0.227  -0.148   0.242  0.00  0.00    -0.134 NA
ATOM      4  C   UNL     1       1.478  -0.496   0.325  0.00  0.00    +0.132 A 
ATOM      5  N   UNL     1       2.219   0.638   0.270  0.00  0.00    -0.315 N 
ATOM      6  C   UNL     1       3.676   0.720   0.368  0.00  0.00    +0.106 C 
ATOM      7  C   UNL     1       4.289  -0.588  -0.142  0.00  0.00    -0.056 C 
ATOM      8  C   UNL     1       3.114  -1.891   1.545  0.00  0.00    -0.071 C 
ATOM      9  C   UNL     1       2.042  -1.888   0.450  0.00  0.00    +0.058 C 
ATOM     10  N   UNL     1       4.433  -1.574   0.955  0.00  0.00    +0.384 N 
ATOM     11  H   UNL     1       4.840  -2.436   0.573  0.00  0.00    -0.081 HD
ENDROOT
BRANCH   1  12
ATOM     12  C   UNL     1       1.680   3.117  -0.007  0.00  0.00    +0.142 C 
BRANCH  12  13
ATOM     13  N   UNL     1       0.891   3.889   0.956  0.00  0.00    -0.301 N 
ATOM     14  C   UNL     1       1.353   5.070   1.413  0.00  0.00    +0.246 C 
ATOM     15  O   UNL     1       2.377   5.539   0.957  0.00  0.00    -0.270 OA
ATOM     16  H   UNL     1       0.036   3.551   1.264  0.00  0.00    +0.150 HD
BRANCH  14  17
ATOM     17  C   UNL     1       0.615   5.793   2.470  0.00  0.00    +0.055 A 
ATOM     18  C   UNL     1       1.087   7.018   2.958  0.00  0.00    +0.016 A 
ATOM     19  C   UNL     1       0.356   7.657   3.943  0.00  0.00    +0.020 A 
ATOM     20  C   UNL     1      -0.801   7.067   4.418  0.00  0.00    +0.111 A 
ATOM     21  N   UNL     1      -1.220   5.910   3.943  0.00  0.00    -0.263 NA
ATOM     22  C   UNL     1      -0.562   5.265   3.002  0.00  0.00    +0.123 A 
ENDBRANCH  14  17
ENDBRANCH  12  13
BRANCH  12  23
ATOM     23  C   UNL     1       1.358   3.590  -1.426  0.00  0.00    +0.033 C 
BRANCH  23  25
ATOM     24  C   UNL     1       1.870   3.248  -3.847  0.00  0.00    +0.007 C 
ATOM     25  C   UNL     1       2.289   2.892  -2.420  0.00  0.00    -0.015 C 
ATOM     26  C   UNL     1       3.728   3.353  -2.180  0.00  0.00    +0.007 C 
ENDBRANCH  23  25
ENDBRANCH  12  23
ENDBRANCH   1  12
BRANCH  10  27
ATOM     27  C   UNL     1       5.332  -1.041   1.994  0.00  0.00    -0.042 C 
BRANCH  27  28
ATOM     28  C   UNL     1       5.657  -2.149   2.962  0.00  0.00    -0.057 A 
ATOM     29  C   UNL     1       6.737  -2.982   2.737  0.00  0.00    +0.009 A 
ATOM     30  C   UNL     1       7.002  -3.969   3.628  0.00  0.00    +0.045 A 
ATOM     31  S   UNL     1       5.703  -3.740   4.830  0.00  0.00    -0.105 S 
ATOM     32  C   UNL     1       4.898  -2.341   4.068  0.00  0.00    +0.047 A 
ENDBRANCH  27  28
ENDBRANCH  10  27
TORSDOF 7
