REMARK  Name = ZINC44699600
REMARK  8 active torsions:
REMARK  status: ('A' for Active; 'I' for Inactive)
REMARK    1  A    between atoms: C_1  and  C_2
REMARK    2  A    between atoms: C_9  and  O_32
REMARK    3  A    between atoms: C_16  and  O_31
REMARK    4  A    between atoms: C_19  and  C_30
REMARK    5  A    between atoms: C_24  and  C_25
REMARK    6  A    between atoms: C_24  and  O_29
REMARK    7  A    between atoms: C_25  and  C_27
REMARK    8  A    between atoms: C_27  and  O_28
REMARK                            x       y       z     vdW  Elec       q    Type
REMARK                         _______ _______ _______ _____ _____    ______ ____
ROOT
ATOM      1  C   UNL     1       0.611   1.526   0.400  0.00  0.00    +0.016 C 
ATOM      2  C   UNL     1       0.455   0.000   0.393  0.00  0.00    -0.002 C 
ATOM      3  C   UNL     1       1.072  -0.504  -0.905  0.00  0.00    +0.019 C 
ATOM      4  C   UNL     1       2.597  -0.438  -0.870  0.00  0.00    +0.080 C 
ATOM      5  C   UNL     1       3.076  -1.252   0.314  0.00  0.00    +0.156 C 
ATOM      6  O   UNL     1       4.050  -1.978   0.225  0.00  0.00    -0.293 OA
ATOM      7  C   UNL     1       2.327  -1.141   1.566  0.00  0.00    +0.048 C 
ATOM      8  C   UNL     1       1.132  -0.546   1.609  0.00  0.00    -0.032 C 
ATOM      9  C   UNL     1       0.477  -0.426   2.968  0.00  0.00    +0.141 C 
ATOM     10  C   UNL     1      -1.004  -0.799   2.875  0.00  0.00    +0.040 C 
ATOM     11  C   UNL     1      -1.671  -0.020   1.751  0.00  0.00    +0.002 C 
ATOM     12  C   UNL     1      -1.041  -0.317   0.401  0.00  0.00    +0.031 C 
ATOM     13  C   UNL     1      -1.294  -1.763  -0.007  0.00  0.00    +0.119 C 
ATOM     14  C   UNL     1      -2.780  -2.062  -0.051  0.00  0.00    +0.041 C 
ATOM     15  C   UNL     1      -3.611  -1.574   1.099  0.00  0.00    +0.009 C 
ATOM     16  C   UNL     1      -3.177  -0.244   1.719  0.00  0.00    +0.002 C 
ATOM     17  C   UNL     1      -3.690  -0.309   3.182  0.00  0.00    +0.008 C 
ATOM     18  C   UNL     1      -3.623  -1.804   3.551  0.00  0.00    +0.043 C 
ATOM     19  C   UNL     1      -3.856  -2.569   2.231  0.00  0.00    +0.131 C 
ATOM     20  C   UNL     1      -5.019  -1.301   0.488  0.00  0.00    +0.015 C 
ENDROOT
BRANCH  19  21
ATOM     21  C   UNL     1      -2.969  -3.779   2.174  0.00  0.00    +0.190 C 
ATOM     22  O   UNL     1      -1.913  -3.782   2.760  0.00  0.00    -0.292 OA
BRANCH  21  23
ATOM     23  C   UNL     1      -3.397  -4.991   1.386  0.00  0.00    +0.233 C 
BRANCH  23  24
ATOM     24  O   UNL     1      -2.392  -6.002   1.485  0.00  0.00    -0.387 OA
ATOM     25  H   UNL     1      -2.602  -6.813   1.001  0.00  0.00    +0.210 HD
ENDBRANCH  23  24
ENDBRANCH  21  23
ENDBRANCH  19  21
BRANCH  19  26
ATOM     26  O   UNL     1      -5.230  -2.999   2.186  0.00  0.00    -0.380 OA
ATOM     27  H   UNL     1      -5.466  -3.634   2.876  0.00  0.00    +0.211 HD
ENDBRANCH  19  26
BRANCH  13  28
ATOM     28  O   UNL     1      -0.585  -2.681   0.816  0.00  0.00    -0.391 OA
ATOM     29  H   UNL     1      -0.654  -3.602   0.528  0.00  0.00    +0.210 HD
ENDBRANCH  13  28
BRANCH   9  30
ATOM     30  O   UNL     1       0.611   0.906   3.468  0.00  0.00    -0.387 OA
ATOM     31  H   UNL     1       1.528   1.195   3.575  0.00  0.00    +0.210 HD
ENDBRANCH   9  30
TORSDOF 6
