REMARK  Name = ZINC28444085
REMARK  4 active torsions:
REMARK  status: ('A' for Active; 'I' for Inactive)
REMARK    1  A    between atoms: C_1  and  C_2
REMARK    2  A    between atoms: C_9  and  C_11
REMARK    3  A    between atoms: C_19  and  S_22
REMARK    4  A    between atoms: S_22  and  C_23
REMARK                            x       y       z     vdW  Elec       q    Type
REMARK                         _______ _______ _______ _____ _____    ______ ____
ROOT
ATOM      1  C   UNL     1      -2.529  -0.367   0.031  0.00  0.00    +0.066 C 
ATOM      2  C   UNL     1      -1.112  -0.880   0.010  0.00  0.00    +0.052 A 
ATOM      3  C   UNL     1       0.002  -0.004   0.002  0.00  0.00    +0.050 A 
ATOM      4  C   UNL     1      -0.018   1.442   0.010  0.00  0.00    +0.058 A 
ATOM      5  C   UNL     1       1.212   2.071   0.002  0.00  0.00    +0.073 A 
ATOM      6  S   UNL     1       2.404   0.769  -0.020  0.00  0.00    -0.064 S 
ATOM      7  C   UNL     1       1.296  -0.606  -0.017  0.00  0.00    +0.115 A 
ATOM      8  N   UNL     1       1.486  -1.906  -0.028  0.00  0.00    -0.220 NA
ATOM      9  C   UNL     1       0.392  -2.672  -0.021  0.00  0.00    +0.161 A 
ATOM     10  N   UNL     1      -0.838  -2.174  -0.002  0.00  0.00    -0.232 NA
ATOM     11  C   UNL     1       1.370   3.518   0.011  0.00  0.00    +0.107 C 
ATOM     12  N   UNL     1       0.288   4.195   0.362  0.00  0.00    -0.346 N 
ATOM     13  C   UNL     1      -0.927   3.495   0.764  0.00  0.00    +0.227 C 
ATOM     14  N   UNL     1      -1.167   2.257   0.020  0.00  0.00    -0.314 N 
ATOM     15  N   UNL     1       2.559   4.138  -0.320  0.00  0.00    -0.344 N 
ATOM     16  H   UNL     1      -2.150   2.072  -0.438  0.00  0.00    +0.149 HD
ATOM     17  H   UNL     1       2.632   5.236  -0.299  0.00  0.00    +0.144 HD
ATOM     18  H   UNL     1       3.433   3.535  -0.605  0.00  0.00    +0.144 HD
ATOM     19  H   UNL     1       0.300   5.295   0.351  0.00  0.00    +0.163 HD
ENDROOT
BRANCH   9  20
ATOM     20  C   UNL     1       0.558  -4.145  -0.034  0.00  0.00    +0.019 A 
ATOM     21  C   UNL     1      -0.561  -4.976  -0.021  0.00  0.00    +0.011 A 
ATOM     22  C   UNL     1      -0.400  -6.346  -0.039  0.00  0.00    +0.001 A 
ATOM     23  C   UNL     1       0.870  -6.896  -0.058  0.00  0.00    +0.000 A 
ATOM     24  C   UNL     1       1.984  -6.077  -0.065  0.00  0.00    +0.001 A 
ATOM     25  C   UNL     1       1.835  -4.705  -0.053  0.00  0.00    +0.011 A 
ENDBRANCH   9  20
BRANCH  13  26
ATOM     26  S   UNL     1      -0.810   3.099   2.530  0.00  0.00    -0.121 S 
ATOM     27  C   UNL     1       0.667   2.052   2.648  0.00  0.00    +0.088 C 
ENDBRANCH  13  26
TORSDOF 2
