REMARK  Name = ZINC12658171
REMARK  10 active torsions:
REMARK  status: ('A' for Active; 'I' for Inactive)
REMARK    1  A    between atoms: C_1  and  C_2
REMARK    2  A    between atoms: C_2  and  C_4
REMARK    3  A    between atoms: C_2  and  O_35
REMARK    4  A    between atoms: C_4  and  O_34
REMARK    5  A    between atoms: C_5  and  O_33
REMARK    6  A    between atoms: C_10  and  C_32
REMARK    7  A    between atoms: C_21  and  C_31
REMARK    8  A    between atoms: C_24  and  O_27
REMARK    9  A    between atoms: O_27  and  C_28
REMARK   10  A    between atoms: C_28  and  C_30
REMARK                            x       y       z     vdW  Elec       q    Type
REMARK                         _______ _______ _______ _____ _____    ______ ____
ROOT
ATOM      1  C   UNL     1       2.013   2.656  -5.544  0.00  0.00    +0.123 C 
ATOM      2  C   UNL     1       0.824   3.119  -6.401  0.00  0.00    +0.149 C 
ATOM      3  C   UNL     1      -0.317   2.110  -6.196  0.00  0.00    +0.038 C 
ATOM      4  C   UNL     1       0.090   1.212  -5.002  0.00  0.00    +0.004 C 
ATOM      5  C   UNL     1       1.613   1.306  -4.943  0.00  0.00    +0.005 C 
ATOM      6  C   UNL     1       2.232   1.051  -3.591  0.00  0.00    +0.010 C 
ATOM      7  C   UNL     1       1.453   1.673  -2.437  0.00  0.00    +0.005 C 
ATOM      8  C   UNL     1       0.016   1.145  -2.490  0.00  0.00    -0.001 C 
ATOM      9  C   UNL     1      -0.639   1.694  -3.755  0.00  0.00    -0.004 C 
ATOM     10  C   UNL     1      -0.735   3.213  -3.698  0.00  0.00    +0.004 C 
ATOM     11  C   UNL     1      -1.525   3.640  -2.454  0.00  0.00    +0.004 C 
ATOM     12  C   UNL     1      -0.825   3.110  -1.207  0.00  0.00    -0.001 C 
ATOM     13  C   UNL     1      -0.749   1.586  -1.240  0.00  0.00    -0.026 C 
ATOM     14  C   UNL     1      -0.013   1.087   0.008  0.00  0.00    +0.011 C 
ATOM     15  C   UNL     1      -0.707   1.579   1.277  0.00  0.00    +0.045 C 
ATOM     16  C   UNL     1      -0.768   3.106   1.283  0.00  0.00    +0.177 C 
ATOM     17  C   UNL     1      -1.538   3.594   0.053  0.00  0.00    +0.048 C 
ATOM     18  C   UNL     1      -2.150   0.969  -1.264  0.00  0.00    +0.012 C 
ATOM     19  C   UNL     1       2.173   0.217  -5.890  0.00  0.00    +0.014 C 
ENDROOT
BRANCH   1  21
ATOM     20  C   UNL     1       3.614   3.810  -7.085  0.00  0.00    +0.040 C 
ATOM     21  C   UNL     1       3.248   2.472  -6.439  0.00  0.00    +0.146 C 
BRANCH  21  22
ATOM     22  O   UNL     1       4.345   2.010  -5.649  0.00  0.00    -0.389 OA
ATOM     23  H   UNL     1       5.160   1.872  -6.150  0.00  0.00    +0.210 HD
ENDBRANCH  21  22
ENDBRANCH   1  21
BRANCH   2  24
ATOM     24  O   UNL     1       0.417   4.436  -6.024  0.00  0.00    -0.389 OA
ATOM     25  H   UNL     1      -0.323   4.782  -6.542  0.00  0.00    +0.210 HD
ENDBRANCH   2  24
BRANCH   1  26
ATOM     26  O   UNL     1       2.307   3.611  -4.525  0.00  0.00    -0.383 OA
ATOM     27  H   UNL     1       2.560   4.481  -4.863  0.00  0.00    +0.210 HD
ENDBRANCH   1  26
BRANCH  16  28
ATOM     28  O   UNL     1      -1.439   3.563   2.487  0.00  0.00    -0.462 OA
BRANCH  28  29
ATOM     29  C   UNL     1      -0.670   3.789   3.564  0.00  0.00    +0.304 C 
ATOM     30  O   UNL     1       0.524   3.612   3.502  0.00  0.00    -0.251 OA
ATOM     31  C   UNL     1      -1.296   4.265   4.850  0.00  0.00    +0.136 C 
ENDBRANCH  28  29
ENDBRANCH  16  28
TORSDOF 6
