REMARK  Name = ZINC57029430
REMARK  8 active torsions:
REMARK  status: ('A' for Active; 'I' for Inactive)
REMARK    1  A    between atoms: C_1  and  C_2
REMARK    2  A    between atoms: C_6  and  C_25
REMARK    3  A    between atoms: C_7  and  O_8
REMARK    4  A    between atoms: O_8  and  C_9
REMARK    5  A    between atoms: C_9  and  C_11
REMARK    6  A    between atoms: C_9  and  C_12
REMARK    7  A    between atoms: N_14  and  N_15
REMARK    8  A    between atoms: N_18  and  C_19
REMARK                            x       y       z     vdW  Elec       q    Type
REMARK                         _______ _______ _______ _____ _____    ______ ____
ROOT
ATOM      1  C   UNL     1      -1.049  -0.086   4.005  0.00  0.00    +0.270 C 
ATOM      2  O   UNL     1       0.035  -0.221   4.532  0.00  0.00    -0.270 OA
ATOM      3  N   UNL     1      -2.166  -0.066   4.759  0.00  0.00    -0.230 N 
ATOM      4  H   UNL     1      -3.033   0.042   4.338  0.00  0.00    +0.173 HD
ENDROOT
BRANCH   3   5
ATOM      5  N   UNL     1      -2.075  -0.200   6.151  0.00  0.00    -0.218 N 
ATOM      6  C   UNL     1      -3.192  -0.180   6.904  0.00  0.00    +0.320 C 
ATOM      7  O   UNL     1      -3.113  -0.297   8.112  0.00  0.00    -0.251 OA
ATOM      8  N   UNL     1      -4.397  -0.030   6.319  0.00  0.00    -0.266 N 
ATOM      9  H   UNL     1      -1.208  -0.308   6.572  0.00  0.00    +0.174 HD
ATOM     10  H   UNL     1      -4.460   0.063   5.356  0.00  0.00    +0.157 HD
BRANCH   8  11
ATOM     11  C   UNL     1      -5.565  -0.009   7.107  0.00  0.00    +0.072 A 
ATOM     12  C   UNL     1      -6.835   0.129   6.649  0.00  0.00    +0.128 A 
ATOM     13  N   UNL     1      -7.664   0.099   7.725  0.00  0.00    -0.283 N 
ATOM     14  H   UNL     1      -8.631   0.175   7.703  0.00  0.00    +0.188 HD
ATOM     15  N   UNL     1      -6.875  -0.062   8.871  0.00  0.00    -0.180 NA
ATOM     16  C   UNL     1      -5.622  -0.132   8.502  0.00  0.00    +0.157 A 
ENDBRANCH   8  11
ENDBRANCH   3   5
BRANCH   1  17
ATOM     17  C   UNL     1      -1.147   0.059   2.509  0.00  0.00    +0.257 C 
ATOM     18  C   UNL     1      -1.683   1.450   2.165  0.00  0.00    +0.062 C 
BRANCH  17  19
ATOM     19  O   UNL     1       0.148  -0.110   1.928  0.00  0.00    -0.479 OA
BRANCH  19  26
ATOM     20  C   UNL     1       0.141  -2.934   1.892  0.00  0.00    +0.047 C 
ATOM     21  C   UNL     1       0.205  -2.106   0.635  0.00  0.00    -0.007 A 
ATOM     22  C   UNL     1       0.257  -2.725  -0.599  0.00  0.00    +0.027 A 
ATOM     23  C   UNL     1       0.316  -1.965  -1.754  0.00  0.00    +0.042 A 
ATOM     24  C   UNL     1       0.323  -0.584  -1.675  0.00  0.00    +0.027 A 
ATOM     25  C   UNL     1       0.270   0.039  -0.443  0.00  0.00    -0.007 A 
ATOM     26  C   UNL     1       0.205  -0.721   0.715  0.00  0.00    +0.127 A 
ATOM     27  C   UNL     1       0.278   1.544  -0.358  0.00  0.00    +0.047 C 
ATOM     28 CL   UNL     1       0.383  -2.746  -3.303  0.00  0.00    -0.084 Cl
ENDBRANCH  19  26
ENDBRANCH  17  19
ENDBRANCH   1  17
TORSDOF 5
