REMARK  Name = ZINC43041970
REMARK  7 active torsions:
REMARK  status: ('A' for Active; 'I' for Inactive)
REMARK    1  A    between atoms: C_1  and  C_2
REMARK    2  A    between atoms: C_7  and  C_8
REMARK    3  A    between atoms: C_8  and  C_10
REMARK    4  A    between atoms: C_8  and  S_12
REMARK    5  A    between atoms: C_10  and  N_11
REMARK    6  A    between atoms: S_12  and  C_13
REMARK    7  A    between atoms: C_19  and  N_21
REMARK                            x       y       z     vdW  Elec       q    Type
REMARK                         _______ _______ _______ _____ _____    ______ ____
ROOT
ATOM      1  C   UNL     1      -0.192  -0.011   2.502  0.00  0.00    +0.067 C 
ENDROOT
BRANCH   1   8
ATOM      2  C   UNL     1       0.828  -2.713   2.412  0.00  0.00    +0.044 C 
ATOM      3  C   UNL     1       0.594  -1.953   1.132  0.00  0.00    -0.046 A 
ATOM      4  C   UNL     1       0.861  -2.551  -0.085  0.00  0.00    +0.003 A 
ATOM      5  C   UNL     1       0.646  -1.854  -1.259  0.00  0.00    +0.000 A 
ATOM      6  C   UNL     1       0.163  -0.559  -1.216  0.00  0.00    +0.000 A 
ATOM      7  C   UNL     1      -0.105   0.038   0.001  0.00  0.00    +0.005 A 
ATOM      8  C   UNL     1       0.106  -0.660   1.175  0.00  0.00    -0.033 A 
ENDBRANCH   1   8
BRANCH   1   9
ATOM      9  C   UNL     1       1.080   0.643   3.046  0.00  0.00    -0.067 C 
BRANCH   9  10
ATOM     10  N   UNL     1       0.825   1.160   4.398  0.00  0.00    +0.379 N 
ATOM     11  H   UNL     1       1.637   1.660   4.725  0.00  0.00    -0.090 HD
ATOM     12  H   UNL     1       0.032   1.784   4.375  0.00  0.00    -0.090 HD
ATOM     13  H   UNL     1       0.629   0.391   5.021  0.00  0.00    -0.090 HD
ENDBRANCH   9  10
ENDBRANCH   1   9
BRANCH   1  14
ATOM     14  S   UNL     1      -1.475   1.252   2.283  0.00  0.00    -0.082 S 
BRANCH  14  15
ATOM     15  C   UNL     1      -2.912   0.329   1.850  0.00  0.00    +0.171 A 
ATOM     16  N   UNL     1      -4.051   0.991   1.501  0.00  0.00    -0.302 N 
ATOM     17  H   UNL     1      -4.063   1.961   1.492  0.00  0.00    +0.171 HD
ATOM     18  C   UNL     1      -5.160   0.300   1.166  0.00  0.00    +0.254 A 
ATOM     19  O   UNL     1      -6.185   0.885   0.852  0.00  0.00    -0.268 OA
ATOM     20  C   UNL     1      -5.117  -1.097   1.185  0.00  0.00    +0.113 A 
ATOM     21  C   UNL     1      -3.933  -1.724   1.548  0.00  0.00    +0.124 A 
ATOM     22  N   UNL     1      -2.863  -0.987   1.865  0.00  0.00    -0.209 NA
BRANCH  21  23
ATOM     23  N   UNL     1      -3.859  -3.102   1.577  0.00  0.00    -0.343 N 
ATOM     24  H   UNL     1      -4.636  -3.635   1.343  0.00  0.00    +0.144 HD
ATOM     25  H   UNL     1      -3.031  -3.538   1.831  0.00  0.00    +0.144 HD
ENDBRANCH  21  23
ENDBRANCH  14  15
ENDBRANCH   1  14
TORSDOF 6
