REMARK  Name = ZINC04171363
REMARK  5 active torsions:
REMARK  status: ('A' for Active; 'I' for Inactive)
REMARK    1  A    between atoms: C_1  and  C_2
REMARK    2  A    between atoms: C_2  and  C_3
REMARK    3  A    between atoms: C_5  and  C_21
REMARK    4  A    between atoms: N_13  and  C_20
REMARK    5  A    between atoms: N_16  and  C_19
REMARK                            x       y       z     vdW  Elec       q    Type
REMARK                         _______ _______ _______ _____ _____    ______ ____
ROOT
ATOM      1  C   UNL     1       0.659  -0.597   1.208  0.00  0.00    +0.141 C 
ATOM      2  C   UNL     1       2.102  -0.185   1.301  0.00  0.00    +0.089 C 
ATOM      3  N   UNL     1       3.092  -0.985   1.098  0.00  0.00    -0.182 NA
ATOM      4  N   UNL     1       2.913  -2.340   0.773  0.00  0.00    -0.206 N 
ATOM      5  C   UNL     1       1.648  -2.867   0.940  0.00  0.00    +0.219 A 
ATOM      6  N   UNL     1       0.564  -2.055   1.152  0.00  0.00    -0.296 N 
ATOM      7  C   UNL     1      -0.519  -2.879   1.282  0.00  0.00    +0.153 A 
ATOM      8  C   UNL     1      -0.038  -4.190   1.134  0.00  0.00    +0.170 A 
ATOM      9  N   UNL     1       1.264  -4.122   0.930  0.00  0.00    -0.195 NA
ATOM     10  N   UNL     1      -0.912  -5.265   1.215  0.00  0.00    -0.280 N 
ATOM     11  C   UNL     1      -2.217  -4.986   1.438  0.00  0.00    +0.333 A 
ATOM     12  O   UNL     1      -3.001  -5.912   1.513  0.00  0.00    -0.246 OA
ATOM     13  N   UNL     1      -2.688  -3.739   1.583  0.00  0.00    -0.262 N 
ATOM     14  C   UNL     1      -1.889  -2.645   1.514  0.00  0.00    +0.282 A 
ATOM     15  O   UNL     1      -2.334  -1.518   1.648  0.00  0.00    -0.265 OA
ATOM     16  C   UNL     1      -4.120  -3.550   1.822  0.00  0.00    +0.157 C 
ATOM     17  C   UNL     1      -0.441  -6.644   1.065  0.00  0.00    +0.155 C 
ATOM     18  H   UNL     1       3.648  -2.882   0.446  0.00  0.00    +0.177 HD
ENDROOT
BRANCH   2  19
ATOM     19  C   UNL     1       2.403   1.217   1.644  0.00  0.00    -0.000 A 
ATOM     20  C   UNL     1       1.373   2.085   2.014  0.00  0.00    +0.010 A 
ATOM     21  C   UNL     1       1.661   3.395   2.334  0.00  0.00    +0.001 A 
ATOM     22  C   UNL     1       2.967   3.851   2.288  0.00  0.00    +0.000 A 
ATOM     23  C   UNL     1       3.992   2.997   1.922  0.00  0.00    +0.001 A 
ATOM     24  C   UNL     1       3.720   1.682   1.606  0.00  0.00    +0.010 A 
ENDBRANCH   2  19
BRANCH   1  26
ATOM     25  C   UNL     1       0.710  -0.605  -1.290  0.00  0.00    +0.006 C 
ATOM     26  C   UNL     1       0.039   0.002  -0.056  0.00  0.00    +0.028 C 
ENDBRANCH   1  26
TORSDOF 2
