REMARK  Name = ZINC57880569
REMARK  5 active torsions:
REMARK  status: ('A' for Active; 'I' for Inactive)
REMARK    1  A    between atoms: C_1  and  C_2
REMARK    2  A    between atoms: C_2  and  C_4
REMARK    3  A    between atoms: C_2  and  S_20
REMARK    4  A    between atoms: C_10  and  C_15
REMARK    5  A    between atoms: S_20  and  C_21
REMARK                            x       y       z     vdW  Elec       q    Type
REMARK                         _______ _______ _______ _____ _____    ______ ____
ROOT
ATOM      1  C   UNL     1       0.731  -0.503   1.223  0.00  0.00    +0.124 A 
ATOM      2  N   UNL     1       2.053  -0.799   1.136  0.00  0.00    -0.309 N 
ATOM      3  H   UNL     1       2.511  -0.685   0.289  0.00  0.00    +0.170 HD
ATOM      4  C   UNL     1       2.741  -1.247   2.203  0.00  0.00    +0.260 A 
ATOM      5  O   UNL     1       3.928  -1.508   2.109  0.00  0.00    -0.267 OA
ATOM      6  C   UNL     1       2.057  -1.413   3.449  0.00  0.00    +0.083 A 
ATOM      7  C   UNL     1       2.576  -1.876   4.732  0.00  0.00    +0.039 A 
ATOM      8  C   UNL     1       1.727  -1.951   5.788  0.00  0.00    +0.059 A 
ATOM      9  S   UNL     1       0.174  -1.398   5.111  0.00  0.00    -0.076 S 
ATOM     10  C   UNL     1       0.693  -1.082   3.443  0.00  0.00    +0.116 A 
ATOM     11  N   UNL     1       0.081  -0.639   2.348  0.00  0.00    -0.225 NA
ENDROOT
BRANCH   7  12
ATOM     12  C   UNL     1       3.995  -2.257   4.877  0.00  0.00    +0.136 A 
ATOM     13  C   UNL     1       4.842  -1.826   5.851  0.00  0.00    +0.050 A 
ATOM     14  C   UNL     1       6.089  -2.438   5.605  0.00  0.00    +0.042 A 
ATOM     15  C   UNL     1       5.943  -3.203   4.506  0.00  0.00    +0.196 A 
ATOM     16  O   UNL     1       4.675  -3.096   4.072  0.00  0.00    -0.463 OA
ENDBRANCH   7  12
BRANCH   1  18
ATOM     17  C   UNL     1      -0.019   1.526   0.010  0.00  0.00    +0.027 C 
ATOM     18  C   UNL     1       0.002  -0.004   0.002  0.00  0.00    +0.119 C 
BRANCH  18  19
ATOM     19  S   UNL     1      -1.700  -0.632   0.015  0.00  0.00    -0.056 S 
BRANCH  19  20
ATOM     20  C   UNL     1      -2.365  -0.093  -1.525  0.00  0.00    +0.259 A 
ATOM     21  N   UNL     1      -1.709   0.596  -2.426  0.00  0.00    -0.203 NA
ATOM     22  C   UNL     1      -2.536   0.831  -3.481  0.00  0.00    +0.112 A 
ATOM     23  C   UNL     1      -2.379   1.500  -4.696  0.00  0.00    +0.051 A 
ATOM     24  C   UNL     1      -3.435   1.567  -5.581  0.00  0.00    +0.043 A 
ATOM     25  C   UNL     1      -4.650   0.974  -5.268  0.00  0.00    +0.024 A 
ATOM     26  C   UNL     1      -4.817   0.310  -4.070  0.00  0.00    +0.050 A 
ATOM     27  C   UNL     1      -3.766   0.233  -3.171  0.00  0.00    +0.156 A 
ATOM     28  O   UNL     1      -3.617  -0.335  -1.951  0.00  0.00    -0.431 OA
ATOM     29 CL   UNL     1      -3.244   2.398  -7.093  0.00  0.00    -0.083 Cl
ENDBRANCH  19  20
ENDBRANCH  18  19
ENDBRANCH   1  18
TORSDOF 4
