REMARK  Name = ZINC67332837
REMARK  11 active torsions:
REMARK  status: ('A' for Active; 'I' for Inactive)
REMARK    1  A    between atoms: C_1  and  C_2
REMARK    2  A    between atoms: C_2  and  C_3
REMARK    3  A    between atoms: C_2  and  C_4
REMARK    4  A    between atoms: C_2  and  C_5
REMARK    5  A    between atoms: C_5  and  C_6
REMARK    6  A    between atoms: N_8  and  C_9
REMARK    7  A    between atoms: C_9  and  C_10
REMARK    8  A    between atoms: N_12  and  C_13
REMARK    9  A    between atoms: C_13  and  C_14
REMARK   10  A    between atoms: N_19  and  C_20
REMARK   11  A    between atoms: C_20  and  C_21
REMARK                            x       y       z     vdW  Elec       q    Type
REMARK                         _______ _______ _______ _____ _____    ______ ____
ROOT
ATOM      1  C   UNL     1       4.896   0.055  -3.220  0.00  0.00    +0.230 C 
ATOM      2  O   UNL     1       4.220  -0.639  -3.949  0.00  0.00    -0.274 OA
ATOM      3  N   UNL     1       6.188   0.292  -3.523  0.00  0.00    -0.316 N 
ATOM      4  H   UNL     1       6.729   0.848  -2.940  0.00  0.00    +0.149 HD
ENDROOT
BRANCH   1   5
ATOM      5  C   UNL     1       4.292   0.653  -1.976  0.00  0.00    +0.200 C 
BRANCH   5   8
ATOM      6  C   UNL     1       2.140   0.670  -0.833  0.00  0.00    +0.214 C 
ATOM      7  O   UNL     1       2.631   1.381   0.018  0.00  0.00    -0.276 OA
ATOM      8  N   UNL     1       2.887   0.250  -1.873  0.00  0.00    -0.307 N 
ATOM      9  H   UNL     1       2.495  -0.319  -2.554  0.00  0.00    +0.149 HD
BRANCH   6  10
ATOM     10  C   UNL     1       0.695   0.255  -0.727  0.00  0.00    +0.102 C 
BRANCH  10  12
ATOM     11  C   UNL     1       0.170   2.388   0.463  0.00  0.00    +0.011 C 
ATOM     12  C   UNL     1       0.081   0.863   0.536  0.00  0.00    -0.029 C 
ATOM     13  C   UNL     1       0.846   0.365   1.764  0.00  0.00    +0.011 C 
ATOM     14  C   UNL     1      -1.386   0.441   0.643  0.00  0.00    +0.011 C 
ENDBRANCH  10  12
ENDBRANCH   6  10
ENDBRANCH   5   8
ENDBRANCH   1   5
BRANCH   3  15
ATOM     15  C   UNL     1       6.776  -0.289  -4.732  0.00  0.00    +0.089 C 
BRANCH  15  16
ATOM     16  C   UNL     1       8.243   0.132  -4.840  0.00  0.00    -0.051 C 
ATOM     17  C   UNL     1       8.825  -0.333  -6.191  0.00  0.00    -0.016 C 
ATOM     18  C   UNL     1       8.704   0.934  -7.078  0.00  0.00    -0.020 C 
ATOM     19  C   UNL     1       8.986   2.061  -6.054  0.00  0.00    -0.078 C 
ATOM     20  N   UNL     1       8.347   1.602  -4.798  0.00  0.00    +0.383 N 
ATOM     21  H   UNL     1       7.426   2.006  -4.717  0.00  0.00    -0.081 HD
BRANCH  20  22
ATOM     22  C   UNL     1       9.165   2.007  -3.647  0.00  0.00    -0.075 C 
BRANCH  22  23
ATOM     23  C   UNL     1       9.155   3.532  -3.526  0.00  0.00    -0.028 C 
ATOM     24  C   UNL     1      10.116   3.962  -2.416  0.00  0.00    +0.002 C 
ATOM     25  C   UNL     1      10.107   5.487  -2.295  0.00  0.00    +0.000 C 
ATOM     26  C   UNL     1       8.692   5.963  -1.957  0.00  0.00    +0.000 C 
ATOM     27  C   UNL     1       7.731   5.533  -3.067  0.00  0.00    +0.000 C 
ATOM     28  C   UNL     1       7.741   4.008  -3.188  0.00  0.00    +0.002 C 
ENDBRANCH  22  23
ENDBRANCH  20  22
ENDBRANCH  15  16
ENDBRANCH   3  15
TORSDOF 8
