REMARK  Name = ZINC43221744
REMARK  11 active torsions:
REMARK  status: ('A' for Active; 'I' for Inactive)
REMARK    1  A    between atoms: C_1  and  C_2
REMARK    2  A    between atoms: C_2  and  C_3
REMARK    3  A    between atoms: C_3  and  C_5
REMARK    4  A    between atoms: C_3  and  C_6
REMARK    5  A    between atoms: C_6  and  C_36
REMARK    6  A    between atoms: C_11  and  C_14
REMARK    7  A    between atoms: C_17  and  O_22
REMARK    8  A    between atoms: C_18  and  O_20
REMARK    9  A    between atoms: O_20  and  C_21
REMARK   10  A    between atoms: N_25  and  C_28
REMARK   11  A    between atoms: C_31  and  C_35
REMARK                            x       y       z     vdW  Elec       q    Type
REMARK                         _______ _______ _______ _____ _____    ______ ____
ROOT
ATOM      1  C   UNL     1      -1.413  -2.059   0.130  0.00  0.00    +0.051 C 
ATOM      2  C   UNL     1      -2.833  -2.618   0.141  0.00  0.00    +0.086 C 
ATOM      3  C   UNL     1      -2.482  -4.031   0.742  0.00  0.00    +0.077 C 
ATOM      4  C   UNL     1      -1.631  -3.712   1.894  0.00  0.00    -0.027 C 
ATOM      5  N   UNL     1      -0.873  -2.481   1.464  0.00  0.00    +0.396 N 
ATOM      6  C   UNL     1      -3.662  -4.796   0.415  0.00  0.00    +0.229 C 
ATOM      7  O   UNL     1      -4.164  -5.691   1.061  0.00  0.00    -0.275 OA
ATOM      8  N   UNL     1      -4.092  -4.289  -0.786  0.00  0.00    -0.210 N 
ATOM      9  C   UNL     1      -3.483  -3.096  -1.118  0.00  0.00    +0.229 C 
ATOM     10  O   UNL     1      -3.470  -2.549  -2.200  0.00  0.00    -0.275 OA
ATOM     11  H   UNL     1       0.112  -2.687   1.384  0.00  0.00    -0.083 HD
ATOM     12  H   UNL     1      -1.017  -1.746   2.140  0.00  0.00    -0.083 HD
ENDROOT
BRANCH   8  13
ATOM     13  C   UNL     1      -5.058  -4.911  -1.589  0.00  0.00    +0.045 A 
ATOM     14  C   UNL     1      -5.434  -4.336  -2.796  0.00  0.00    +0.024 A 
ATOM     15  C   UNL     1      -6.386  -4.950  -3.586  0.00  0.00    +0.006 A 
ATOM     16  C   UNL     1      -6.965  -6.137  -3.176  0.00  0.00    -0.032 A 
ATOM     17  C   UNL     1      -6.593  -6.713  -1.975  0.00  0.00    +0.046 A 
ATOM     18  C   UNL     1      -5.637  -6.105  -1.183  0.00  0.00    +0.044 A 
ATOM     19 CL   UNL     1      -7.322  -8.204  -1.464  0.00  0.00    -0.083 Cl
ATOM     20  C   UNL     1      -8.004  -6.805  -4.040  0.00  0.00    +0.045 C 
ENDBRANCH   8  13
BRANCH   4  21
ATOM     21  C   UNL     1      -2.475  -3.440   3.112  0.00  0.00    -0.057 A 
ATOM     22  C   UNL     1      -3.082  -2.208   3.270  0.00  0.00    +0.006 A 
ATOM     23  C   UNL     1      -3.857  -1.953   4.386  0.00  0.00    +0.049 A 
ATOM     24  C   UNL     1      -4.029  -2.935   5.349  0.00  0.00    +0.158 A 
ATOM     25  C   UNL     1      -3.419  -4.175   5.190  0.00  0.00    +0.161 A 
ATOM     26  C   UNL     1      -2.647  -4.425   4.067  0.00  0.00    +0.051 A 
BRANCH  25  27
ATOM     27  O   UNL     1      -3.584  -5.142   6.132  0.00  0.00    -0.491 OA
ATOM     28  C   UNL     1      -2.928  -6.391   5.903  0.00  0.00    +0.277 C 
ENDBRANCH  25  27
BRANCH  24  29
ATOM     29  O   UNL     1      -4.791  -2.686   6.447  0.00  0.00    -0.503 OA
ATOM     30  H   UNL     1      -5.726  -2.910   6.336  0.00  0.00    +0.292 HD
ENDBRANCH  24  29
ENDBRANCH   4  21
BRANCH   1  31
ATOM     31  C   UNL     1      -0.606  -2.667  -0.988  0.00  0.00    +0.347 C 
ATOM     32  O   UNL     1       0.382  -3.335  -0.734  0.00  0.00    -0.248 OA
ATOM     33  O   UNL     1      -0.941  -2.490  -2.147  0.00  0.00    -0.248 OA
ENDBRANCH   1  31
BRANCH   1  34
ATOM     34  C   UNL     1      -1.433  -0.534   0.013  0.00  0.00    -0.014 C 
ATOM     35  C   UNL     1      -2.135  -0.131  -1.286  0.00  0.00    +0.006 C 
BRANCH  34  37
ATOM     36  C   UNL     1      -0.019   1.526   0.010  0.00  0.00    +0.004 C 
ATOM     37  C   UNL     1       0.002  -0.004   0.002  0.00  0.00    -0.001 C 
ENDBRANCH  34  37
ENDBRANCH   1  34
TORSDOF 7
