REMARK  Name = ZINC14741586
REMARK  14 active torsions:
REMARK  status: ('A' for Active; 'I' for Inactive)
REMARK    1  A    between atoms: C_1  and  C_2
REMARK    2  A    between atoms: C_3  and  C_8
REMARK    3  A    between atoms: N_6  and  C_7
REMARK    4  A    between atoms: C_8  and  N_9
REMARK    5  A    between atoms: N_9  and  C_10
REMARK    6  A    between atoms: C_13  and  N_32
REMARK    7  A    between atoms: C_14  and  C_28
REMARK    8  A    between atoms: N_15  and  C_19
REMARK    9  A    between atoms: C_19  and  C_20
REMARK   10  A    between atoms: C_20  and  C_21
REMARK   11  A    between atoms: C_21  and  C_22
REMARK   12  A    between atoms: C_28  and  O_30
REMARK   13  A    between atoms: O_30  and  C_31
REMARK   14  A    between atoms: C_33  and  C_35
REMARK                            x       y       z     vdW  Elec       q    Type
REMARK                         _______ _______ _______ _____ _____    ______ ____
ROOT
ATOM      1  C   UNL     1      -0.116  -1.975  -5.408  0.00  0.00    +0.046 A 
ATOM      2  C   UNL     1      -0.439  -1.458  -4.162  0.00  0.00    +0.038 A 
ATOM      3  C   UNL     1      -1.785  -1.189  -3.891  0.00  0.00    +0.043 A 
ATOM      4  C   UNL     1      -2.496  -0.662  -2.725  0.00  0.00    +0.075 A 
ATOM      5  C   UNL     1      -3.834  -0.633  -3.061  0.00  0.00    +0.151 A 
ATOM      6  N   UNL     1      -3.984  -1.114  -4.354  0.00  0.00    -0.318 N 
ATOM      7  C   UNL     1      -2.758  -1.458  -4.873  0.00  0.00    +0.143 A 
ATOM      8  N   UNL     1      -2.391  -1.954  -6.049  0.00  0.00    -0.235 NA
ATOM      9  C   UNL     1      -1.132  -2.211  -6.331  0.00  0.00    +0.136 A 
ENDROOT
BRANCH   4  10
ATOM     10  N   UNL     1      -1.933  -0.263  -1.517  0.00  0.00    -0.283 N 
ATOM     11  C   UNL     1      -1.711  -1.169  -0.545  0.00  0.00    +0.223 C 
ATOM     12  O   UNL     1      -2.081  -2.315  -0.688  0.00  0.00    -0.275 OA
ATOM     13  H   UNL     1      -1.700   0.668  -1.375  0.00  0.00    +0.155 HD
BRANCH  11  14
ATOM     14  C   UNL     1      -1.002  -0.759   0.720  0.00  0.00    +0.103 C 
ATOM     15  C   UNL     1      -0.781  -1.983   1.642  0.00  0.00    +0.043 C 
ATOM     16  C   UNL     1       0.649  -1.729   2.182  0.00  0.00    +0.160 C 
ATOM     17  O   UNL     1       1.341  -1.160   1.049  0.00  0.00    -0.379 OA
ATOM     18  C   UNL     1       0.422  -0.262   0.404  0.00  0.00    +0.172 C 
ENDBRANCH  11  14
ENDBRANCH   4  10
BRANCH   1  19
ATOM     19  N   UNL     1       1.216  -2.256  -5.734  0.00  0.00    -0.338 N 
ATOM     20  H   UNL     1       1.919  -2.090  -5.087  0.00  0.00    +0.146 HD
BRANCH  19  21
ATOM     21  C   UNL     1       1.548  -2.802  -7.053  0.00  0.00    +0.140 C 
BRANCH  21  24
ATOM     22  C   UNL     1       3.145  -5.219  -5.872  0.00  0.00    +0.065 C 
ATOM     23  C   UNL     1       3.727  -4.059  -6.638  0.00  0.00    +0.040 A 
ATOM     24  C   UNL     1       3.037  -3.013  -7.149  0.00  0.00    +0.010 A 
ATOM     25  C   UNL     1       3.949  -2.166  -7.787  0.00  0.00    +0.139 A 
ATOM     26  N   UNL     1       5.145  -2.679  -7.655  0.00  0.00    -0.179 NA
ATOM     27  N   UNL     1       5.031  -3.877  -6.937  0.00  0.00    -0.271 N 
ATOM     28  C   UNL     1       6.131  -4.773  -6.575  0.00  0.00    +0.172 C 
ENDBRANCH  21  24
ENDBRANCH  19  21
ENDBRANCH   1  19
BRANCH   5  29
ATOM     29  C   UNL     1      -4.885  -0.186  -2.221  0.00  0.00    +0.357 C 
ATOM     30  O   UNL     1      -4.639   0.217  -1.100  0.00  0.00    -0.243 OA
BRANCH  29  31
ATOM     31  O   UNL     1      -6.159  -0.206  -2.666  0.00  0.00    -0.463 OA
ATOM     32  C   UNL     1      -7.168   0.260  -1.767  0.00  0.00    +0.280 C 
ENDBRANCH  29  31
ENDBRANCH   5  29
BRANCH   6  33
ATOM     33  C   UNL     1      -5.260  -1.236  -5.062  0.00  0.00    +0.124 C 
BRANCH  33  34
ATOM     34  C   UNL     1      -5.547   0.059  -5.824  0.00  0.00    +0.026 C 
BRANCH  34  35
ATOM     35  C   UNL     1      -6.881  -0.069  -6.564  0.00  0.00    +0.037 C 
BRANCH  35  36
ATOM     36  C   UNL     1      -7.163   1.207  -7.314  0.00  0.00    -0.047 A 
ATOM     37  C   UNL     1      -7.871   2.225  -6.704  0.00  0.00    +0.003 A 
ATOM     38  C   UNL     1      -8.126   3.398  -7.390  0.00  0.00    +0.000 A 
ATOM     39  C   UNL     1      -7.683   3.547  -8.691  0.00  0.00    +0.000 A 
ATOM     40  C   UNL     1      -6.980   2.526  -9.304  0.00  0.00    +0.000 A 
ATOM     41  C   UNL     1      -6.721   1.356  -8.615  0.00  0.00    +0.003 A 
ENDBRANCH  35  36
ENDBRANCH  34  35
ENDBRANCH  33  34
ENDBRANCH   6  33
TORSDOF 11
