REMARK  Name = ZINC60340326
REMARK  6 active torsions:
REMARK  status: ('A' for Active; 'I' for Inactive)
REMARK    1  A    between atoms: C_3  and  N_8
REMARK    2  A    between atoms: C_12  and  S_14
REMARK    3  A    between atoms: S_14  and  C_15
REMARK    4  A    between atoms: C_15  and  C_16
REMARK    5  A    between atoms: C_16  and  C_17
REMARK    6  A    between atoms: C_17  and  C_18
REMARK                            x       y       z     vdW  Elec       q    Type
REMARK                         _______ _______ _______ _____ _____    ______ ____
ROOT
ATOM      1  N   UNL     1       3.582   2.123  -0.021  0.00  0.00    -0.292 N 
ATOM      2  C   UNL     1       4.794   1.447   0.069  0.00  0.00    +0.187 A 
ATOM      3  N   UNL     1       5.028   0.149   0.073  0.00  0.00    -0.125 NA
ATOM      4  N   UNL     1       6.320  -0.313   0.171  0.00  0.00    -0.133 NA
ATOM      5  C   UNL     1       7.319   0.545   0.260  0.00  0.00    +0.160 A 
ATOM      6  S   UNL     1       6.450   2.104   0.201  0.00  0.00    -0.024 S 
ATOM      7  H   UNL     1       3.571   3.091  -0.097  0.00  0.00    +0.154 HD
ENDROOT
BRANCH   1  10
ATOM      8  C   UNL     1       1.134  -0.542   0.619  0.00  0.00    +0.003 A 
ATOM      9  C   UNL     1       2.323   0.161   0.602  0.00  0.00    +0.023 A 
ATOM     10  C   UNL     1       2.381   1.410  -0.003  0.00  0.00    +0.034 A 
ATOM     11  C   UNL     1       1.242   1.949  -0.588  0.00  0.00    +0.038 A 
ATOM     12  C   UNL     1       0.056   1.241  -0.567  0.00  0.00    +0.020 A 
ATOM     13  C   UNL     1       0.002  -0.003   0.036  0.00  0.00    +0.015 A 
ATOM     14 BR   UNL     1      -1.495   1.974  -1.363  0.00  0.00    -0.050 Br
ENDBRANCH   1  10
BRANCH   5  15
ATOM     15  S   UNL     1       9.048   0.235   0.396  0.00  0.00    -0.097 S 
BRANCH  15  16
ATOM     16  C   UNL     1       9.172  -1.575   0.385  0.00  0.00    +0.077 C 
BRANCH  16  17
ATOM     17  C   UNL     1      10.641  -1.986   0.498  0.00  0.00    +0.020 C 
BRANCH  17  18
ATOM     18  C   UNL     1      10.745  -3.513   0.489  0.00  0.00    +0.097 C 
BRANCH  18  19
ATOM     19  C   UNL     1      12.193  -3.918   0.601  0.00  0.00    +0.220 C 
ATOM     20  O   UNL     1      13.055  -3.070   0.680  0.00  0.00    -0.275 OA
ATOM     21  N   UNL     1      12.528  -5.223   0.613  0.00  0.00    -0.240 N 
ATOM     22  C   UNL     1      13.822  -5.586   0.713  0.00  0.00    +0.303 C 
ATOM     23  O   UNL     1      14.687  -4.736   0.792  0.00  0.00    -0.253 OA
ATOM     24  N   UNL     1      14.157  -6.891   0.725  0.00  0.00    -0.313 N 
ATOM     25  H   UNL     1      11.838  -5.902   0.550  0.00  0.00    +0.159 HD
ATOM     26  H   UNL     1      13.467  -7.570   0.661  0.00  0.00    +0.146 HD
ATOM     27  H   UNL     1      15.089  -7.152   0.796  0.00  0.00    +0.146 HD
ENDBRANCH  18  19
ENDBRANCH  17  18
ENDBRANCH  16  17
ENDBRANCH  15  16
ENDBRANCH   5  15
TORSDOF 6
