REMARK  Name = ZINC09156356
REMARK  8 active torsions:
REMARK  status: ('A' for Active; 'I' for Inactive)
REMARK    1  A    between atoms: C_4  and  S_7
REMARK    2  A    between atoms: S_7  and  C_10
REMARK    3  A    between atoms: C_14  and  C_19
REMARK    4  A    between atoms: C_15  and  C_17
REMARK    5  A    between atoms: N_21  and  C_24
REMARK    6  A    between atoms: C_22  and  N_23
REMARK    7  A    between atoms: C_24  and  C_25
REMARK    8  A    between atoms: C_28  and  C_31
REMARK                            x       y       z     vdW  Elec       q    Type
REMARK                         _______ _______ _______ _____ _____    ______ ____
ROOT
ATOM      1  C   UNL     1       0.793  -1.200   3.350  0.00  0.00    +0.160 A 
ATOM      2  C   UNL     1      -0.620  -1.236   3.406  0.00  0.00    +0.136 A 
ATOM      3  C   UNL     1      -1.088  -0.786   2.144  0.00  0.00    +0.164 A 
ATOM      4  N   UNL     1      -2.386  -0.717   1.911  0.00  0.00    -0.214 NA
ATOM      5  C   UNL     1      -3.252  -1.068   2.858  0.00  0.00    +0.178 A 
ATOM      6  C   UNL     1      -2.790  -1.514   4.112  0.00  0.00    +0.177 A 
ATOM      7  N   UNL     1      -1.486  -1.587   4.353  0.00  0.00    -0.228 NA
ATOM      8  N   UNL     1       0.022  -0.500   1.381  0.00  0.00    -0.307 N 
ATOM      9  C   UNL     1       1.148  -0.759   2.118  0.00  0.00    +0.126 A 
ENDROOT
BRANCH   1  10
ATOM     10  S   UNL     1       1.895  -1.654   4.647  0.00  0.00    +0.030 S 
ATOM     11  O   UNL     1       3.115  -0.967   4.403  0.00  0.00    -0.164 OA
ATOM     12  O   UNL     1       1.172  -1.513   5.863  0.00  0.00    -0.164 OA
BRANCH  10  16
ATOM     13  C   UNL     1       2.778  -6.068   4.171  0.00  0.00    +0.000 A 
ATOM     14  C   UNL     1       3.577  -5.132   3.542  0.00  0.00    +0.002 A 
ATOM     15  C   UNL     1       3.308  -3.784   3.687  0.00  0.00    +0.027 A 
ATOM     16  C   UNL     1       2.239  -3.372   4.462  0.00  0.00    +0.094 A 
ATOM     17  C   UNL     1       1.443  -4.309   5.095  0.00  0.00    +0.027 A 
ATOM     18  C   UNL     1       1.710  -5.657   4.946  0.00  0.00    +0.002 A 
ENDBRANCH  10  16
ENDBRANCH   1  10
BRANCH   9  19
ATOM     19  N   UNL     1       2.448  -0.594   1.674  0.00  0.00    -0.343 N 
ATOM     20  H   UNL     1       2.616  -0.270   0.775  0.00  0.00    +0.144 HD
ATOM     21  H   UNL     1       3.191  -0.801   2.261  0.00  0.00    +0.144 HD
ENDBRANCH   9  19
BRANCH   6  22
ATOM     22  C   UNL     1      -3.727  -1.891   5.127  0.00  0.00    +0.122 C 
ATOM     23  N   UNL     1      -4.470  -2.190   5.933  0.00  0.00    -0.189 NA
ENDBRANCH   6  22
BRANCH   5  24
ATOM     24  C   UNL     1      -4.659  -0.991   2.602  0.00  0.00    +0.122 C 
ATOM     25  N   UNL     1      -5.775  -0.931   2.399  0.00  0.00    -0.189 NA
ENDBRANCH   5  24
BRANCH   8  26
ATOM     26  C   UNL     1       0.002  -0.004   0.002  0.00  0.00    +0.160 C 
BRANCH  26  27
ATOM     27  C   UNL     1      -0.018   1.503   0.010  0.00  0.00    -0.028 A 
ATOM     28  C   UNL     1      -1.225   2.178   0.020  0.00  0.00    +0.006 A 
ATOM     29  C   UNL     1      -1.244   3.560   0.031  0.00  0.00    +0.013 A 
ATOM     30  C   UNL     1      -0.056   4.267   0.025  0.00  0.00    +0.055 A 
ATOM     31  C   UNL     1       1.151   3.592   0.010  0.00  0.00    +0.013 A 
ATOM     32  C   UNL     1       1.169   2.210   0.003  0.00  0.00    +0.006 A 
BRANCH  30  33
ATOM     33  C   UNL     1      -0.076   5.774   0.034  0.00  0.00    +0.417 C 
ATOM     34  F   UNL     1      -0.095   6.248  -1.282  0.00  0.00    -0.166 F 
ATOM     35  F   UNL     1      -1.219   6.221   0.706  0.00  0.00    -0.166 F 
ATOM     36  F   UNL     1       1.065   6.252   0.686  0.00  0.00    -0.166 F 
ENDBRANCH  30  33
ENDBRANCH  26  27
ENDBRANCH   8  26
TORSDOF 8
