REMARK  Name = ZINC05068793
REMARK  7 active torsions:
REMARK  status: ('A' for Active; 'I' for Inactive)
REMARK    1  A    between atoms: C_1  and  C_2
REMARK    2  A    between atoms: C_2  and  C_25
REMARK    3  A    between atoms: C_9  and  N_21
REMARK    4  A    between atoms: C_11  and  S_13
REMARK    5  A    between atoms: S_13  and  C_14
REMARK    6  A    between atoms: C_14  and  C_15
REMARK    7  A    between atoms: N_21  and  N_22
REMARK                            x       y       z     vdW  Elec       q    Type
REMARK                         _______ _______ _______ _____ _____    ______ ____
ROOT
ATOM      1  C   UNL     1       4.887   3.295   3.046  0.00  0.00    +0.041 C 
ATOM      2  C   UNL     1       5.141   3.667   1.583  0.00  0.00    +0.068 C 
ATOM      3  C   UNL     1       3.858   3.452   0.775  0.00  0.00    +0.071 C 
ATOM      4  C   UNL     1       3.605   1.949   0.679  0.00  0.00    -0.020 A 
ATOM      5  C   UNL     1       4.612   1.087   0.936  0.00  0.00    +0.021 A 
ATOM      6  S   UNL     1       3.907  -0.523   0.717  0.00  0.00    -0.071 S 
ATOM      7  C   UNL     1       2.258  -0.035   0.280  0.00  0.00    +0.115 A 
ATOM      8  C   UNL     1       2.311   1.374   0.319  0.00  0.00    +0.052 A 
ATOM      9  C   UNL     1       1.094   2.042   0.003  0.00  0.00    +0.145 A 
ATOM     10  N   UNL     1       0.024   1.327  -0.299  0.00  0.00    -0.205 NA
ATOM     11  C   UNL     1       0.043  -0.001  -0.317  0.00  0.00    +0.191 A 
ATOM     12  N   UNL     1       1.148  -0.676  -0.031  0.00  0.00    -0.214 NA
ATOM     13  C   UNL     1       6.013   1.449   1.320  0.00  0.00    +0.203 C 
ATOM     14  O   UNL     1       6.193   2.850   1.062  0.00  0.00    -0.368 OA
ATOM     15  C   UNL     1       5.551   5.138   1.498  0.00  0.00    +0.041 C 
ENDROOT
BRANCH   9  16
ATOM     16  N   UNL     1       1.033   3.423   0.010  0.00  0.00    -0.267 N 
ATOM     17  H   UNL     1       1.849   3.944   0.078  0.00  0.00    +0.167 HD
BRANCH  16  18
ATOM     18  N   UNL     1      -0.175   4.054  -0.079  0.00  0.00    -0.255 NA
ATOM     19  H   UNL     1      -0.798   3.747   0.653  0.00  0.00    +0.140 HD
ATOM     20  H   UNL     1      -0.062   5.056  -0.061  0.00  0.00    +0.140 HD
ENDBRANCH  16  18
ENDBRANCH   9  16
BRANCH  11  21
ATOM     21  S   UNL     1      -1.426  -0.881  -0.729  0.00  0.00    -0.081 S 
BRANCH  21  22
ATOM     22  C   UNL     1      -0.821  -2.582  -0.596  0.00  0.00    +0.112 C 
BRANCH  22  23
ATOM     23  C   UNL     1      -1.940  -3.540  -0.915  0.00  0.00    -0.037 A 
ATOM     24  C   UNL     1      -2.761  -4.004   0.096  0.00  0.00    +0.004 A 
ATOM     25  C   UNL     1      -3.791  -4.878  -0.197  0.00  0.00    +0.000 A 
ATOM     26  C   UNL     1      -3.993  -5.297  -1.499  0.00  0.00    +0.000 A 
ATOM     27  C   UNL     1      -3.168  -4.837  -2.509  0.00  0.00    +0.000 A 
ATOM     28  C   UNL     1      -2.142  -3.958  -2.216  0.00  0.00    +0.004 A 
ENDBRANCH  22  23
ENDBRANCH  21  22
ENDBRANCH  11  21
TORSDOF 5
