REMARK  Name = ZINC40922109
REMARK  9 active torsions:
REMARK  status: ('A' for Active; 'I' for Inactive)
REMARK    1  A    between atoms: C_1  and  C_2
REMARK    2  A    between atoms: C_3  and  C_27
REMARK    3  A    between atoms: C_4  and  C_12
REMARK    4  A    between atoms: C_15  and  O_18
REMARK    5  A    between atoms: O_18  and  C_19
REMARK    6  A    between atoms: C_19  and  C_20
REMARK    7  A    between atoms: C_20  and  C_21
REMARK    8  A    between atoms: C_27  and  O_29
REMARK    9  A    between atoms: O_29  and  C_30
REMARK                            x       y       z     vdW  Elec       q    Type
REMARK                         _______ _______ _______ _____ _____    ______ ____
ROOT
ATOM      1  C   UNL     1      -0.018   1.503   0.010  0.00  0.00    +0.061 C 
ATOM      2  C   UNL     1       0.002  -0.004   0.002  0.00  0.00    +0.020 C 
ATOM      3  C   UNL     1      -1.165  -0.668   0.004  0.00  0.00    +0.082 C 
ATOM      4  C   UNL     1      -1.255  -2.171   0.008  0.00  0.00    +0.181 C 
ATOM      5  N   UNL     1       0.058  -2.736  -0.277  0.00  0.00    -0.201 N 
ATOM      6  C   UNL     1       1.208  -2.011  -0.275  0.00  0.00    +0.240 A 
ATOM      7  N   UNL     1       2.180  -2.829  -0.561  0.00  0.00    -0.092 NA
ATOM      8  N   UNL     1       1.723  -4.020  -0.747  0.00  0.00    -0.021 NA
ATOM      9  N   UNL     1       0.438  -4.039  -0.592  0.00  0.00    -0.042 NA
ATOM     10  N   UNL     1       1.213  -0.650  -0.013  0.00  0.00    -0.286 N 
ATOM     11  H   UNL     1       2.041  -0.174   0.157  0.00  0.00    +0.155 HD
ENDROOT
BRANCH   4  12
ATOM     12  C   UNL     1      -1.723  -2.643   1.360  0.00  0.00    -0.018 A 
ATOM     13  C   UNL     1      -0.983  -2.345   2.489  0.00  0.00    +0.009 A 
ATOM     14  C   UNL     1      -1.410  -2.777   3.730  0.00  0.00    +0.046 A 
ATOM     15  C   UNL     1      -2.582  -3.510   3.843  0.00  0.00    +0.121 A 
ATOM     16  C   UNL     1      -3.324  -3.807   2.709  0.00  0.00    +0.046 A 
ATOM     17  C   UNL     1      -2.895  -3.368   1.471  0.00  0.00    +0.009 A 
BRANCH  15  18
ATOM     18  O   UNL     1      -3.004  -3.936   5.062  0.00  0.00    -0.492 OA
BRANCH  18  19
ATOM     19  C   UNL     1      -4.220  -4.686   5.103  0.00  0.00    +0.233 C 
BRANCH  19  20
ATOM     20  C   UNL     1      -4.531  -5.076   6.550  0.00  0.00    +0.076 C 
BRANCH  20  21
ATOM     21  C   UNL     1      -5.813  -5.866   6.592  0.00  0.00    -0.044 A 
ATOM     22  C   UNL     1      -7.022  -5.213   6.747  0.00  0.00    +0.004 A 
ATOM     23  C   UNL     1      -8.199  -5.938   6.786  0.00  0.00    +0.000 A 
ATOM     24  C   UNL     1      -8.166  -7.316   6.670  0.00  0.00    +0.000 A 
ATOM     25  C   UNL     1      -6.957  -7.968   6.515  0.00  0.00    +0.000 A 
ATOM     26  C   UNL     1      -5.781  -7.242   6.472  0.00  0.00    +0.004 A 
ENDBRANCH  20  21
ENDBRANCH  19  20
ENDBRANCH  18  19
ENDBRANCH  15  18
ENDBRANCH   4  12
BRANCH   3  27
ATOM     27  C   UNL     1      -2.364   0.079   0.003  0.00  0.00    +0.339 C 
ATOM     28  O   UNL     1      -2.323   1.295   0.001  0.00  0.00    -0.245 OA
BRANCH  27  29
ATOM     29  O   UNL     1      -3.554  -0.556   0.005  0.00  0.00    -0.465 OA
ATOM     30  C   UNL     1      -4.726   0.262   0.004  0.00  0.00    +0.280 C 
ENDBRANCH  27  29
ENDBRANCH   3  27
TORSDOF 7
