REMARK  Name = ZINC05741041
REMARK  4 active torsions:
REMARK  status: ('A' for Active; 'I' for Inactive)
REMARK    1  A    between atoms: C_4  and  C_7
REMARK    2  A    between atoms: C_7  and  C_8
REMARK    3  A    between atoms: N_10  and  C_21
REMARK    4  A    between atoms: C_13  and  N_54
REMARK                            x       y       z     vdW  Elec       q    Type
REMARK                         _______ _______ _______ _____ _____    ______ ____
ROOT
ATOM      1  C   UNL     1       2.140   0.726   0.033  0.00  0.00    +0.031 C 
ATOM      2  C   UNL     1       3.455   0.323  -0.520  0.00  0.00    +0.120 C 
ATOM      3  N   UNL     1       3.347  -1.171  -0.490  0.00  0.00    -0.297 N 
ATOM      4  C   UNL     1       2.026  -1.537  -0.496  0.00  0.00    +0.222 C 
ATOM      5  O   UNL     1       1.591  -2.657  -0.329  0.00  0.00    -0.275 OA
ATOM      6  C   UNL     1       1.221  -0.304  -0.744  0.00  0.00    +0.084 C 
ATOM      7  N   UNL     1       0.002  -0.004   0.002  0.00  0.00    -0.346 N 
ATOM      8  C   UNL     1      -0.017   1.421   0.010  0.00  0.00    +0.030 A 
ATOM      9  C   UNL     1       1.308   1.917  -0.000  0.00  0.00    -0.018 A 
ATOM     10  C   UNL     1       1.507   3.282  -0.027  0.00  0.00    +0.006 A 
ATOM     11  C   UNL     1       0.436   4.154  -0.025  0.00  0.00    +0.000 A 
ATOM     12  C   UNL     1      -0.858   3.668   0.005  0.00  0.00    +0.002 A 
ATOM     13  C   UNL     1      -1.079   2.305   0.019  0.00  0.00    +0.023 A 
ATOM     14  H   UNL     1      -0.636  -0.621   0.394  0.00  0.00    +0.145 HD
ENDROOT
BRANCH   3  15
ATOM     15  C   UNL     1       4.480  -2.099  -0.461  0.00  0.00    +0.076 C 
ATOM     16  C   UNL     1       4.429  -3.005  -1.692  0.00  0.00    +0.022 C 
ATOM     17  C   UNL     1       5.612  -3.974  -1.661  0.00  0.00    +0.002 C 
ATOM     18  C   UNL     1       5.538  -4.830  -0.395  0.00  0.00    +0.000 C 
ATOM     19  C   UNL     1       5.589  -3.924   0.836  0.00  0.00    +0.002 C 
ATOM     20  C   UNL     1       4.405  -2.954   0.805  0.00  0.00    +0.022 C 
ENDBRANCH   3  15
BRANCH   6  23
ATOM     21  H   UNL     1       0.347  -0.573  -2.589  0.00  0.00    -0.086 HD
ATOM     22  H   UNL     1       0.916   0.969  -2.333  0.00  0.00    -0.086 HD
ATOM     23  N   UNL     1       1.103  -0.021  -2.186  0.00  0.00    +0.398 N 
ATOM     24  H   UNL     1       1.984  -0.268  -2.651  0.00  0.00    -0.086 HD
ENDBRANCH   6  23
BRANCH   1  25
ATOM     25  C   UNL     1       2.090   0.210   1.473  0.00  0.00    +0.049 C 
BRANCH  25  29
ATOM     26  C   UNL     1       4.469   2.728   3.972  0.00  0.00    +0.000 A 
ATOM     27  C   UNL     1       3.130   3.011   3.782  0.00  0.00    +0.000 A 
ATOM     28  C   UNL     1       2.360   2.196   2.973  0.00  0.00    +0.003 A 
ATOM     29  C   UNL     1       2.929   1.099   2.354  0.00  0.00    -0.046 A 
ATOM     30  C   UNL     1       4.268   0.813   2.550  0.00  0.00    +0.003 A 
ATOM     31  C   UNL     1       5.039   1.630   3.354  0.00  0.00    +0.000 A 
ENDBRANCH  25  29
ENDBRANCH   1  25
TORSDOF 4
