REMARK  Name = ZINC00180759
REMARK  10 active torsions:
REMARK  status: ('A' for Active; 'I' for Inactive)
REMARK    1  A    between atoms: C_1  and  C_2
REMARK    2  A    between atoms: C_2  and  C_22
REMARK    3  A    between atoms: C_5  and  C_20
REMARK    4  A    between atoms: C_6  and  N_13
REMARK    5  A    between atoms: C_9  and  C_11
REMARK    6  A    between atoms: C_9  and  C_12
REMARK    7  A    between atoms: C_14  and  C_16
REMARK    8  A    between atoms: C_16  and  C_17
REMARK    9  A    between atoms: C_16  and  C_18
REMARK   10  A    between atoms: C_16  and  C_19
REMARK                            x       y       z     vdW  Elec       q    Type
REMARK                         _______ _______ _______ _____ _____    ______ ____
ROOT
ATOM      1  C   UNL     1      -0.019   1.526   0.010  0.00  0.00    -0.010 C 
ATOM      2  C   UNL     1       0.002  -0.004   0.002  0.00  0.00    -0.069 C 
ATOM      3  C   UNL     1      -1.434  -0.533  -0.098  0.00  0.00    +0.024 C 
ATOM      4  C   UNL     1      -2.143  -0.148   1.191  0.00  0.00    -0.021 A 
ATOM      5  C   UNL     1      -3.550   0.138   1.358  0.00  0.00    +0.084 A 
ATOM      6  C   UNL     1      -3.977   0.474   2.635  0.00  0.00    +0.090 A 
ATOM      7  S   UNL     1      -2.580   0.416   3.566  0.00  0.00    -0.078 S 
ATOM      8  C   UNL     1      -1.412  -0.062   2.328  0.00  0.00    -0.015 A 
ATOM      9  C   UNL     1       0.049  -0.331   2.463  0.00  0.00    -0.041 C 
ATOM     10  N   UNL     1       0.699  -0.527   1.169  0.00  0.00    +0.389 N 
ATOM     11  C   UNL     1       0.715   0.825   3.223  0.00  0.00    -0.005 C 
ATOM     12  C   UNL     1       0.227  -1.612   3.302  0.00  0.00    -0.005 C 
ATOM     13  C   UNL     1       0.760  -0.459  -1.260  0.00  0.00    -0.010 C 
ATOM     14  H   UNL     1       0.853  -1.528   1.032  0.00  0.00    -0.084 HD
ATOM     15  H   UNL     1       1.631  -0.109   1.205  0.00  0.00    -0.084 HD
ENDROOT
BRANCH   6  16
ATOM     16  N   UNL     1      -5.266   0.784   3.047  0.00  0.00    -0.279 N 
ATOM     17  C   UNL     1      -5.505   1.090   4.337  0.00  0.00    +0.223 C 
ATOM     18  O   UNL     1      -4.595   1.094   5.139  0.00  0.00    -0.275 OA
ATOM     19  H   UNL     1      -5.994   0.781   2.406  0.00  0.00    +0.155 HD
BRANCH  17  20
ATOM     20  C   UNL     1      -6.904   1.427   4.784  0.00  0.00    +0.039 C 
ATOM     21  C   UNL     1      -6.901   1.733   6.283  0.00  0.00    +0.020 C 
ATOM     22  C   UNL     1      -7.404   2.652   4.015  0.00  0.00    +0.020 C 
ATOM     23  C   UNL     1      -7.829   0.240   4.508  0.00  0.00    +0.020 C 
ENDBRANCH  17  20
ENDBRANCH   6  16
BRANCH   5  24
ATOM     24  C   UNL     1      -4.471   0.077   0.263  0.00  0.00    +0.102 C 
ATOM     25  N   UNL     1      -5.202   0.029  -0.605  0.00  0.00    -0.191 NA
ENDBRANCH   5  24
TORSDOF 3
