REMARK  Name = ZINC44730938
REMARK  7 active torsions:
REMARK  status: ('A' for Active; 'I' for Inactive)
REMARK    1  A    between atoms: C_1  and  C_2
REMARK    2  A    between atoms: C_4  and  C_8
REMARK    3  A    between atoms: C_5  and  C_7
REMARK    4  A    between atoms: C_8  and  C_10
REMARK    5  A    between atoms: C_8  and  N_11
REMARK    6  A    between atoms: N_11  and  C_12
REMARK    7  A    between atoms: C_17  and  N_18
REMARK                            x       y       z     vdW  Elec       q    Type
REMARK                         _______ _______ _______ _____ _____    ______ ____
ROOT
ATOM      1  N   UNL     1      -2.768  -3.072   0.507  0.00  0.00    -0.335 N 
ATOM      2  H   UNL     1      -3.120  -2.173   0.412  0.00  0.00    +0.147 HD
ENDROOT
BRANCH   1   3
ATOM      3  C   UNL     1      -3.558  -4.073   1.066  0.00  0.00    +0.061 A 
ATOM      4  C   UNL     1      -3.114  -5.395   1.107  0.00  0.00    +0.045 A 
ATOM      5  C   UNL     1      -3.926  -6.356   1.670  0.00  0.00    +0.112 A 
ATOM      6  N   UNL     1      -5.109  -6.039   2.164  0.00  0.00    -0.261 NA
ATOM      7  C   UNL     1      -5.564  -4.800   2.144  0.00  0.00    +0.145 A 
ATOM      8  C   UNL     1      -4.810  -3.779   1.604  0.00  0.00    +0.165 A 
BRANCH   8   9
ATOM      9  N   UNL     1      -5.326  -2.392   1.592  0.00  0.00    +0.060 N 
ATOM     10  O   UNL     1      -6.364  -2.128   2.151  0.00  0.00    -0.126 OA
ATOM     11  O   UNL     1      -4.708  -1.522   1.022  0.00  0.00    -0.126 OA
ENDBRANCH   8   9
ENDBRANCH   1   3
BRANCH   1  12
ATOM     12  C   UNL     1      -1.406  -3.377   0.062  0.00  0.00    +0.101 C 
ATOM     13  C   UNL     1      -1.448  -3.935  -1.362  0.00  0.00    +0.033 C 
BRANCH  12  17
ATOM     14  C   UNL     1      -0.016   1.524   0.108  0.00  0.00    +0.086 C 
ATOM     15  C   UNL     1       0.013   0.018   0.103  0.00  0.00    +0.103 A 
ATOM     16  C   UNL     1      -1.062  -0.790   0.078  0.00  0.00    +0.050 A 
ATOM     17  C   UNL     1      -0.578  -2.118   0.083  0.00  0.00    +0.013 A 
ATOM     18  C   UNL     1       0.765  -2.043   0.111  0.00  0.00    +0.107 A 
ATOM     19  O   UNL     1       1.117  -0.747   0.118  0.00  0.00    -0.465 OA
ATOM     20  C   UNL     1       1.713  -3.214   0.127  0.00  0.00    +0.086 C 
ENDBRANCH  12  17
ENDBRANCH   1  12
TORSDOF 4
