REMARK  Name = ZINC08622830
REMARK  5 active torsions:
REMARK  status: ('A' for Active; 'I' for Inactive)
REMARK    1  A    between atoms: C_1  and  C_2
REMARK    2  A    between atoms: C_2  and  C_23
REMARK    3  A    between atoms: N_5  and  C_9
REMARK    4  A    between atoms: C_9  and  C_10
REMARK    5  A    between atoms: N_15  and  C_16
REMARK                            x       y       z     vdW  Elec       q    Type
REMARK                         _______ _______ _______ _____ _____    ______ ____
ROOT
ATOM      1  C   UNL     1      -0.690   2.056   1.266  0.00  0.00    +0.047 C 
ATOM      2  C   UNL     1      -0.013   1.522   0.002  0.00  0.00    +0.135 C 
ATOM      3  C   UNL     1       1.457   1.892  -0.013  0.00  0.00    +0.251 C 
ATOM      4  O   UNL     1       1.931   3.008  -0.020  0.00  0.00    -0.272 OA
ATOM      5  N   UNL     1       2.127   0.723  -0.017  0.00  0.00    -0.215 N 
ATOM      6  C   UNL     1       1.294  -0.324  -0.007  0.00  0.00    +0.310 C 
ATOM      7  O   UNL     1       1.663  -1.482  -0.008  0.00  0.00    -0.252 OA
ATOM      8  N   UNL     1       0.001   0.049   0.005  0.00  0.00    -0.281 N 
ATOM      9  H   UNL     1      -0.771  -0.538   0.013  0.00  0.00    +0.152 HD
ENDROOT
BRANCH   2  10
ATOM     10  C   UNL     1      -0.704   2.043  -1.231  0.00  0.00    -0.015 A 
ATOM     11  C   UNL     1      -0.312   3.248  -1.785  0.00  0.00    +0.007 A 
ATOM     12  C   UNL     1      -0.942   3.724  -2.920  0.00  0.00    +0.020 A 
ATOM     13  C   UNL     1      -1.971   3.000  -3.495  0.00  0.00    +0.041 A 
ATOM     14  C   UNL     1      -2.365   1.797  -2.937  0.00  0.00    +0.020 A 
ATOM     15  C   UNL     1      -1.732   1.319  -1.806  0.00  0.00    +0.007 A 
ATOM     16 CL   UNL     1      -2.767   3.601  -4.916  0.00  0.00    -0.084 Cl
ENDBRANCH   2  10
BRANCH   5  17
ATOM     17  C   UNL     1       3.588   0.612  -0.030  0.00  0.00    +0.214 C 
BRANCH  17  18
ATOM     18  C   UNL     1       4.076   0.571  -1.455  0.00  0.00    +0.238 C 
ATOM     19  O   UNL     1       3.282   0.629  -2.369  0.00  0.00    -0.274 OA
ATOM     20  N   UNL     1       5.395   0.470  -1.713  0.00  0.00    -0.239 N 
ATOM     21  C   UNL     1       5.831   0.433  -2.988  0.00  0.00    +0.310 C 
ATOM     22  O   UNL     1       5.035   0.491  -3.905  0.00  0.00    -0.252 OA
ATOM     23  N   UNL     1       7.150   0.332  -3.246  0.00  0.00    -0.267 N 
ATOM     24  H   UNL     1       6.030   0.423  -0.982  0.00  0.00    +0.159 HD
ATOM     25  H   UNL     1       7.790   0.351  -2.517  0.00  0.00    +0.156 HD
BRANCH  23  26
ATOM     26  C   UNL     1       7.597   0.200  -4.567  0.00  0.00    +0.070 A 
ATOM     27  C   UNL     1       6.926   0.846  -5.596  0.00  0.00    +0.026 A 
ATOM     28  C   UNL     1       7.369   0.714  -6.898  0.00  0.00    +0.002 A 
ATOM     29  C   UNL     1       8.480  -0.060  -7.178  0.00  0.00    +0.003 A 
ATOM     30  C   UNL     1       9.152  -0.706  -6.156  0.00  0.00    +0.040 A 
ATOM     31  C   UNL     1       8.717  -0.574  -4.849  0.00  0.00    +0.145 A 
ATOM     32  F   UNL     1       9.377  -1.199  -3.850  0.00  0.00    -0.204 F 
ENDBRANCH  23  26
ENDBRANCH  17  18
ENDBRANCH   5  17
TORSDOF 4
