REMARK  Name = ZINC16645146
REMARK  5 active torsions:
REMARK  status: ('A' for Active; 'I' for Inactive)
REMARK    1  A    between atoms: C_1  and  C_2
REMARK    2  A    between atoms: C_5  and  C_8
REMARK    3  A    between atoms: C_8  and  N_9
REMARK    4  A    between atoms: C_10  and  C_12
REMARK    5  A    between atoms: N_20  and  C_23
REMARK                            x       y       z     vdW  Elec       q    Type
REMARK                         _______ _______ _______ _____ _____    ______ ____
ROOT
ATOM      1  C   UNL     1       3.113  -6.543  -0.051  0.00  0.00    +0.039 A 
ATOM      2  C   UNL     1       4.163  -5.612  -0.046  0.00  0.00    +0.014 A 
ATOM      3  C   UNL     1       5.461  -6.024  -0.055  0.00  0.00    +0.016 A 
ATOM      4  C   UNL     1       5.758  -7.394  -0.070  0.00  0.00    +0.065 A 
ATOM      5  C   UNL     1       4.706  -8.347  -0.075  0.00  0.00    +0.080 A 
ATOM      6  C   UNL     1       3.376  -7.903  -0.060  0.00  0.00    +0.041 A 
ATOM      7  N   UNL     1       5.008  -9.653  -0.089  0.00  0.00    -0.222 NA
ATOM      8  C   UNL     1       6.269 -10.057  -0.097  0.00  0.00    +0.183 A 
ATOM      9  N   UNL     1       7.300  -9.195  -0.093  0.00  0.00    -0.290 N 
ATOM     10  C   UNL     1       7.090  -7.862  -0.079  0.00  0.00    +0.262 A 
ATOM     11  O   UNL     1       8.123  -7.001  -0.075  0.00  0.00    -0.267 OA
ATOM     12  C   UNL     1       8.672  -9.710  -0.102  0.00  0.00    +0.154 C 
ATOM     13  S   UNL     1       6.598 -11.737  -0.115  0.00  0.00    -0.011 S 
ENDROOT
BRANCH   1  15
ATOM     14  N   UNL     1       1.447  -4.746  -0.032  0.00  0.00    -0.307 N 
ATOM     15  C   UNL     1       1.710  -6.067  -0.040  0.00  0.00    +0.244 C 
ATOM     16  O   UNL     1       0.797  -6.869  -0.040  0.00  0.00    -0.270 OA
ATOM     17  H   UNL     1       2.176  -4.106  -0.032  0.00  0.00    +0.149 HD
BRANCH  14  18
ATOM     18  C   UNL     1       0.059  -4.275  -0.021  0.00  0.00    +0.139 C 
BRANCH  18  23
ATOM     19  C   UNL     1      -0.018   1.503   0.010  0.00  0.00    +0.044 C 
ATOM     20  C   UNL     1       0.002  -0.004   0.002  0.00  0.00    -0.050 A 
ATOM     21  C   UNL     1       0.006  -0.689  -1.199  0.00  0.00    +0.003 A 
ATOM     22  C   UNL     1       0.025  -2.071  -1.206  0.00  0.00    +0.005 A 
ATOM     23  C   UNL     1       0.040  -2.768  -0.013  0.00  0.00    -0.030 A 
ATOM     24  C   UNL     1       0.037  -2.084   1.188  0.00  0.00    +0.005 A 
ATOM     25  C   UNL     1       0.023  -0.702   1.195  0.00  0.00    +0.003 A 
ENDBRANCH  18  23
ENDBRANCH  14  18
ENDBRANCH   1  15
TORSDOF 3
