REMARK  Name = ZINC13039739
REMARK  14 active torsions:
REMARK  status: ('A' for Active; 'I' for Inactive)
REMARK    1  A    between atoms: C_1  and  C_2
REMARK    2  A    between atoms: C_2  and  O_3
REMARK    3  A    between atoms: O_3  and  C_4
REMARK    4  A    between atoms: C_4  and  C_6
REMARK    5  A    between atoms: C_7  and  C_15
REMARK    6  A    between atoms: C_12  and  C_14
REMARK    7  A    between atoms: C_15  and  S_16
REMARK    8  A    between atoms: S_16  and  C_17
REMARK    9  A    between atoms: C_20  and  C_23
REMARK   10  A    between atoms: N_21  and  N_22
REMARK   11  A    between atoms: C_26  and  C_29
REMARK   12  A    between atoms: C_29  and  C_30
REMARK   13  A    between atoms: C_29  and  C_31
REMARK   14  A    between atoms: C_29  and  C_32
REMARK                            x       y       z     vdW  Elec       q    Type
REMARK                         _______ _______ _______ _____ _____    ______ ____
ROOT
ATOM      1  C   UNL     1       1.495  -4.345  -0.242  0.00  0.00    +0.209 A 
ATOM      2  N   UNL     1       0.195  -4.396  -0.428  0.00  0.00    -0.121 NA
ATOM      3  N   UNL     1      -0.277  -3.209  -0.576  0.00  0.00    -0.127 NA
ATOM      4  C   UNL     1       0.693  -2.328  -0.494  0.00  0.00    +0.182 A 
ATOM      5  N   UNL     1       1.858  -3.029  -0.284  0.00  0.00    -0.224 N 
ENDROOT
BRANCH   4   6
ATOM      6  C   UNL     1       0.559  -0.861  -0.612  0.00  0.00    +0.021 A 
ATOM      7  C   UNL     1      -0.698  -0.262  -0.517  0.00  0.00    +0.012 A 
ATOM      8  C   UNL     1      -0.816   1.108  -0.628  0.00  0.00    +0.005 A 
ATOM      9  C   UNL     1       0.308   1.888  -0.831  0.00  0.00    -0.042 A 
ATOM     10  C   UNL     1       1.557   1.301  -0.926  0.00  0.00    +0.005 A 
ATOM     11  C   UNL     1       1.689  -0.068  -0.817  0.00  0.00    +0.012 A 
BRANCH   9  12
ATOM     12  C   UNL     1       0.172   3.384  -0.951  0.00  0.00    -0.013 C 
ATOM     13  C   UNL     1      -0.442   3.945   0.333  0.00  0.00    +0.015 C 
ATOM     14  C   UNL     1       1.552   4.006  -1.171  0.00  0.00    +0.015 C 
ATOM     15  C   UNL     1      -0.734   3.720  -2.138  0.00  0.00    +0.015 C 
ENDBRANCH   9  12
ENDBRANCH   4   6
BRANCH   5  16
ATOM     16  N   UNL     1       3.116  -2.515  -0.143  0.00  0.00    -0.295 N 
ATOM     17  H   UNL     1       3.319  -2.316   0.825  0.00  0.00    +0.163 HD
ATOM     18  H   UNL     1       3.807  -3.136  -0.537  0.00  0.00    +0.163 HD
ENDBRANCH   5  16
BRANCH   1  19
ATOM     19  S   UNL     1       2.570  -5.718   0.006  0.00  0.00    -0.079 S 
BRANCH  19  20
ATOM     20  C   UNL     1       1.373  -7.073  -0.077  0.00  0.00    +0.128 C 
BRANCH  20  22
ATOM     21  C   UNL     1       1.979  -9.034   1.295  0.00  0.00    +0.074 C 
ATOM     22  C   UNL     1       2.086  -8.387   0.115  0.00  0.00    +0.034 C 
ATOM     23  N   UNL     1       2.825  -8.905  -0.909  0.00  0.00    -0.272 N 
ATOM     24  C   UNL     1       3.497 -10.061  -0.829  0.00  0.00    +0.304 C 
ATOM     25  O   UNL     1       4.133 -10.439  -1.794  0.00  0.00    -0.253 OA
ATOM     26  N   UNL     1       3.486 -10.821   0.284  0.00  0.00    -0.292 N 
ATOM     27  C   UNL     1       2.712 -10.352   1.445  0.00  0.00    +0.110 C 
ATOM     28  C   UNL     1       1.682 -11.429   1.791  0.00  0.00    +0.033 C 
ATOM     29  H   UNL     1       2.870  -8.407  -1.740  0.00  0.00    +0.156 HD
ATOM     30  H   UNL     1       3.977 -11.657   0.319  0.00  0.00    +0.151 HD
BRANCH  21  31
ATOM     31  C   UNL     1       1.210  -8.501   2.355  0.00  0.00    +0.338 C 
ATOM     32  O   UNL     1       1.759  -7.925   3.276  0.00  0.00    -0.245 OA
BRANCH  31  33
ATOM     33  O   UNL     1      -0.133  -8.630   2.346  0.00  0.00    -0.462 OA
BRANCH  33  35
ATOM     34  C   UNL     1      -2.346  -8.312   3.263  0.00  0.00    +0.048 C 
ATOM     35  C   UNL     1      -0.847  -8.068   3.448  0.00  0.00    +0.229 C 
ENDBRANCH  33  35
ENDBRANCH  31  33
ENDBRANCH  21  31
ENDBRANCH  20  22
ENDBRANCH  19  20
ENDBRANCH   1  19
TORSDOF 9
