REMARK  Name = ZINC28775474
REMARK  12 active torsions:
REMARK  status: ('A' for Active; 'I' for Inactive)
REMARK    1  A    between atoms: C_1  and  C_2
REMARK    2  A    between atoms: C_2  and  N_3
REMARK    3  A    between atoms: N_3  and  C_4
REMARK    4  A    between atoms: N_3  and  S_6
REMARK    5  A    between atoms: C_4  and  C_5
REMARK    6  A    between atoms: S_6  and  C_9
REMARK    7  A    between atoms: N_15  and  O_18
REMARK    8  A    between atoms: O_18  and  C_19
REMARK    9  A    between atoms: C_19  and  C_20
REMARK   10  A    between atoms: N_22  and  C_23
REMARK   11  A    between atoms: C_24  and  C_30
REMARK   12  A    between atoms: C_28  and  C_29
REMARK                            x       y       z     vdW  Elec       q    Type
REMARK                         _______ _______ _______ _____ _____    ______ ____
ROOT
ATOM      1  C   UNL     1      -3.094  -1.623  -4.557  0.00  0.00    +0.108 A 
ATOM      2  C   UNL     1      -2.151  -1.946  -5.525  0.00  0.00    +0.031 A 
ATOM      3  C   UNL     1      -0.820  -1.770  -5.288  0.00  0.00    +0.034 A 
ATOM      4  C   UNL     1      -0.394  -1.257  -4.056  0.00  0.00    +0.116 A 
ATOM      5  C   UNL     1      -1.352  -0.933  -3.080  0.00  0.00    +0.132 A 
ATOM      6  C   UNL     1      -2.704  -1.123  -3.347  0.00  0.00    +0.061 A 
ATOM      7  N   UNL     1      -0.649  -0.462  -1.997  0.00  0.00    -0.076 N 
ATOM      8  N   UNL     1       0.707  -0.511  -2.351  0.00  0.00    -0.029 NA
ATOM      9  N   UNL     1       0.822  -0.980  -3.543  0.00  0.00    -0.127 NA
ENDROOT
BRANCH   1  10
ATOM     10  S   UNL     1      -4.807  -1.863  -4.892  0.00  0.00    +0.061 S 
ATOM     11  O   UNL     1      -5.516  -0.977  -4.037  0.00  0.00    -0.153 OA
ATOM     12  O   UNL     1      -4.952  -1.836  -6.306  0.00  0.00    -0.153 OA
BRANCH  10  13
ATOM     13  N   UNL     1      -5.191  -3.399  -4.406  0.00  0.00    -0.177 NA
BRANCH  13  15
ATOM     14  C   UNL     1      -7.178  -3.639  -3.000  0.00  0.00    +0.022 C 
ATOM     15  C   UNL     1      -5.648  -3.640  -3.035  0.00  0.00    +0.106 C 
ENDBRANCH  13  15
BRANCH  13  16
ATOM     16  C   UNL     1      -5.074  -4.516  -5.347  0.00  0.00    +0.106 C 
ATOM     17  C   UNL     1      -3.713  -5.192  -5.168  0.00  0.00    +0.022 C 
ENDBRANCH  13  16
ENDBRANCH  10  13
ENDBRANCH   1  10
BRANCH   7  18
ATOM     18  O   UNL     1      -1.189  -0.012  -0.767  0.00  0.00    -0.383 OA
BRANCH  18  19
ATOM     19  C   UNL     1      -0.205   0.421   0.175  0.00  0.00    +0.358 C 
BRANCH  19  20
ATOM     20  C   UNL     1      -0.888   0.876   1.439  0.00  0.00    +0.258 C 
ATOM     21  O   UNL     1      -2.097   0.835   1.525  0.00  0.00    -0.272 OA
ATOM     22  N   UNL     1      -0.154   1.330   2.475  0.00  0.00    -0.282 N 
ATOM     23  H   UNL     1       0.945   1.312   2.420  0.00  0.00    +0.155 HD
BRANCH  22  24
ATOM     24  C   UNL     1      -0.790   1.824   3.619  0.00  0.00    +0.039 A 
ATOM     25  C   UNL     1      -1.764   2.807   3.505  0.00  0.00    -0.029 A 
ATOM     26  C   UNL     1      -2.394   3.288   4.636  0.00  0.00    +0.005 A 
ATOM     27  C   UNL     1      -2.047   2.800   5.883  0.00  0.00    +0.001 A 
ATOM     28  C   UNL     1      -1.073   1.825   6.001  0.00  0.00    +0.005 A 
ATOM     29  C   UNL     1      -0.443   1.336   4.873  0.00  0.00    -0.029 A 
ATOM     30  C   UNL     1       0.618   0.274   5.002  0.00  0.00    +0.045 C 
ATOM     31  C   UNL     1      -2.138   3.343   2.147  0.00  0.00    +0.045 C 
ENDBRANCH  22  24
ENDBRANCH  19  20
ENDBRANCH  18  19
ENDBRANCH   7  18
TORSDOF 8
