REMARK  Name = ZINC04061361
REMARK  8 active torsions:
REMARK  status: ('A' for Active; 'I' for Inactive)
REMARK    1  A    between atoms: C_1  and  C_2
REMARK    2  A    between atoms: C_6  and  N_8
REMARK    3  A    between atoms: C_9  and  C_17
REMARK    4  A    between atoms: C_12  and  S_13
REMARK    5  A    between atoms: S_13  and  C_14
REMARK    6  A    between atoms: C_14  and  C_15
REMARK    7  A    between atoms: C_14  and  C_16
REMARK    8  A    between atoms: C_17  and  C_18
REMARK                            x       y       z     vdW  Elec       q    Type
REMARK                         _______ _______ _______ _____ _____    ______ ____
ROOT
ATOM      1  N   UNL     1       0.100  -2.929   2.174  0.00  0.00    -0.274 N 
ATOM      2  C   UNL     1      -0.936  -3.515   2.850  0.00  0.00    +0.144 A 
ATOM      3  N   UNL     1      -0.510  -3.789   4.051  0.00  0.00    -0.133 NA
ATOM      4  N   UNL     1       0.714  -3.420   4.181  0.00  0.00    -0.122 NA
ATOM      5  C   UNL     1       1.143  -2.891   3.058  0.00  0.00    +0.196 A 
ENDROOT
BRANCH   1  11
ATOM      6  C   UNL     1       0.335   0.812  -1.011  0.00  0.00    +0.044 C 
ATOM      7  C   UNL     1       0.207  -0.661  -0.722  0.00  0.00    -0.048 A 
ATOM      8  C   UNL     1       0.086  -1.562  -1.765  0.00  0.00    +0.003 A 
ATOM      9  C   UNL     1      -0.031  -2.914  -1.504  0.00  0.00    +0.002 A 
ATOM     10  C   UNL     1      -0.027  -3.370  -0.200  0.00  0.00    +0.026 A 
ATOM     11  C   UNL     1       0.095  -2.469   0.849  0.00  0.00    +0.050 A 
ATOM     12  C   UNL     1       0.218  -1.112   0.583  0.00  0.00    +0.029 A 
ENDBRANCH   1  11
BRANCH   5  13
ATOM     13  S   UNL     1       2.755  -2.250   2.751  0.00  0.00    -0.083 S 
BRANCH  13  14
ATOM     14  C   UNL     1       3.634  -2.503   4.317  0.00  0.00    +0.048 C 
ATOM     15  C   UNL     1       5.101  -2.099   4.150  0.00  0.00    +0.019 C 
ATOM     16  C   UNL     1       2.990  -1.646   5.408  0.00  0.00    +0.019 C 
ENDBRANCH  13  14
ENDBRANCH   5  13
BRANCH   2  17
ATOM     17  C   UNL     1      -2.315  -3.792   2.307  0.00  0.00    +0.130 C 
BRANCH  17  18
ATOM     18  C   UNL     1      -3.238  -2.660   2.680  0.00  0.00    +0.033 A 
ATOM     19  C   UNL     1      -3.481  -1.665   1.801  0.00  0.00    +0.091 A 
ATOM     20  C   UNL     1      -4.352  -0.613   2.175  0.00  0.00    +0.254 A 
ATOM     21  O   UNL     1      -4.586   0.296   1.399  0.00  0.00    -0.268 OA
ATOM     22  N   UNL     1      -4.920  -0.628   3.397  0.00  0.00    -0.275 N 
ATOM     23  H   UNL     1      -5.519   0.089   3.660  0.00  0.00    +0.173 HD
ATOM     24  C   UNL     1      -4.661  -1.633   4.254  0.00  0.00    +0.327 A 
ATOM     25  O   UNL     1      -5.181  -1.633   5.353  0.00  0.00    -0.247 OA
ATOM     26  N   UNL     1      -3.839  -2.641   3.909  0.00  0.00    -0.311 N 
ATOM     27  H   UNL     1      -3.668  -3.358   4.539  0.00  0.00    +0.170 HD
ENDBRANCH  17  18
ENDBRANCH   2  17
TORSDOF 5
