REMARK  Name = ZINC64392520
REMARK  8 active torsions:
REMARK  status: ('A' for Active; 'I' for Inactive)
REMARK    1  A    between atoms: C_1  and  O_2
REMARK    2  A    between atoms: O_2  and  C_3
REMARK    3  A    between atoms: C_6  and  C_9
REMARK    4  A    between atoms: C_9  and  N_10
REMARK    5  A    between atoms: C_16  and  C_23
REMARK    6  A    between atoms: C_26  and  C_29
REMARK    7  A    between atoms: C_32  and  S_35
REMARK    8  A    between atoms: S_35  and  C_36
REMARK                            x       y       z     vdW  Elec       q    Type
REMARK                         _______ _______ _______ _____ _____    ______ ____
ROOT
ATOM      1  N   UNL     1       3.923  -2.713  -4.080  0.00  0.00    -0.256 N 
ATOM      2  C   UNL     1       4.817  -1.751  -4.395  0.00  0.00    +0.265 A 
ATOM      3  O   UNL     1       4.459  -0.717  -4.924  0.00  0.00    -0.267 OA
ATOM      4  C   UNL     1       6.237  -1.987  -4.080  0.00  0.00    +0.063 A 
ATOM      5  C   UNL     1       7.219  -1.044  -4.373  0.00  0.00    +0.016 A 
ATOM      6  C   UNL     1       8.535  -1.313  -4.059  0.00  0.00    +0.009 A 
ATOM      7  C   UNL     1       8.881  -2.512  -3.455  0.00  0.00    +0.006 A 
ATOM      8  C   UNL     1       7.917  -3.455  -3.159  0.00  0.00    +0.034 A 
ATOM      9  C   UNL     1       6.589  -3.203  -3.468  0.00  0.00    +0.056 A 
ATOM     10  N   UNL     1       5.590  -4.123  -3.187  0.00  0.00    -0.307 N 
ATOM     11  H   UNL     1       5.818  -4.966  -2.764  0.00  0.00    +0.170 HD
ATOM     12  C   UNL     1       4.308  -3.856  -3.490  0.00  0.00    +0.330 A 
ATOM     13  O   UNL     1       3.462  -4.687  -3.224  0.00  0.00    -0.246 OA
ENDROOT
BRANCH   7  14
ATOM     14  C   UNL     1      10.324  -2.789  -3.119  0.00  0.00    +0.274 C 
ATOM     15  N   UNL     1      11.035  -1.531  -2.860  0.00  0.00    -0.339 N 
ATOM     16  C   UNL     1      11.995  -1.411  -3.727  0.00  0.00    +0.134 C 
ATOM     17  N   UNL     1      12.031  -2.480  -4.587  0.00  0.00    -0.247 N 
ATOM     18  O   UNL     1      10.990  -3.384  -4.242  0.00  0.00    -0.243 OA
ATOM     19  H   UNL     1      12.663  -2.600  -5.312  0.00  0.00    +0.196 HD
ATOM     20  H   UNL     1      10.824  -0.895  -2.159  0.00  0.00    +0.164 HD
BRANCH  16  21
ATOM     21  C   UNL     1      12.930  -0.267  -3.781  0.00  0.00    +0.017 A 
ATOM     22  C   UNL     1      13.267   0.417  -2.610  0.00  0.00    +0.012 A 
ATOM     23  C   UNL     1      14.139   1.481  -2.663  0.00  0.00    +0.015 A 
ATOM     24  C   UNL     1      14.684   1.877  -3.881  0.00  0.00    +0.008 A 
ATOM     25  C   UNL     1      14.349   1.197  -5.049  0.00  0.00    +0.015 A 
ATOM     26  C   UNL     1      13.482   0.129  -5.001  0.00  0.00    +0.012 A 
BRANCH  24  27
ATOM     27  S   UNL     1      15.798   3.240  -3.946  0.00  0.00    -0.129 S 
ATOM     28  C   UNL     1      16.230   3.372  -5.703  0.00  0.00    +0.090 C 
ENDBRANCH  24  27
ENDBRANCH  16  21
ENDBRANCH   7  14
BRANCH   1  29
ATOM     29  C   UNL     1       2.505  -2.503  -4.381  0.00  0.00    +0.165 C 
BRANCH  29  33
ATOM     30  C   UNL     1       0.606  -0.607  -1.056  0.00  0.00    +0.120 A 
ATOM     31  C   UNL     1       1.173   0.161  -2.062  0.00  0.00    +0.046 A 
ATOM     32  C   UNL     1       1.786  -0.455  -3.136  0.00  0.00    +0.009 A 
ATOM     33  C   UNL     1       1.835  -1.835  -3.209  0.00  0.00    -0.027 A 
ATOM     34  C   UNL     1       1.270  -2.602  -2.207  0.00  0.00    +0.009 A 
ATOM     35  C   UNL     1       0.661  -1.992  -1.128  0.00  0.00    +0.046 A 
BRANCH  30  37
ATOM     36  C   UNL     1      -0.017   1.425   0.010  0.00  0.00    +0.277 C 
ATOM     37  O   UNL     1       0.002  -0.004   0.002  0.00  0.00    -0.495 OA
ENDBRANCH  30  37
ENDBRANCH  29  33
ENDBRANCH   1  29
TORSDOF 6
