REMARK  Name = ZINC39946301
REMARK  6 active torsions:
REMARK  status: ('A' for Active; 'I' for Inactive)
REMARK    1  A    between atoms: C_1  and  C_2
REMARK    2  A    between atoms: N_6  and  N_23
REMARK    3  A    between atoms: C_7  and  S_10
REMARK    4  A    between atoms: S_10  and  C_11
REMARK    5  A    between atoms: C_11  and  C_12
REMARK    6  A    between atoms: C_12  and  C_14
REMARK                            x       y       z     vdW  Elec       q    Type
REMARK                         _______ _______ _______ _____ _____    ______ ____
ROOT
ATOM      1  S   UNL     1      -2.183  -0.650   3.930  0.00  0.00    -0.079 S 
ENDROOT
BRANCH   1   7
ATOM      2  C   UNL     1      -0.019   1.526   0.010  0.00  0.00    +0.039 C 
ATOM      3  C   UNL     1       0.002  -0.004   0.002  0.00  0.00    +0.174 C 
ATOM      4  C   UNL     1      -1.412  -0.534   0.030  0.00  0.00    +0.257 C 
ATOM      5  O   UNL     1      -2.024  -0.700  -1.004  0.00  0.00    -0.272 OA
ATOM      6  N   UNL     1      -1.989  -0.821   1.214  0.00  0.00    -0.181 N 
ATOM      7  C   UNL     1      -1.297  -0.654   2.407  0.00  0.00    +0.194 C 
ATOM      8  N   UNL     1      -0.007  -0.502   2.418  0.00  0.00    -0.162 NA
ATOM      9  N   UNL     1       0.698  -0.499   1.200  0.00  0.00    -0.255 N 
ATOM     10  H   UNL     1       1.614  -0.813   1.152  0.00  0.00    +0.169 HD
BRANCH   6  11
ATOM     11  N   UNL     1      -3.275  -1.282   1.241  0.00  0.00    -0.245 NA
ATOM     12  H   UNL     1      -3.577  -1.454   2.188  0.00  0.00    +0.141 HD
ATOM     13  H   UNL     1      -3.899  -0.641   0.774  0.00  0.00    +0.141 HD
ENDBRANCH   6  11
ENDBRANCH   1   7
BRANCH   1  14
ATOM     14  C   UNL     1      -0.897  -0.409   5.186  0.00  0.00    +0.156 C 
BRANCH  14  15
ATOM     15  C   UNL     1      -1.528  -0.386   6.554  0.00  0.00    +0.172 C 
ATOM     16  O   UNL     1      -2.729  -0.519   6.670  0.00  0.00    -0.291 OA
BRANCH  15  17
ATOM     17  C   UNL     1      -0.723  -0.210   7.699  0.00  0.00    +0.024 C 
ATOM     18  C   UNL     1      -1.141  -0.171   9.017  0.00  0.00    +0.006 A 
ATOM     19  C   UNL     1      -2.413  -0.283   9.627  0.00  0.00    +0.010 A 
ATOM     20  C   UNL     1      -2.533  -0.206  10.972  0.00  0.00    +0.001 A 
ATOM     21  C   UNL     1      -1.429  -0.014  11.817  0.00  0.00    +0.002 A 
ATOM     22  C   UNL     1      -0.172   0.106  11.336  0.00  0.00    +0.026 A 
ATOM     23  C   UNL     1       0.047   0.033   9.882  0.00  0.00    +0.043 A 
ATOM     24  N   UNL     1       1.128   0.115   9.160  0.00  0.00    -0.380 N 
ATOM     25  C   UNL     1       0.778  -0.031   7.744  0.00  0.00    +0.152 C 
ATOM     26  H   UNL     1       2.025   0.247   9.506  0.00  0.00    +0.160 HD
ENDBRANCH  15  17
ENDBRANCH  14  15
ENDBRANCH   1  14
TORSDOF 5
