REMARK  Name = ZINC04802132
REMARK  6 active torsions:
REMARK  status: ('A' for Active; 'I' for Inactive)
REMARK    1  A    between atoms: C_1  and  C_2
REMARK    2  A    between atoms: C_4  and  N_22
REMARK    3  A    between atoms: C_7  and  N_8
REMARK    4  A    between atoms: C_9  and  C_11
REMARK    5  A    between atoms: C_11  and  O_12
REMARK    6  A    between atoms: O_12  and  C_13
REMARK                            x       y       z     vdW  Elec       q    Type
REMARK                         _______ _______ _______ _____ _____    ______ ____
ROOT
ATOM      1  N   UNL     1       3.909  -2.193  -0.049  0.00  0.00    -0.282 N 
ATOM      2  C   UNL     1       3.712  -0.860  -0.043  0.00  0.00    +0.255 C 
ATOM      3  O   UNL     1       4.663  -0.107  -0.041  0.00  0.00    -0.272 OA
ATOM      4  H   UNL     1       3.152  -2.795   0.030  0.00  0.00    +0.155 HD
ENDROOT
BRANCH   1  11
ATOM      5  C   UNL     1       4.418  -4.799   0.974  0.00  0.00    +0.046 C 
ATOM      6  C   UNL     1       5.496  -3.977   0.316  0.00  0.00    -0.027 A 
ATOM      7  C   UNL     1       6.775  -4.484   0.195  0.00  0.00    +0.039 A 
ATOM      8  C   UNL     1       7.765  -3.731  -0.409  0.00  0.00    +0.145 A 
ATOM      9  C   UNL     1       7.478  -2.467  -0.894  0.00  0.00    +0.073 A 
ATOM     10  C   UNL     1       6.198  -1.957  -0.782  0.00  0.00    +0.045 A 
ATOM     11  C   UNL     1       5.204  -2.709  -0.170  0.00  0.00    +0.038 A 
ATOM     12 CL   UNL     1       8.723  -1.524  -1.652  0.00  0.00    -0.081 Cl
BRANCH   8  13
ATOM     13  N   UNL     1       9.135  -4.277  -0.536  0.00  0.00    +0.058 N 
ATOM     14  O   UNL     1       9.389  -5.389  -0.109  0.00  0.00    -0.126 OA
ATOM     15  O   UNL     1      10.008  -3.614  -1.067  0.00  0.00    -0.126 OA
ENDBRANCH   8  13
ENDBRANCH   1  11
BRANCH   2  16
ATOM     16  C   UNL     1       2.312  -0.305  -0.038  0.00  0.00    +0.325 C 
BRANCH  16  17
ATOM     17  O   UNL     1       2.365   1.123  -0.031  0.00  0.00    -0.481 OA
BRANCH  17  18
ATOM     18  C   UNL     1       1.178   1.785  -0.026  0.00  0.00    +0.140 A 
ATOM     19  C   UNL     1      -0.013   1.075  -0.027  0.00  0.00    +0.048 A 
ATOM     20  C   UNL     1      -1.219   1.750  -0.028  0.00  0.00    +0.023 A 
ATOM     21  C   UNL     1      -1.239   3.133  -0.017  0.00  0.00    +0.043 A 
ATOM     22  C   UNL     1      -0.053   3.844  -0.016  0.00  0.00    +0.043 A 
ATOM     23  C   UNL     1       1.156   3.173  -0.020  0.00  0.00    +0.084 A 
ATOM     24 CL   UNL     1       2.645   4.066  -0.018  0.00  0.00    -0.080 Cl
ATOM     25 CL   UNL     1      -2.756   3.978  -0.011  0.00  0.00    -0.083 Cl
ENDBRANCH  17  18
ENDBRANCH  16  17
ENDBRANCH   2  16
TORSDOF 5
