REMARK  Name = ZINC03430365
REMARK  8 active torsions:
REMARK  status: ('A' for Active; 'I' for Inactive)
REMARK    1  A    between atoms: C_1  and  C_2
REMARK    2  A    between atoms: C_5  and  C_30
REMARK    3  A    between atoms: C_6  and  N_8
REMARK    4  A    between atoms: C_9  and  C_23
REMARK    5  A    between atoms: C_12  and  S_13
REMARK    6  A    between atoms: S_13  and  C_14
REMARK    7  A    between atoms: C_14  and  C_16
REMARK    8  A    between atoms: C_14  and  C_17
REMARK                            x       y       z     vdW  Elec       q    Type
REMARK                         _______ _______ _______ _____ _____    ______ ____
ROOT
ATOM      1  N   UNL     1      -3.754   1.515  -0.253  0.00  0.00    -0.270 N 
ATOM      2  C   UNL     1      -2.502   1.007   0.019  0.00  0.00    +0.169 A 
ATOM      3  N   UNL     1      -2.655  -0.269   0.287  0.00  0.00    -0.128 NA
ATOM      4  N   UNL     1      -3.895  -0.592   0.196  0.00  0.00    -0.122 NA
ATOM      5  C   UNL     1      -4.614   0.458  -0.135  0.00  0.00    +0.197 A 
ENDROOT
BRANCH   1  11
ATOM      6  C   UNL     1      -4.421   4.976  -3.684  0.00  0.00    +0.044 C 
ATOM      7  C   UNL     1      -4.409   4.541  -2.241  0.00  0.00    -0.048 A 
ATOM      8  C   UNL     1      -4.718   5.448  -1.244  0.00  0.00    +0.004 A 
ATOM      9  C   UNL     1      -4.707   5.053   0.081  0.00  0.00    +0.005 A 
ATOM     10  C   UNL     1      -4.394   3.749   0.412  0.00  0.00    -0.026 A 
ATOM     11  C   UNL     1      -4.078   2.838  -0.586  0.00  0.00    +0.054 A 
ATOM     12  C   UNL     1      -4.089   3.238  -1.916  0.00  0.00    +0.030 A 
ATOM     13  C   UNL     1      -4.389   3.317   1.856  0.00  0.00    +0.046 C 
ENDBRANCH   1  11
BRANCH   2  14
ATOM     14  C   UNL     1      -1.230   1.759   0.017  0.00  0.00    +0.021 A 
ATOM     15  C   UNL     1      -1.240   3.155   0.030  0.00  0.00    +0.012 A 
ATOM     16  C   UNL     1      -0.049   3.851   0.023  0.00  0.00    +0.002 A 
ATOM     17  C   UNL     1       1.155   3.169   0.008  0.00  0.00    +0.020 A 
ATOM     18  C   UNL     1       1.173   1.784   0.000  0.00  0.00    +0.042 A 
ATOM     19  C   UNL     1      -0.013   1.076   0.008  0.00  0.00    +0.031 A 
ATOM     20 CL   UNL     1       2.688   0.937  -0.019  0.00  0.00    -0.084 Cl
ENDBRANCH   2  14
BRANCH   5  21
ATOM     21  S   UNL     1      -6.359   0.497  -0.373  0.00  0.00    -0.073 S 
BRANCH  21  22
ATOM     22  C   UNL     1      -6.761  -1.235  -0.036  0.00  0.00    +0.137 C 
ATOM     23  C   UNL     1      -6.452  -1.556   1.427  0.00  0.00    +0.029 C 
BRANCH  22  24
ATOM     24  C   UNL     1      -8.226  -1.472  -0.304  0.00  0.00    +0.233 C 
ATOM     25  O   UNL     1      -8.996  -0.536  -0.327  0.00  0.00    -0.274 OA
ATOM     26  N   UNL     1      -8.678  -2.723  -0.517  0.00  0.00    -0.239 N 
ATOM     27  C   UNL     1      -9.987  -2.935  -0.756  0.00  0.00    +0.303 C 
ATOM     28  O   UNL     1     -10.760  -1.997  -0.780  0.00  0.00    -0.253 OA
ATOM     29  N   UNL     1     -10.440  -4.186  -0.970  0.00  0.00    -0.313 N 
ATOM     30  H   UNL     1      -8.061  -3.472  -0.499  0.00  0.00    +0.159 HD
ATOM     31  H   UNL     1      -9.823  -4.935  -0.951  0.00  0.00    +0.146 HD
ATOM     32  H   UNL     1     -11.382  -4.338  -1.142  0.00  0.00    +0.146 HD
ENDBRANCH  22  24
ENDBRANCH  21  22
ENDBRANCH   5  21
TORSDOF 5
