REMARK  Name = ZINC00175952
REMARK  8 active torsions:
REMARK  status: ('A' for Active; 'I' for Inactive)
REMARK    1  A    between atoms: C_1  and  C_2
REMARK    2  A    between atoms: C_3  and  C_18
REMARK    3  A    between atoms: C_4  and  C_11
REMARK    4  A    between atoms: N_9  and  C_10
REMARK    5  A    between atoms: C_18  and  O_20
REMARK    6  A    between atoms: O_20  and  C_21
REMARK    7  A    between atoms: C_21  and  C_22
REMARK    8  A    between atoms: C_21  and  C_23
REMARK                            x       y       z     vdW  Elec       q    Type
REMARK                         _______ _______ _______ _____ _____    ______ ____
ROOT
ATOM      1  C   UNL     1      -0.239   3.850   0.379  0.00  0.00    +0.061 C 
ATOM      2  C   UNL     1      -0.813   2.906   1.403  0.00  0.00    +0.024 C 
ATOM      3  C   UNL     1      -1.438   3.406   2.491  0.00  0.00    +0.078 C 
ATOM      4  C   UNL     1      -1.997   2.421   3.498  0.00  0.00    +0.143 C 
ATOM      5  N   UNL     1      -1.816   0.990   3.203  0.00  0.00    -0.288 N 
ATOM      6  C   UNL     1      -1.173   0.645   2.070  0.00  0.00    +0.307 C 
ATOM      7  O   UNL     1      -1.018  -0.534   1.817  0.00  0.00    -0.252 OA
ATOM      8  N   UNL     1      -0.698   1.558   1.213  0.00  0.00    -0.262 N 
ATOM      9  C   UNL     1      -0.013   1.086   0.008  0.00  0.00    +0.139 C 
ATOM     10  H   UNL     1      -2.152   0.311   3.809  0.00  0.00    +0.151 HD
ENDROOT
BRANCH   4  11
ATOM     11  C   UNL     1      -1.355   2.705   4.831  0.00  0.00    -0.022 A 
ATOM     12  C   UNL     1      -0.153   2.107   5.161  0.00  0.00    +0.007 A 
ATOM     13  C   UNL     1       0.439   2.372   6.381  0.00  0.00    +0.020 A 
ATOM     14  C   UNL     1      -0.177   3.226   7.278  0.00  0.00    +0.041 A 
ATOM     15  C   UNL     1      -1.383   3.820   6.950  0.00  0.00    +0.020 A 
ATOM     16  C   UNL     1      -1.971   3.559   5.727  0.00  0.00    +0.007 A 
ATOM     17 CL   UNL     1       0.563   3.554   8.814  0.00  0.00    -0.084 Cl
ENDBRANCH   4  11
BRANCH   3  18
ATOM     18  C   UNL     1      -1.562   4.801   2.687  0.00  0.00    +0.339 C 
ATOM     19  O   UNL     1      -1.105   5.574   1.865  0.00  0.00    -0.245 OA
BRANCH  18  20
ATOM     20  O   UNL     1      -2.187   5.276   3.784  0.00  0.00    -0.459 OA
BRANCH  20  21
ATOM     21  C   UNL     1      -2.276   6.696   3.917  0.00  0.00    +0.171 C 
ATOM     22  C   UNL     1      -3.563   7.190   3.256  0.00  0.00    +0.052 C 
ATOM     23  C   UNL     1      -2.288   7.069   5.401  0.00  0.00    +0.052 C 
ENDBRANCH  20  21
ENDBRANCH  18  20
ENDBRANCH   3  18
TORSDOF 4
