REMARK  Name = ZINC19656921
REMARK  4 active torsions:
REMARK  status: ('A' for Active; 'I' for Inactive)
REMARK    1  A    between atoms: C_1  and  C_2
REMARK    2  A    between atoms: C_13  and  C_16
REMARK    3  A    between atoms: C_16  and  N_17
REMARK    4  A    between atoms: C_21  and  C_22
REMARK                            x       y       z     vdW  Elec       q    Type
REMARK                         _______ _______ _______ _____ _____    ______ ____
ROOT
ATOM      1  C   UNL     1      -6.184   1.017  -4.011  0.00  0.00    +0.066 C 
ATOM      2  C   UNL     1      -4.749   1.403  -3.759  0.00  0.00    +0.045 A 
ATOM      3  C   UNL     1      -4.129   1.050  -2.576  0.00  0.00    +0.066 A 
ATOM      4  C   UNL     1      -2.800   1.433  -2.381  0.00  0.00    +0.127 A 
ATOM      5  N   UNL     1      -2.179   2.116  -3.337  0.00  0.00    -0.200 NA
ATOM      6  C   UNL     1      -2.808   2.430  -4.459  0.00  0.00    +0.214 A 
ATOM      7  N   UNL     1      -4.069   2.085  -4.669  0.00  0.00    -0.220 NA
ATOM      8  N   UNL     1      -2.130   3.137  -5.437  0.00  0.00    -0.327 N 
ATOM      9  N   UNL     1      -2.139   1.106  -1.208  0.00  0.00    -0.315 N 
ATOM     10  C   UNL     1      -2.865   1.612  -0.036  0.00  0.00    +0.106 C 
ATOM     11  C   UNL     1      -2.188   1.110   1.241  0.00  0.00    +0.019 C 
ATOM     12  C   UNL     1      -0.736   1.595   1.268  0.00  0.00    +0.008 C 
ATOM     13  C   UNL     1      -0.016   1.095   0.013  0.00  0.00    +0.026 C 
ATOM     14  C   UNL     1      -0.756   1.597  -1.229  0.00  0.00    +0.111 C 
ATOM     15  H   UNL     1      -2.639   3.405  -6.375  0.00  0.00    +0.145 HD
ATOM     16  H   UNL     1      -1.082   3.431  -5.277  0.00  0.00    +0.145 HD
ENDROOT
BRANCH  13  17
ATOM     17  C   UNL     1       1.419   1.624   0.002  0.00  0.00    +0.128 C 
BRANCH  17  18
ATOM     18  N   UNL     1       2.161   1.048   1.126  0.00  0.00    -0.334 N 
ATOM     19  C   UNL     1       2.344   1.621   2.356  0.00  0.00    +0.107 A 
ATOM     20  C   UNL     1       3.080   0.757   3.082  0.00  0.00    +0.130 A 
ATOM     21  N   UNL     1       3.339  -0.313   2.316  0.00  0.00    -0.241 NA
ATOM     22  C   UNL     1       2.787  -0.148   1.145  0.00  0.00    +0.107 A 
ATOM     23  C   UNL     1       2.841  -1.129   0.003  0.00  0.00    +0.086 C 
ENDBRANCH  17  18
ENDBRANCH  13  17
TORSDOF 2
