REMARK  Name = ZINC09038499
REMARK  9 active torsions:
REMARK  status: ('A' for Active; 'I' for Inactive)
REMARK    1  A    between atoms: C_1  and  C_2
REMARK    2  A    between atoms: C_4  and  N_18
REMARK    3  A    between atoms: C_13  and  C_15
REMARK    4  A    between atoms: C_15  and  C_16
REMARK    5  A    between atoms: C_15  and  C_17
REMARK    6  A    between atoms: C_19  and  C_21
REMARK    7  A    between atoms: N_23  and  C_24
REMARK    8  A    between atoms: C_24  and  C_26
REMARK    9  A    between atoms: C_24  and  C_27
REMARK                            x       y       z     vdW  Elec       q    Type
REMARK                         _______ _______ _______ _____ _____    ______ ____
ROOT
ATOM      1  C   UNL     1       0.689  -7.584   0.529  0.00  0.00    +0.067 C 
ATOM      2  C   UNL     1       1.442  -6.355   0.968  0.00  0.00    +0.062 A 
ATOM      3  C   UNL     1       1.038  -5.032   0.759  0.00  0.00    +0.068 A 
ATOM      4  C   UNL     1       1.986  -4.216   1.297  0.00  0.00    +0.132 A 
ATOM      5  N   UNL     1       2.953  -5.014   1.836  0.00  0.00    -0.185 N 
ATOM      6  N   UNL     1       2.581  -6.346   1.611  0.00  0.00    -0.167 NA
ATOM      7  C   UNL     1       4.095  -4.586   2.487  0.00  0.00    +0.234 A 
ATOM      8  N   UNL     1       5.019  -5.500   2.885  0.00  0.00    -0.291 N 
ATOM      9  H   UNL     1       4.876  -6.443   2.712  0.00  0.00    +0.172 HD
ATOM     10  C   UNL     1       6.140  -5.089   3.516  0.00  0.00    +0.253 A 
ATOM     11  O   UNL     1       6.982  -5.895   3.876  0.00  0.00    -0.268 OA
ATOM     12  C   UNL     1       6.314  -3.713   3.756  0.00  0.00    +0.093 A 
ATOM     13  C   UNL     1       5.349  -2.845   3.339  0.00  0.00    +0.053 A 
ATOM     14  N   UNL     1       4.265  -3.302   2.715  0.00  0.00    -0.217 NA
ENDROOT
BRANCH   4  15
ATOM     15  N   UNL     1       1.968  -2.826   1.302  0.00  0.00    -0.262 N 
ATOM     16  C   UNL     1       1.010  -2.161   0.626  0.00  0.00    +0.304 C 
ATOM     17  O   UNL     1       0.162  -2.777   0.013  0.00  0.00    -0.265 OA
ATOM     18  H   UNL     1       2.646  -2.334   1.792  0.00  0.00    +0.157 HD
BRANCH  16  19
ATOM     19  C   UNL     1       0.992  -0.668   0.631  0.00  0.00    +0.300 C 
ATOM     20  O   UNL     1       1.839  -0.053   1.244  0.00  0.00    -0.265 OA
ATOM     21  N   UNL     1       0.034  -0.004  -0.045  0.00  0.00    -0.301 N 
ATOM     22  H   UNL     1      -0.644  -0.496  -0.535  0.00  0.00    +0.150 HD
BRANCH  21  23
ATOM     23  C   UNL     1       0.015   1.461  -0.040  0.00  0.00    +0.101 C 
ATOM     24  C   UNL     1      -0.724   1.958   1.204  0.00  0.00    +0.033 C 
BRANCH  23  25
ATOM     25  C   UNL     1      -0.690   1.959  -1.275  0.00  0.00    -0.027 A 
ATOM     26  C   UNL     1      -1.820   1.309  -1.736  0.00  0.00    +0.005 A 
ATOM     27  C   UNL     1      -2.469   1.768  -2.866  0.00  0.00    +0.000 A 
ATOM     28  C   UNL     1      -1.983   2.872  -3.542  0.00  0.00    +0.000 A 
ATOM     29  C   UNL     1      -0.851   3.519  -3.084  0.00  0.00    +0.000 A 
ATOM     30  C   UNL     1      -0.204   3.062  -1.951  0.00  0.00    +0.005 A 
ENDBRANCH  23  25
ENDBRANCH  21  23
ENDBRANCH  16  19
ENDBRANCH   4  15
BRANCH  13  31
ATOM     31  C   UNL     1       5.510  -1.366   3.583  0.00  0.00    +0.032 C 
ATOM     32  C   UNL     1       5.513  -0.625   2.245  0.00  0.00    +0.014 C 
ATOM     33  C   UNL     1       4.349  -0.862   4.443  0.00  0.00    +0.014 C 
ENDBRANCH  13  31
TORSDOF 5
