REMARK  Name = ZINC58161787
REMARK  5 active torsions:
REMARK  status: ('A' for Active; 'I' for Inactive)
REMARK    1  A    between atoms: C_1  and  N_2
REMARK    2  A    between atoms: C_3  and  C_5
REMARK    3  A    between atoms: C_8  and  C_10
REMARK    4  A    between atoms: C_11  and  C_12
REMARK    5  A    between atoms: C_15  and  N_18
REMARK                            x       y       z     vdW  Elec       q    Type
REMARK                         _______ _______ _______ _____ _____    ______ ____
ROOT
ATOM      1  C   UNL     1      -0.214  -6.187  -0.027  0.00  0.00    +0.035 C 
ATOM      2  C   UNL     1      -1.099  -7.202  -0.029  0.00  0.00    +0.010 C 
ENDROOT
BRANCH   2   3
ATOM      3  C   UNL     1      -0.622  -8.595  -0.040  0.00  0.00    -0.025 A 
ATOM      4  C   UNL     1       0.750  -8.868  -0.041  0.00  0.00    +0.010 A 
ATOM      5  C   UNL     1       1.189 -10.175  -0.051  0.00  0.00    +0.033 A 
ATOM      6  C   UNL     1       0.276 -11.215  -0.060  0.00  0.00    +0.126 A 
ATOM      7  C   UNL     1      -1.083 -10.953  -0.059  0.00  0.00    +0.033 A 
ATOM      8  C   UNL     1      -1.538  -9.652  -0.042  0.00  0.00    +0.010 A 
BRANCH   6   9
ATOM      9  N   UNL     1       0.756 -12.616  -0.071  0.00  0.00    +0.056 N 
ATOM     10  O   UNL     1       1.942 -12.848  -0.072  0.00  0.00    -0.126 OA
ATOM     11  O   UNL     1      -0.038 -13.527  -0.078  0.00  0.00    -0.126 OA
ENDBRANCH   6   9
ENDBRANCH   2   3
BRANCH   1  15
ATOM     12  C   UNL     1      -1.136  -2.159   0.001  0.00  0.00    +0.094 A 
ATOM     13  C   UNL     1      -2.193  -3.062   0.001  0.00  0.00    +0.132 A 
ATOM     14  N   UNL     1      -1.939  -4.339  -0.008  0.00  0.00    -0.247 NA
ATOM     15  C   UNL     1      -0.689  -4.801  -0.016  0.00  0.00    +0.102 A 
ATOM     16  S   UNL     1       0.255  -3.283  -0.019  0.00  0.00    -0.063 S 
BRANCH  12  19
ATOM     17  C   UNL     1      -0.018   1.461   0.010  0.00  0.00    +0.128 C 
ATOM     18  N   UNL     1       0.002  -0.004   0.002  0.00  0.00    -0.314 N 
ATOM     19  C   UNL     1      -1.156  -0.694   0.009  0.00  0.00    +0.252 C 
ATOM     20  O   UNL     1      -2.218  -0.100   0.023  0.00  0.00    -0.270 OA
ATOM     21  H   UNL     1       0.849  -0.478  -0.009  0.00  0.00    +0.149 HD
ENDBRANCH  12  19
ENDBRANCH   1  15
TORSDOF 4
