REMARK  Name = ZINC66442024
REMARK  7 active torsions:
REMARK  status: ('A' for Active; 'I' for Inactive)
REMARK    1  A    between atoms: C_1  and  C_2
REMARK    2  A    between atoms: C_5  and  N_11
REMARK    3  A    between atoms: C_7  and  C_8
REMARK    4  A    between atoms: C_12  and  C_14
REMARK    5  A    between atoms: C_16  and  N_22
REMARK    6  A    between atoms: C_19  and  O_20
REMARK    7  A    between atoms: O_20  and  C_21
REMARK                            x       y       z     vdW  Elec       q    Type
REMARK                         _______ _______ _______ _____ _____    ______ ____
ROOT
ATOM      1  N   UNL     1       0.164  -4.349   0.203  0.00  0.00    -0.281 N 
ATOM      2  C   UNL     1       0.243  -5.152  -0.876  0.00  0.00    +0.252 C 
ATOM      3  O   UNL     1       0.173  -4.678  -1.994  0.00  0.00    -0.270 OA
ATOM      4  H   UNL     1       0.146  -4.733   1.093  0.00  0.00    +0.155 HD
ENDROOT
BRANCH   1   9
ATOM      5  C   UNL     1      -0.044   1.293  -0.440  0.00  0.00    +0.044 C 
ATOM      6  C   UNL     1       0.009  -0.203  -0.273  0.00  0.00    -0.038 A 
ATOM      7  C   UNL     1       0.682  -0.754   0.800  0.00  0.00    +0.006 A 
ATOM      8  C   UNL     1       0.733  -2.126   0.958  0.00  0.00    +0.023 A 
ATOM      9  C   UNL     1       0.108  -2.961   0.038  0.00  0.00    +0.034 A 
ATOM     10  C   UNL     1      -0.569  -2.417  -1.042  0.00  0.00    +0.036 A 
ATOM     11  C   UNL     1      -0.626  -1.032  -1.198  0.00  0.00    +0.041 A 
BRANCH  11  12
ATOM     12  C   UNL     1      -1.352  -0.445  -2.345  0.00  0.00    +0.242 C 
ATOM     13  O   UNL     1      -1.344   0.759  -2.517  0.00  0.00    -0.270 OA
ATOM     14  N   UNL     1      -2.022  -1.243  -3.199  0.00  0.00    -0.325 N 
ATOM     15  H   UNL     1      -2.028  -2.203  -3.062  0.00  0.00    +0.145 HD
ATOM     16  H   UNL     1      -2.498  -0.857  -3.951  0.00  0.00    +0.145 HD
ENDBRANCH  11  12
ENDBRANCH   1   9
BRANCH   2  17
ATOM     17  C   UNL     1       0.413  -6.607  -0.702  0.00  0.00    +0.081 A 
ATOM     18  C   UNL     1       0.488  -7.157   0.581  0.00  0.00    +0.049 A 
ATOM     19  C   UNL     1       0.647  -8.517   0.737  0.00  0.00    +0.127 A 
ATOM     20  C   UNL     1       0.734  -9.342  -0.372  0.00  0.00    +0.036 A 
ATOM     21  C   UNL     1       0.662  -8.812  -1.645  0.00  0.00    +0.048 A 
ATOM     22  C   UNL     1       0.496  -7.447  -1.821  0.00  0.00    +0.132 A 
BRANCH  19  23
ATOM     23  N   UNL     1       0.727  -9.098   2.096  0.00  0.00    +0.056 N 
ATOM     24  O   UNL     1       0.652  -8.379   3.066  0.00  0.00    -0.126 OA
ATOM     25  O   UNL     1       0.866 -10.290   2.236  0.00  0.00    -0.126 OA
ENDBRANCH  19  23
BRANCH  22  26
ATOM     26  O   UNL     1       0.418  -6.925  -3.071  0.00  0.00    -0.494 OA
ATOM     27  C   UNL     1       0.510  -7.842  -4.163  0.00  0.00    +0.277 C 
ENDBRANCH  22  26
ENDBRANCH   2  17
TORSDOF 5
