REMARK  Name = ZINC44250178
REMARK  8 active torsions:
REMARK  status: ('A' for Active; 'I' for Inactive)
REMARK    1  A    between atoms: C_1  and  C_2
REMARK    2  A    between atoms: C_3  and  C_20
REMARK    3  A    between atoms: C_4  and  C_12
REMARK    4  A    between atoms: C_6  and  C_10
REMARK    5  A    between atoms: C_10  and  N_11
REMARK    6  A    between atoms: C_15  and  O_18
REMARK    7  A    between atoms: O_18  and  C_19
REMARK    8  A    between atoms: C_20  and  C_22
REMARK                            x       y       z     vdW  Elec       q    Type
REMARK                         _______ _______ _______ _____ _____    ______ ____
ROOT
ATOM      1  C   UNL     1      -0.737   1.520  -0.552  0.00  0.00    +0.086 C 
ATOM      2  C   UNL     1      -0.417   0.069  -0.298  0.00  0.00    +0.111 C 
ATOM      3  C   UNL     1      -1.429  -0.804  -0.214  0.00  0.00    +0.040 C 
ATOM      4  C   UNL     1      -1.220  -2.276   0.011  0.00  0.00    +0.066 C 
ATOM      5  C   UNL     1       0.177  -2.513   0.598  0.00  0.00    +0.069 C 
ATOM      6  C   UNL     1       1.145  -1.623  -0.157  0.00  0.00    +0.191 C 
ATOM      7  O   UNL     1       0.873  -0.293  -0.172  0.00  0.00    -0.446 OA
ATOM      8  N   UNL     1       2.178  -2.106  -0.759  0.00  0.00    -0.270 NA
ATOM      9  H   UNL     1       2.351  -3.060  -0.736  0.00  0.00    +0.190 HD
ENDROOT
BRANCH   4  10
ATOM     10  C   UNL     1      -2.262  -2.791   0.971  0.00  0.00    -0.039 A 
ATOM     11  C   UNL     1      -2.836  -4.032   0.767  0.00  0.00    +0.008 A 
ATOM     12  C   UNL     1      -3.791  -4.506   1.645  0.00  0.00    +0.046 A 
ATOM     13  C   UNL     1      -4.174  -3.735   2.733  0.00  0.00    +0.120 A 
ATOM     14  C   UNL     1      -3.596  -2.490   2.936  0.00  0.00    +0.046 A 
ATOM     15  C   UNL     1      -2.638  -2.023   2.058  0.00  0.00    +0.008 A 
BRANCH  13  16
ATOM     16  O   UNL     1      -5.114  -4.198   3.599  0.00  0.00    -0.495 OA
ATOM     17  C   UNL     1      -5.459  -3.351   4.696  0.00  0.00    +0.277 C 
ENDBRANCH  13  16
ENDBRANCH   4  10
BRANCH   3  18
ATOM     18  C   UNL     1      -2.746  -0.323  -0.340  0.00  0.00    +0.160 C 
ATOM     19  O   UNL     1      -2.951   0.872  -0.411  0.00  0.00    -0.293 OA
ATOM     20  C   UNL     1      -3.901  -1.290  -0.385  0.00  0.00    +0.091 C 
ENDBRANCH   3  18
BRANCH   5  21
ATOM     21  C   UNL     1       0.184  -2.146   2.084  0.00  0.00    -0.073 C 
BRANCH  21  22
ATOM     22  N   UNL     1       1.506  -2.440   2.654  0.00  0.00    +0.379 N 
ATOM     23  H   UNL     1       1.706  -3.424   2.549  0.00  0.00    -0.090 HD
ATOM     24  H   UNL     1       2.208  -1.901   2.171  0.00  0.00    -0.090 HD
ATOM     25  H   UNL     1       1.511  -2.199   3.633  0.00  0.00    -0.090 HD
ENDBRANCH  21  22
ENDBRANCH   5  21
TORSDOF 5
