REMARK  Name = ZINC33450939
REMARK  7 active torsions:
REMARK  status: ('A' for Active; 'I' for Inactive)
REMARK    1  A    between atoms: C_8  and  N_26
REMARK    2  A    between atoms: C_9  and  C_12
REMARK    3  A    between atoms: N_16  and  C_20
REMARK    4  A    between atoms: C_20  and  C_21
REMARK    5  A    between atoms: C_21  and  C_22
REMARK    6  A    between atoms: C_22  and  C_23
REMARK    7  A    between atoms: C_29  and  C_32
REMARK                            x       y       z     vdW  Elec       q    Type
REMARK                         _______ _______ _______ _____ _____    ______ ____
ROOT
ATOM      1  C   UNL     1      -0.149   0.414   7.463  0.00  0.00    +0.005 A 
ATOM      2  C   UNL     1      -0.053   1.278   6.364  0.00  0.00    +0.018 A 
ATOM      3  C   UNL     1       0.085   0.776   5.116  0.00  0.00    +0.096 A 
ATOM      4  N   UNL     1       0.135  -0.570   4.908  0.00  0.00    -0.268 N 
ATOM      5  C   UNL     1       0.044  -1.438   5.960  0.00  0.00    +0.142 A 
ATOM      6  C   UNL     1      -0.101  -0.934   7.265  0.00  0.00    +0.047 A 
ATOM      7  N   UNL     1       0.090  -2.758   5.776  0.00  0.00    -0.214 NA
ATOM      8  C   UNL     1       0.222  -3.288   4.568  0.00  0.00    +0.136 A 
ATOM      9  C   UNL     1       0.326  -2.438   3.442  0.00  0.00    +0.081 A 
ATOM     10  C   UNL     1       0.275  -1.039   3.649  0.00  0.00    +0.267 A 
ATOM     11  O   UNL     1       0.356  -0.270   2.707  0.00  0.00    -0.267 OA
ENDROOT
BRANCH   9  12
ATOM     12  C   UNL     1       0.470  -2.974   2.141  0.00  0.00    +0.037 C 
ATOM     13  C   UNL     1      -0.524  -2.810   1.221  0.00  0.00    +0.077 C 
ATOM     14  C   UNL     1      -1.804  -2.202   1.368  0.00  0.00    +0.258 C 
ATOM     15  O   UNL     1      -2.153  -1.729   2.435  0.00  0.00    -0.269 OA
ATOM     16  N   UNL     1      -2.601  -2.166   0.315  0.00  0.00    -0.255 N 
ATOM     17  C   UNL     1      -2.216  -2.696  -0.867  0.00  0.00    +0.121 C 
ATOM     18  S   UNL     1      -3.079  -2.767  -2.344  0.00  0.00    -0.027 S 
ATOM     19  S   UNL     1      -0.576  -3.301  -0.497  0.00  0.00    -0.061 S 
BRANCH  16  20
ATOM     20  C   UNL     1      -3.924  -1.547   0.432  0.00  0.00    +0.115 C 
BRANCH  20  21
ATOM     21  C   UNL     1      -3.824  -0.059   0.092  0.00  0.00    +0.031 C 
BRANCH  21  22
ATOM     22  C   UNL     1      -5.205   0.587   0.214  0.00  0.00    +0.126 C 
BRANCH  22  23
ATOM     23  C   UNL     1      -5.106   2.053  -0.121  0.00  0.00    +0.356 C 
ATOM     24  O   UNL     1      -4.040   2.532  -0.427  0.00  0.00    -0.246 OA
ATOM     25  O   UNL     1      -6.202   2.826  -0.081  0.00  0.00    -0.246 OA
ENDBRANCH  22  23
ENDBRANCH  21  22
ENDBRANCH  20  21
ENDBRANCH  16  20
ENDBRANCH   9  12
BRANCH   8  26
ATOM     26  N   UNL     1       0.261  -4.656   4.411  0.00  0.00    -0.314 N 
ATOM     27  C   UNL     1      -0.905  -5.132   3.656  0.00  0.00    +0.107 C 
ATOM     28  C   UNL     1      -0.756  -6.630   3.376  0.00  0.00    +0.031 C 
ATOM     29  C   UNL     1      -0.641  -7.383   4.703  0.00  0.00    +0.078 C 
ATOM     30  C   UNL     1       0.551  -6.835   5.492  0.00  0.00    +0.031 C 
ATOM     31  C   UNL     1       0.364  -5.332   5.711  0.00  0.00    +0.107 C 
BRANCH  29  32
ATOM     32  C   UNL     1      -0.435  -8.852   4.434  0.00  0.00    +0.214 C 
ATOM     33  O   UNL     1       0.567  -9.406   4.833  0.00  0.00    -0.276 OA
ATOM     34  N   UNL     1      -1.364  -9.549   3.750  0.00  0.00    -0.329 N 
ATOM     35  H   UNL     1      -1.213 -10.620   3.553  0.00  0.00    +0.145 HD
ATOM     36  H   UNL     1      -2.272  -9.046   3.388  0.00  0.00    +0.145 HD
ENDBRANCH  29  32
ENDBRANCH   8  26
TORSDOF 7
