REMARK  Name = ZINC03262534
REMARK  3 active torsions:
REMARK  status: ('A' for Active; 'I' for Inactive)
REMARK    1  A    between atoms: C_6  and  C_7
REMARK    2  A    between atoms: C_13  and  S_20
REMARK    3  A    between atoms: S_20  and  N_23
REMARK                            x       y       z     vdW  Elec       q    Type
REMARK                         _______ _______ _______ _____ _____    ______ ____
ROOT
ATOM      1  C   UNL     1      -0.079   6.003   0.032  0.00  0.00    +0.191 C 
ATOM      2  N   UNL     1       1.112   6.507   0.711  0.00  0.00    -0.322 N 
ATOM      3  C   UNL     1       1.322   6.381   2.082  0.00  0.00    +0.057 A 
ATOM      4  C   UNL     1       2.625   6.458   2.572  0.00  0.00    +0.047 A 
ATOM      5  C   UNL     1       2.864   6.355   3.927  0.00  0.00    +0.069 A 
ATOM      6  C   UNL     1       1.813   6.175   4.809  0.00  0.00    +0.125 A 
ATOM      7  C   UNL     1       0.518   6.091   4.330  0.00  0.00    +0.060 A 
ATOM      8  C   UNL     1       0.277   6.186   2.975  0.00  0.00    +0.128 A 
ATOM      9  S   UNL     1      -1.375   6.039   2.363  0.00  0.00    +0.062 S 
ATOM     10  O   UNL     1      -1.708   4.657   2.395  0.00  0.00    -0.153 OA
ATOM     11  O   UNL     1      -2.151   7.033   3.019  0.00  0.00    -0.153 OA
ATOM     12  N   UNL     1      -1.274   6.479   0.758  0.00  0.00    -0.166 NA
ATOM     13 CL   UNL     1       4.490   6.450   4.528  0.00  0.00    -0.081 Cl
ATOM     14  H   UNL     1       1.791   6.951   0.180  0.00  0.00    +0.148 HD
ATOM     15  H   UNL     1      -1.959   7.016   0.327  0.00  0.00    +0.150 HD
ENDROOT
BRANCH   1  21
ATOM     16  C   UNL     1       1.148   3.822   0.011  0.00  0.00    +0.008 A 
ATOM     17  C   UNL     1       1.167   2.440   0.004  0.00  0.00    +0.020 A 
ATOM     18  C   UNL     1      -0.021   1.732   0.012  0.00  0.00    +0.041 A 
ATOM     19  C   UNL     1      -1.229   2.407   0.021  0.00  0.00    +0.020 A 
ATOM     20  C   UNL     1      -1.247   3.789   0.033  0.00  0.00    +0.008 A 
ATOM     21  C   UNL     1      -0.059   4.497   0.025  0.00  0.00    -0.011 A 
ATOM     22 CL   UNL     1       0.002  -0.004   0.002  0.00  0.00    -0.084 Cl
ENDBRANCH   1  21
BRANCH   6  23
ATOM     23  S   UNL     1       2.123   6.053   6.540  0.00  0.00    +0.057 S 
ATOM     24  O   UNL     1       2.973   7.140   6.878  0.00  0.00    -0.153 OA
ATOM     25  O   UNL     1       0.863   5.848   7.165  0.00  0.00    -0.153 OA
BRANCH  23  26
ATOM     26  N   UNL     1       3.002   4.671   6.783  0.00  0.00    -0.203 NA
ATOM     27  H   UNL     1       3.243   4.110   6.029  0.00  0.00    +0.144 HD
ATOM     28  H   UNL     1       3.276   4.422   7.680  0.00  0.00    +0.144 HD
ENDBRANCH  23  26
ENDBRANCH   6  23
TORSDOF 3
