REMARK  Name = ZINC43406371
REMARK  2 active torsions:
REMARK  status: ('A' for Active; 'I' for Inactive)
REMARK    1  A    between atoms: C_6  and  C_7
REMARK    2  A    between atoms: C_13  and  C_15
REMARK                            x       y       z     vdW  Elec       q    Type
REMARK                         _______ _______ _______ _____ _____    ______ ____
ROOT
ATOM      1  C   UNL     1       0.010   1.394   0.249  0.00  0.00    +0.027 A 
ATOM      2  C   UNL     1       1.190   2.073  -0.006  0.00  0.00    -0.025 A 
ATOM      3  C   UNL     1       2.349   1.362  -0.255  0.00  0.00    +0.047 A 
ATOM      4  N   UNL     1       2.342   0.038  -0.252  0.00  0.00    -0.235 NA
ATOM      5  C   UNL     1       1.246  -0.660  -0.014  0.00  0.00    +0.140 A 
ATOM      6  C   UNL     1       0.029  -0.005   0.248  0.00  0.00    +0.092 A 
ATOM      7  N   UNL     1       1.294  -2.043  -0.022  0.00  0.00    -0.303 N 
ATOM      8  C   UNL     1       0.132  -2.944   0.081  0.00  0.00    +0.107 C 
ATOM      9  C   UNL     1       0.595  -4.266  -0.581  0.00  0.00    +0.021 C 
ATOM     10  C   UNL     1       2.078  -4.337  -0.130  0.00  0.00    +0.033 C 
ATOM     11  C   UNL     1       2.513  -2.857  -0.143  0.00  0.00    +0.160 C 
ATOM     12  C   UNL     1       3.492   2.326  -0.503  0.00  0.00    +0.056 C 
ATOM     13  C   UNL     1       2.820   3.680  -0.812  0.00  0.00    +0.011 C 
ATOM     14  C   UNL     1       1.472   3.558  -0.070  0.00  0.00    +0.037 C 
ENDROOT
BRANCH  11  15
ATOM     15  C   UNL     1       3.428  -2.584   1.022  0.00  0.00    +0.231 C 
ATOM     16  O   UNL     1       3.102  -1.787   1.877  0.00  0.00    -0.274 OA
ATOM     17  N   UNL     1       4.610  -3.226   1.115  0.00  0.00    -0.328 N 
ATOM     18  H   UNL     1       4.871  -3.863   0.432  0.00  0.00    +0.145 HD
ATOM     19  H   UNL     1       5.199  -3.050   1.866  0.00  0.00    +0.145 HD
ENDBRANCH  11  15
BRANCH   6  20
ATOM     20  C   UNL     1      -1.163  -0.753   0.507  0.00  0.00    +0.103 C 
ATOM     21  N   UNL     1      -2.110  -1.347   0.713  0.00  0.00    -0.191 NA
ENDBRANCH   6  20
TORSDOF 2
