REMARK  Name = ZINC58175706
REMARK  4 active torsions:
REMARK  status: ('A' for Active; 'I' for Inactive)
REMARK    1  A    between atoms: C_1  and  C_2
REMARK    2  A    between atoms: C_4  and  N_11
REMARK    3  A    between atoms: C_5  and  O_9
REMARK    4  A    between atoms: O_9  and  C_10
REMARK                            x       y       z     vdW  Elec       q    Type
REMARK                         _______ _______ _______ _____ _____    ______ ____
ROOT
ATOM      1  N   UNL     1       0.023  -2.768  -2.427  0.00  0.00    -0.266 N 
ATOM      2  C   UNL     1      -0.089  -2.093  -3.588  0.00  0.00    +0.307 C 
ATOM      3  O   UNL     1      -0.101  -0.877  -3.586  0.00  0.00    -0.252 OA
ATOM      4  N   UNL     1      -0.187  -2.766  -4.752  0.00  0.00    -0.278 N 
ATOM      5  C   UNL     1      -0.285  -4.234  -4.777  0.00  0.00    +0.138 C 
ATOM      6  C   UNL     1       0.765  -4.778  -5.753  0.00  0.00    +0.179 C 
ATOM      7  O   UNL     1       0.639  -4.107  -7.009  0.00  0.00    -0.373 OA
ATOM      8  C   UNL     1       0.864  -2.699  -6.939  0.00  0.00    +0.139 C 
ATOM      9  C   UNL     1      -0.207  -2.057  -6.045  0.00  0.00    +0.106 C 
ATOM     10  C   UNL     1      -1.589  -2.246  -6.676  0.00  0.00    +0.025 C 
ATOM     11  C   UNL     1      -1.616  -1.603  -8.063  0.00  0.00    +0.002 C 
ATOM     12  C   UNL     1      -0.569  -2.277  -8.953  0.00  0.00    +0.003 C 
ATOM     13  C   UNL     1       0.815  -2.081  -8.333  0.00  0.00    +0.033 C 
ATOM     14  H   UNL     1       0.066  -3.737  -2.431  0.00  0.00    +0.156 HD
ENDROOT
BRANCH   1  18
ATOM     15  C   UNL     1       0.913   1.404   0.020  0.00  0.00    +0.045 C 
ATOM     16  C   UNL     1       0.506  -0.047   0.003  0.00  0.00    -0.030 A 
ATOM     17  C   UNL     1       0.452  -0.734  -1.195  0.00  0.00    +0.031 A 
ATOM     18  C   UNL     1       0.079  -2.069  -1.212  0.00  0.00    +0.077 A 
ATOM     19  C   UNL     1      -0.243  -2.715  -0.020  0.00  0.00    +0.143 A 
ATOM     20  C   UNL     1      -0.187  -2.020   1.177  0.00  0.00    +0.067 A 
ATOM     21  C   UNL     1       0.192  -0.689   1.187  0.00  0.00    +0.047 A 
ATOM     22 CL   UNL     1       0.268   0.178   2.689  0.00  0.00    -0.083 Cl
BRANCH  19  23
ATOM     23  O   UNL     1      -0.610  -4.024  -0.032  0.00  0.00    -0.493 OA
ATOM     24  C   UNL     1      -0.925  -4.621   1.228  0.00  0.00    +0.277 C 
ENDBRANCH  19  23
ENDBRANCH   1  18
TORSDOF 2
