REMARK  Name = ZINC44801823
REMARK  14 active torsions:
REMARK  status: ('A' for Active; 'I' for Inactive)
REMARK    1  A    between atoms: C_1  and  C_2
REMARK    2  A    between atoms: C_2  and  C_3
REMARK    3  A    between atoms: C_3  and  C_4
REMARK    4  A    between atoms: C_4  and  C_6
REMARK    5  A    between atoms: C_4  and  N_7
REMARK    6  A    between atoms: C_8  and  C_10
REMARK    7  A    between atoms: C_10  and  C_12
REMARK    8  A    between atoms: C_10  and  N_13
REMARK    9  A    between atoms: N_13  and  C_14
REMARK   10  A    between atoms: C_17  and  O_25
REMARK   11  A    between atoms: C_18  and  N_20
REMARK   12  A    between atoms: N_20  and  S_21
REMARK   13  A    between atoms: S_21  and  C_24
REMARK   14  A    between atoms: O_25  and  C_26
REMARK                            x       y       z     vdW  Elec       q    Type
REMARK                         _______ _______ _______ _____ _____    ______ ____
ROOT
ATOM      1  C   UNL     1       2.445  -5.798   3.095  0.00  0.00    +0.030 A 
ATOM      2  C   UNL     1       3.079  -5.043   4.073  0.00  0.00    +0.026 A 
ATOM      3  C   UNL     1       4.055  -5.616   4.867  0.00  0.00    +0.049 A 
ATOM      4  C   UNL     1       4.403  -6.945   4.690  0.00  0.00    +0.142 A 
ATOM      5  C   UNL     1       3.769  -7.706   3.710  0.00  0.00    +0.091 A 
ATOM      6  C   UNL     1       2.786  -7.132   2.917  0.00  0.00    +0.051 A 
ENDROOT
BRANCH   1   7
ATOM      7  N   UNL     1       1.457  -5.216   2.293  0.00  0.00    -0.333 N 
ATOM      8  H   UNL     1       1.012  -5.744   1.612  0.00  0.00    +0.147 HD
BRANCH   7   9
ATOM      9  C   UNL     1       1.097  -3.808   2.481  0.00  0.00    +0.154 C 
ATOM     10  C   UNL     1       0.053  -3.693   3.593  0.00  0.00    +0.038 C 
BRANCH   9  12
ATOM     11  N   UNL     1       0.122  -1.976   1.134  0.00  0.00    -0.311 N 
ATOM     12  C   UNL     1       0.526  -3.260   1.198  0.00  0.00    +0.233 C 
ATOM     13  O   UNL     1       0.430  -3.975   0.223  0.00  0.00    -0.274 OA
ATOM     14  H   UNL     1       0.199  -1.404   1.914  0.00  0.00    +0.149 HD
BRANCH  11  15
ATOM     15  C   UNL     1      -0.433  -1.444  -0.113  0.00  0.00    +0.070 C 
ATOM     16  C   UNL     1      -1.927  -1.764  -0.183  0.00  0.00    +0.028 C 
BRANCH  15  17
ATOM     17  C   UNL     1      -0.233   0.073  -0.153  0.00  0.00    +0.022 C 
BRANCH  17  19
ATOM     18  C   UNL     1       1.462   1.905  -0.249  0.00  0.00    +0.004 C 
ATOM     19  C   UNL     1       1.263   0.389  -0.208  0.00  0.00    -0.002 C 
ENDBRANCH  17  19
ENDBRANCH  15  17
ENDBRANCH  11  15
ENDBRANCH   9  12
ENDBRANCH   7   9
ENDBRANCH   1   7
BRANCH   5  20
ATOM     20  N   UNL     1       4.120  -9.048   3.529  0.00  0.00    -0.217 N 
ATOM     21  H   UNL     1       4.363  -9.593   4.294  0.00  0.00    +0.173 HD
BRANCH  20  22
ATOM     22  S   UNL     1       4.119  -9.707   2.010  0.00  0.00    +0.040 S 
ATOM     23  O   UNL     1       4.604 -11.030   2.188  0.00  0.00    -0.155 OA
ATOM     24  O   UNL     1       2.807  -9.476   1.515  0.00  0.00    -0.155 OA
ATOM     25  C   UNL     1       5.322  -8.722   1.075  0.00  0.00    +0.218 C 
ENDBRANCH  20  22
ENDBRANCH   5  20
BRANCH   4  26
ATOM     26  O   UNL     1       5.364  -7.507   5.472  0.00  0.00    -0.493 OA
ATOM     27  C   UNL     1       5.973  -6.668   6.456  0.00  0.00    +0.277 C 
ENDBRANCH   4  26
TORSDOF 9
