REMARK  Name = ZINC48443645
REMARK  6 active torsions:
REMARK  status: ('A' for Active; 'I' for Inactive)
REMARK    1  A    between atoms: C_1  and  C_2
REMARK    2  A    between atoms: C_2  and  C_4
REMARK    3  A    between atoms: C_2  and  N_8
REMARK    4  A    between atoms: N_6  and  C_7
REMARK    5  A    between atoms: C_9  and  C_11
REMARK    6  A    between atoms: C_20  and  O_21
REMARK                            x       y       z     vdW  Elec       q    Type
REMARK                         _______ _______ _______ _____ _____    ______ ____
ROOT
ATOM      1  C   UNL     1       2.768  -1.089   2.369  0.00  0.00    +0.079 A 
ATOM      2  C   UNL     1       2.052  -1.438   3.503  0.00  0.00    +0.025 A 
ATOM      3  C   UNL     1       2.736  -1.902   4.636  0.00  0.00    -0.017 A 
ATOM      4  C   UNL     1       2.041  -2.266   5.804  0.00  0.00    +0.008 A 
ATOM      5  C   UNL     1       2.732  -2.713   6.887  0.00  0.00    +0.001 A 
ATOM      6  C   UNL     1       4.122  -2.817   6.859  0.00  0.00    +0.001 A 
ATOM      7  C   UNL     1       4.829  -2.474   5.747  0.00  0.00    +0.008 A 
ATOM      8  C   UNL     1       4.151  -2.007   4.607  0.00  0.00    -0.014 A 
ATOM      9  C   UNL     1       4.853  -1.647   3.445  0.00  0.00    +0.054 A 
ATOM     10  C   UNL     1       4.174  -1.203   2.349  0.00  0.00    +0.130 A 
ENDROOT
BRANCH   1  12
ATOM     11  N   UNL     1       0.711  -0.489   1.189  0.00  0.00    -0.300 N 
ATOM     12  C   UNL     1       2.054  -0.600   1.174  0.00  0.00    +0.248 C 
ATOM     13  O   UNL     1       2.677  -0.297   0.175  0.00  0.00    -0.270 OA
ATOM     14  H   UNL     1       0.213  -0.731   1.986  0.00  0.00    +0.150 HD
BRANCH  11  16
ATOM     15  C   UNL     1      -0.019   1.526   0.010  0.00  0.00    +0.038 C 
ATOM     16  C   UNL     1       0.002  -0.004   0.002  0.00  0.00    +0.156 C 
BRANCH  16  17
ATOM     17  C   UNL     1      -1.412  -0.526   0.013  0.00  0.00    +0.233 C 
ATOM     18  O   UNL     1      -1.790  -1.233   0.922  0.00  0.00    -0.274 OA
ATOM     19  N   UNL     1      -2.256  -0.206  -0.988  0.00  0.00    -0.317 N 
ATOM     20  C   UNL     1      -3.630  -0.713  -0.978  0.00  0.00    +0.128 C 
ATOM     21  H   UNL     1      -1.953   0.360  -1.716  0.00  0.00    +0.148 HD
ENDBRANCH  16  17
ENDBRANCH  11  16
ENDBRANCH   1  12
BRANCH  10  22
ATOM     22  O   UNL     1       4.858  -0.861   1.228  0.00  0.00    -0.506 OA
ATOM     23  H   UNL     1       5.128   0.067   1.199  0.00  0.00    +0.292 HD
ENDBRANCH  10  22
TORSDOF 4
