REMARK  Name = ZINC18199442
REMARK  4 active torsions:
REMARK  status: ('A' for Active; 'I' for Inactive)
REMARK    1  A    between atoms: C_4  and  O_27
REMARK    2  A    between atoms: C_5  and  C_7
REMARK    3  A    between atoms: O_27  and  C_28
REMARK    4  A    between atoms: C_28  and  C_29
REMARK                            x       y       z     vdW  Elec       q    Type
REMARK                         _______ _______ _______ _____ _____    ______ ____
ROOT
ATOM      1  C   UNL     1      -2.752   2.267   2.500  0.00  0.00    +0.096 C 
ATOM      2  C   UNL     1      -1.905   2.061   3.720  0.00  0.00    +0.067 A 
ATOM      3  C   UNL     1      -0.565   1.843   3.612  0.00  0.00    +0.113 A 
ATOM      4  N   UNL     1       0.187   1.668   4.748  0.00  0.00    -0.295 N 
ATOM      5  H   UNL     1       1.172   1.510   4.674  0.00  0.00    +0.172 HD
ATOM      6  C   UNL     1      -0.394   1.709   5.962  0.00  0.00    +0.328 A 
ATOM      7  O   UNL     1       0.285   1.553   6.957  0.00  0.00    -0.247 OA
ATOM      8  N   UNL     1      -1.717   1.918   6.088  0.00  0.00    -0.275 N 
ATOM      9  H   UNL     1      -2.131   1.943   6.998  0.00  0.00    +0.173 HD
ATOM     10  C   UNL     1      -2.491   2.095   4.999  0.00  0.00    +0.260 A 
ATOM     11  O   UNL     1      -3.689   2.284   5.121  0.00  0.00    -0.267 OA
ATOM     12  N   UNL     1       0.029   1.798   2.376  0.00  0.00    -0.303 N 
ATOM     13  C   UNL     1      -0.718   1.572   1.250  0.00  0.00    +0.017 C 
ATOM     14  C   UNL     1      -2.051   1.777   1.259  0.00  0.00    +0.024 C 
ATOM     15  C   UNL     1      -2.827   1.544   0.109  0.00  0.00    +0.162 C 
ATOM     16  O   UNL     1      -4.029   1.718   0.156  0.00  0.00    -0.292 OA
ATOM     17  C   UNL     1      -2.196   1.085  -1.177  0.00  0.00    +0.080 C 
ATOM     18  C   UNL     1      -0.751   1.592  -1.233  0.00  0.00    +0.014 C 
ATOM     19  C   UNL     1      -0.013   1.086   0.008  0.00  0.00    +0.051 C 
ATOM     20  H   UNL     1       0.987   1.929   2.298  0.00  0.00    +0.153 HD
ENDROOT
BRANCH   1  25
ATOM     21  C   UNL     1      -2.299   5.985   2.027  0.00  0.00    +0.001 A 
ATOM     22  C   UNL     1      -3.606   6.434   2.074  0.00  0.00    +0.004 A 
ATOM     23  C   UNL     1      -4.639   5.537   2.259  0.00  0.00    +0.046 A 
ATOM     24  C   UNL     1      -4.365   4.184   2.397  0.00  0.00    +0.125 A 
ATOM     25  C   UNL     1      -3.053   3.736   2.350  0.00  0.00    +0.006 A 
ATOM     26  C   UNL     1      -2.022   4.638   2.170  0.00  0.00    +0.008 A 
BRANCH  24  27
ATOM     27  O   UNL     1      -5.380   3.299   2.579  0.00  0.00    -0.480 OA
BRANCH  27  28
ATOM     28  C   UNL     1      -6.706   3.831   2.617  0.00  0.00    +0.353 C 
BRANCH  28  29
ATOM     29  C   UNL     1      -7.692   2.710   2.824  0.00  0.00    +0.393 C 
ATOM     30  O   UNL     1      -7.299   1.572   2.928  0.00  0.00    -0.243 OA
ATOM     31  O   UNL     1      -9.005   2.976   2.893  0.00  0.00    -0.243 OA
ENDBRANCH  28  29
ENDBRANCH  27  28
ENDBRANCH  24  27
ENDBRANCH   1  25
TORSDOF 4
