REMARK  Name = ZINC67239053
REMARK  9 active torsions:
REMARK  status: ('A' for Active; 'I' for Inactive)
REMARK    1  A    between atoms: C_1  and  C_2
REMARK    2  A    between atoms: C_2  and  C_3
REMARK    3  A    between atoms: C_3  and  C_5
REMARK    4  A    between atoms: C_3  and  N_6
REMARK    5  A    between atoms: C_12  and  C_15
REMARK    6  A    between atoms: C_17  and  S_18
REMARK    7  A    between atoms: S_18  and  C_19
REMARK    8  A    between atoms: C_19  and  C_20
REMARK    9  A    between atoms: C_29  and  C_32
REMARK                            x       y       z     vdW  Elec       q    Type
REMARK                         _______ _______ _______ _____ _____    ______ ____
ROOT
ATOM      1  N   UNL     1      -2.060  -0.131   1.274  0.00  0.00    -0.283 N 
ATOM      2  C   UNL     1      -1.530  -0.540   2.448  0.00  0.00    +0.279 A 
ATOM      3  O   UNL     1      -0.523  -1.228   2.471  0.00  0.00    -0.265 OA
ATOM      4  C   UNL     1      -2.165  -0.153   3.643  0.00  0.00    +0.131 A 
ATOM      5  C   UNL     1      -3.318   0.638   3.567  0.00  0.00    +0.097 A 
ATOM      6  C   UNL     1      -3.736   0.870   4.896  0.00  0.00    +0.051 A 
ATOM      7  C   UNL     1      -2.869   0.245   5.718  0.00  0.00    +0.016 A 
ATOM      8  N   UNL     1      -1.911  -0.380   4.979  0.00  0.00    -0.353 N 
ATOM      9  H   UNL     1      -1.173  -0.899   5.334  0.00  0.00    +0.166 HD
ATOM     10  C   UNL     1      -2.948   0.240   7.223  0.00  0.00    +0.063 C 
ATOM     11  N   UNL     1      -3.792   1.009   2.362  0.00  0.00    -0.221 NA
ATOM     12  C   UNL     1      -3.184   0.644   1.256  0.00  0.00    +0.173 A 
ENDROOT
BRANCH   1  13
ATOM     13  C   UNL     1      -1.422  -0.517   0.014  0.00  0.00    +0.089 C 
ATOM     14  C   UNL     1      -1.403  -2.042  -0.103  0.00  0.00    +0.031 C 
BRANCH  13  16
ATOM     15  C   UNL     1      -0.009   1.544  -0.024  0.00  0.00    +0.006 C 
ATOM     16  C   UNL     1       0.013   0.014  -0.015  0.00  0.00    +0.021 C 
ENDBRANCH  13  16
ENDBRANCH   1  13
BRANCH  12  17
ATOM     17  S   UNL     1      -3.841   1.164  -0.294  0.00  0.00    -0.078 S 
BRANCH  17  18
ATOM     18  C   UNL     1      -5.298   2.148   0.155  0.00  0.00    +0.173 C 
BRANCH  18  19
ATOM     19  C   UNL     1      -5.963   2.660  -1.097  0.00  0.00    +0.230 C 
ATOM     20  O   UNL     1      -5.500   2.388  -2.184  0.00  0.00    -0.274 OA
ATOM     21  N   UNL     1      -7.072   3.420  -1.008  0.00  0.00    -0.264 N 
ATOM     22  C   UNL     1      -7.725   3.667   0.290  0.00  0.00    +0.154 C 
ATOM     23  C   UNL     1      -9.241   3.557   0.074  0.00  0.00    +0.248 C 
ATOM     24  O   UNL     1      -9.636   4.506  -0.918  0.00  0.00    -0.489 OA
ATOM     25  C   UNL     1      -8.931   4.540  -2.080  0.00  0.00    +0.142 A 
ATOM     26  C   UNL     1      -7.643   4.011  -2.148  0.00  0.00    +0.079 A 
ATOM     27  C   UNL     1      -6.930   4.060  -3.335  0.00  0.00    +0.030 A 
ATOM     28  C   UNL     1      -7.497   4.639  -4.456  0.00  0.00    -0.048 A 
ATOM     29  C   UNL     1      -8.773   5.167  -4.391  0.00  0.00    +0.007 A 
ATOM     30  C   UNL     1      -9.495   5.112  -3.209  0.00  0.00    +0.048 A 
ATOM     31  C   UNL     1      -6.724   4.694  -5.748  0.00  0.00    +0.044 C 
ENDBRANCH  18  19
ENDBRANCH  17  18
ENDBRANCH  12  17
TORSDOF 5
