REMARK  Name = ZINC52094523
REMARK  8 active torsions:
REMARK  status: ('A' for Active; 'I' for Inactive)
REMARK    1  A    between atoms: C_1  and  C_2
REMARK    2  A    between atoms: C_2  and  C_3
REMARK    3  A    between atoms: C_3  and  C_4
REMARK    4  A    between atoms: C_4  and  C_6
REMARK    5  A    between atoms: C_4  and  C_7
REMARK    6  A    between atoms: C_7  and  C_9
REMARK    7  A    between atoms: C_7  and  N_22
REMARK    8  A    between atoms: N_22  and  C_23
REMARK                            x       y       z     vdW  Elec       q    Type
REMARK                         _______ _______ _______ _____ _____    ______ ____
ROOT
ATOM      1  C   UNL     1       1.257  -4.011  -2.524  0.00  0.00    -0.045 A 
ATOM      2  C   UNL     1       0.246  -4.569  -3.283  0.00  0.00    +0.031 A 
ATOM      3  C   UNL     1       0.062  -5.943  -3.283  0.00  0.00    +0.067 A 
ATOM      4  C   UNL     1       0.898  -6.758  -2.516  0.00  0.00    +0.068 A 
ATOM      5  C   UNL     1       1.909  -6.189  -1.758  0.00  0.00    +0.043 A 
ATOM      6  C   UNL     1       2.090  -4.819  -1.768  0.00  0.00    +0.022 A 
ATOM      7 BR   UNL     1       3.474  -4.043  -0.740  0.00  0.00    -0.050 Br
ATOM      8  N   UNL     1       0.475  -8.070  -2.716  0.00  0.00    -0.306 N 
ATOM      9  H   UNL     1       0.867  -8.860  -2.312  0.00  0.00    +0.170 HD
ATOM     10  C   UNL     1      -0.569  -8.054  -3.566  0.00  0.00    +0.325 A 
ATOM     11  O   UNL     1      -1.175  -9.037  -3.949  0.00  0.00    -0.247 OA
ATOM     12  N   UNL     1      -0.843  -6.786  -3.925  0.00  0.00    -0.306 N 
ATOM     13  H   UNL     1      -1.549  -6.507  -4.529  0.00  0.00    +0.170 HD
ENDROOT
BRANCH   1  14
ATOM     14  C   UNL     1       1.458  -2.518  -2.524  0.00  0.00    -0.037 C 
BRANCH  14  15
ATOM     15  N   UNL     1       0.817  -1.937  -3.711  0.00  0.00    +0.382 N 
ATOM     16  C   UNL     1       1.504  -2.411  -4.920  0.00  0.00    -0.100 C 
ATOM     17  H   UNL     1      -0.152  -2.219  -3.743  0.00  0.00    -0.085 HD
ATOM     18  H   UNL     1       0.872  -0.931  -3.665  0.00  0.00    -0.085 HD
ENDBRANCH  14  15
BRANCH  14  19
ATOM     19  C   UNL     1       0.832  -1.919  -1.262  0.00  0.00    -0.024 C 
ATOM     20  C   UNL     1      -0.682  -2.138  -1.291  0.00  0.00    +0.006 C 
BRANCH  19  21
ATOM     21  C   UNL     1       1.130  -0.419  -1.208  0.00  0.00    +0.002 C 
BRANCH  21  23
ATOM     22  C   UNL     1       0.890   1.659   0.157  0.00  0.00    +0.004 C 
ATOM     23  C   UNL     1       0.592   0.160   0.103  0.00  0.00    -0.003 C 
ENDBRANCH  21  23
ENDBRANCH  19  21
ENDBRANCH  14  19
ENDBRANCH   1  14
TORSDOF 5
