REMARK  Name = ZINC12887790
REMARK  7 active torsions:
REMARK  status: ('A' for Active; 'I' for Inactive)
REMARK    1  A    between atoms: C_1  and  C_2
REMARK    2  A    between atoms: C_2  and  C_4
REMARK    3  A    between atoms: C_2  and  N_16
REMARK    4  A    between atoms: N_6  and  C_7
REMARK    5  A    between atoms: C_7  and  C_8
REMARK    6  A    between atoms: C_8  and  C_9
REMARK    7  A    between atoms: C_17  and  C_19
REMARK                            x       y       z     vdW  Elec       q    Type
REMARK                         _______ _______ _______ _____ _____    ______ ____
ROOT
ATOM      1  C   UNL     1      -7.460  -2.880   5.655  0.00  0.00    +0.167 C 
ATOM      2  C   UNL     1      -6.186  -3.198   6.451  0.00  0.00    +0.069 C 
ATOM      3  C   UNL     1      -5.715  -4.596   6.144  0.00  0.00    -0.015 A 
ATOM      4  C   UNL     1      -4.415  -5.170   6.441  0.00  0.00    +0.003 A 
ATOM      5  C   UNL     1      -3.271  -4.648   7.051  0.00  0.00    +0.010 A 
ATOM      6  C   UNL     1      -2.194  -5.492   7.173  0.00  0.00    +0.001 A 
ATOM      7  C   UNL     1      -2.228  -6.799   6.717  0.00  0.00    +0.002 A 
ATOM      8  C   UNL     1      -3.347  -7.341   6.109  0.00  0.00    +0.026 A 
ATOM      9  C   UNL     1      -4.455  -6.508   5.973  0.00  0.00    +0.047 A 
ATOM     10  N   UNL     1      -5.693  -6.712   5.435  0.00  0.00    -0.356 N 
ATOM     11  H   UNL     1      -6.000  -7.543   5.040  0.00  0.00    +0.166 HD
ATOM     12  C   UNL     1      -6.435  -5.566   5.536  0.00  0.00    +0.046 A 
ATOM     13  C   UNL     1      -7.850  -5.359   5.053  0.00  0.00    +0.155 C 
ATOM     14  N   UNL     1      -8.301  -4.081   5.655  0.00  0.00    -0.273 N 
ATOM     15  C   UNL     1      -9.514  -4.267   6.188  0.00  0.00    +0.248 C 
ATOM     16  O   UNL     1     -10.252  -3.382   6.575  0.00  0.00    -0.270 OA
ATOM     17  C   UNL     1      -9.818  -5.702   6.235  0.00  0.00    +0.042 A 
ATOM     18  C   UNL     1      -8.788  -6.396   5.569  0.00  0.00    -0.009 A 
ATOM     19  C   UNL     1      -8.780  -7.771   5.489  0.00  0.00    +0.006 A 
ATOM     20  C   UNL     1      -9.843  -8.445   6.084  0.00  0.00    +0.000 A 
ATOM     21  C   UNL     1     -10.863  -7.773   6.727  0.00  0.00    +0.001 A 
ATOM     22  C   UNL     1     -10.882  -6.389   6.822  0.00  0.00    +0.013 A 
ENDROOT
BRANCH   1  24
ATOM     23  N   UNL     1      -6.314  -1.440   4.002  0.00  0.00    -0.303 N 
ATOM     24  C   UNL     1      -7.099  -2.509   4.239  0.00  0.00    +0.235 C 
ATOM     25  O   UNL     1      -7.515  -3.174   3.314  0.00  0.00    -0.274 OA
ATOM     26  H   UNL     1      -5.981  -0.909   4.743  0.00  0.00    +0.149 HD
BRANCH  23  28
ATOM     27  C   UNL     1      -7.072  -0.214   2.027  0.00  0.00    +0.038 C 
ATOM     28  C   UNL     1      -5.962  -1.080   2.626  0.00  0.00    +0.156 C 
BRANCH  28  29
ATOM     29  C   UNL     1      -4.667  -0.310   2.624  0.00  0.00    +0.233 C 
ATOM     30  O   UNL     1      -4.094  -0.084   3.668  0.00  0.00    -0.274 OA
ATOM     31  N   UNL     1      -4.146   0.128   1.461  0.00  0.00    -0.313 N 
ATOM     32  H   UNL     1      -4.604  -0.053   0.625  0.00  0.00    +0.149 HD
BRANCH  31  33
ATOM     33  C   UNL     1      -2.886   0.877   1.458  0.00  0.00    +0.109 C 
BRANCH  33  34
ATOM     34  C   UNL     1      -2.519   1.253   0.021  0.00  0.00    +0.056 C 
BRANCH  34  35
ATOM     35  C   UNL     1      -1.224   2.023   0.019  0.00  0.00    -0.011 A 
ATOM     36  C   UNL     1      -1.242   3.405   0.031  0.00  0.00    +0.006 A 
ATOM     37  C   UNL     1      -0.054   4.112   0.024  0.00  0.00    +0.000 A 
ATOM     38  C   UNL     1       1.153   3.438   0.009  0.00  0.00    +0.003 A 
ATOM     39  C   UNL     1       1.173   2.056   0.002  0.00  0.00    +0.038 A 
ATOM     40  C   UNL     1      -0.016   1.347   0.009  0.00  0.00    +0.127 A 
ATOM     41  F   UNL     1       0.002  -0.004   0.002  0.00  0.00    -0.205 F 
ENDBRANCH  34  35
ENDBRANCH  33  34
ENDBRANCH  31  33
ENDBRANCH  28  29
ENDBRANCH  23  28
ENDBRANCH   1  24
TORSDOF 6
