REMARK  Name = ZINC29591003
REMARK  15 active torsions:
REMARK  status: ('A' for Active; 'I' for Inactive)
REMARK    1  A    between atoms: C_1  and  C_2
REMARK    2  A    between atoms: C_2  and  O_3
REMARK    3  A    between atoms: O_3  and  C_4
REMARK    4  A    between atoms: C_4  and  C_6
REMARK    5  A    between atoms: C_7  and  C_34
REMARK    6  A    between atoms: C_11  and  N_33
REMARK    7  A    between atoms: C_13  and  C_15
REMARK    8  A    between atoms: C_15  and  O_16
REMARK    9  A    between atoms: O_16  and  C_17
REMARK   10  A    between atoms: C_17  and  C_19
REMARK   11  A    between atoms: C_22  and  C_25
REMARK   12  A    between atoms: C_25  and  N_26
REMARK   13  A    between atoms: N_29  and  C_30
REMARK   14  A    between atoms: C_30  and  C_31
REMARK   15  A    between atoms: C_30  and  C_32
REMARK                            x       y       z     vdW  Elec       q    Type
REMARK                         _______ _______ _______ _____ _____    ______ ____
ROOT
ATOM      1  C   UNL     1       1.360   7.753  -3.708  0.00  0.00    +0.308 C 
ENDROOT
BRANCH   1   9
ATOM      2  C   UNL     1       1.232   3.545   0.009  0.00  0.00    +0.112 A 
ATOM      3  C   UNL     1       1.268   4.362   1.098  0.00  0.00    +0.119 A 
ATOM      4  O   UNL     1       1.320   5.641   0.703  0.00  0.00    -0.441 OA
ATOM      5  C   UNL     1       1.311   5.741  -0.637  0.00  0.00    +0.233 A 
ATOM      6  C   UNL     1       1.256   4.441  -1.160  0.00  0.00    +0.094 A 
ATOM      7  C   UNL     1       1.236   4.269  -2.548  0.00  0.00    +0.132 A 
ATOM      8  N   UNL     1       1.271   5.353  -3.319  0.00  0.00    -0.213 NA
ATOM      9  C   UNL     1       1.323   6.560  -2.788  0.00  0.00    +0.172 A 
ATOM     10  N   UNL     1       1.343   6.764  -1.488  0.00  0.00    -0.193 NA
ATOM     11  C   UNL     1       1.256   3.897   2.532  0.00  0.00    +0.087 C 
BRANCH   7  12
ATOM     12  N   UNL     1       1.181   3.003  -3.105  0.00  0.00    -0.342 N 
ATOM     13  H   UNL     1       1.166   2.883  -4.198  0.00  0.00    +0.144 HD
ATOM     14  H   UNL     1       1.152   2.116  -2.454  0.00  0.00    +0.144 HD
ENDBRANCH   7  12
BRANCH   2  15
ATOM     15  C   UNL     1       1.175   2.076   0.002  0.00  0.00    +0.343 C 
ATOM     16  O   UNL     1       2.204   1.428  -0.011  0.00  0.00    -0.245 OA
BRANCH  15  17
ATOM     17  O   UNL     1      -0.018   1.448   0.010  0.00  0.00    -0.461 OA
BRANCH  17  19
ATOM     18  C   UNL     1      -1.433  -0.534   0.013  0.00  0.00    +0.048 C 
ATOM     19  C   UNL     1       0.002  -0.004   0.002  0.00  0.00    +0.229 C 
ENDBRANCH  17  19
ENDBRANCH  15  17
ENDBRANCH   2  15
ENDBRANCH   1   9
BRANCH   1  20
ATOM     20  O   UNL     1       2.740   8.083  -4.016  0.00  0.00    -0.453 OA
BRANCH  20  21
ATOM     21  C   UNL     1       2.950   9.133  -4.833  0.00  0.00    +0.340 C 
ATOM     22  O   UNL     1       2.006   9.757  -5.276  0.00  0.00    -0.245 OA
BRANCH  21  23
ATOM     23  C   UNL     1       4.328   9.527  -5.191  0.00  0.00    +0.059 A 
ATOM     24  C   UNL     1       5.416   8.817  -4.679  0.00  0.00    +0.015 A 
ATOM     25  C   UNL     1       6.700   9.186  -5.022  0.00  0.00    +0.006 A 
ATOM     26  C   UNL     1       6.912  10.266  -5.861  0.00  0.00    -0.030 A 
ATOM     27  C   UNL     1       5.839  10.978  -6.367  0.00  0.00    +0.006 A 
ATOM     28  C   UNL     1       4.549  10.616  -6.037  0.00  0.00    +0.015 A 
BRANCH  26  29
ATOM     29  C   UNL     1       8.318  10.667  -6.226  0.00  0.00    +0.141 C 
BRANCH  29  30
ATOM     30  N   UNL     1       8.817  11.640  -5.251  0.00  0.00    -0.295 N 
ATOM     31  C   UNL     1      10.060  12.143  -5.377  0.00  0.00    +0.300 C 
ATOM     32  O   UNL     1      10.768  11.790  -6.300  0.00  0.00    -0.253 OA
ATOM     33  N   UNL     1      10.520  13.038  -4.479  0.00  0.00    -0.297 N 
ATOM     34  H   UNL     1       8.176  11.959  -4.415  0.00  0.00    +0.151 HD
ATOM     35  H   UNL     1       9.879  13.357  -3.644  0.00  0.00    +0.150 HD
BRANCH  33  36
ATOM     36  C   UNL     1      11.872  13.585  -4.616  0.00  0.00    +0.068 C 
ATOM     37  C   UNL     1      11.844  14.779  -5.573  0.00  0.00    +0.027 C 
ATOM     38  C   UNL     1      12.379  14.040  -3.247  0.00  0.00    +0.027 C 
ENDBRANCH  33  36
ENDBRANCH  29  30
ENDBRANCH  26  29
ENDBRANCH  21  23
ENDBRANCH  20  21
ENDBRANCH   1  20
TORSDOF 11
