REMARK  Name = ZINC00172587
REMARK  5 active torsions:
REMARK  status: ('A' for Active; 'I' for Inactive)
REMARK    1  A    between atoms: C_1  and  N_2
REMARK    2  A    between atoms: C_10  and  C_11
REMARK    3  A    between atoms: C_11  and  S_12
REMARK    4  A    between atoms: S_12  and  C_13
REMARK    5  A    between atoms: C_19  and  N_23
REMARK                            x       y       z     vdW  Elec       q    Type
REMARK                         _______ _______ _______ _____ _____    ______ ____
ROOT
ATOM      1  C   UNL     1       2.182   5.526   1.425  0.00  0.00    +0.169 A 
ATOM      2  N   UNL     1       2.433   6.452   2.401  0.00  0.00    -0.318 N 
ATOM      3  H   UNL     1       2.402   6.294   3.388  0.00  0.00    +0.169 HD
ATOM      4  C   UNL     1       2.734   7.639   1.775  0.00  0.00    +0.164 A 
ATOM      5  C   UNL     1       2.654   7.386   0.396  0.00  0.00    +0.148 A 
ATOM      6  N   UNL     1       2.318   6.080   0.245  0.00  0.00    -0.217 NA
ATOM      7  C   UNL     1       2.918   8.443  -0.489  0.00  0.00    +0.147 A 
ATOM      8  N   UNL     1       3.232   9.631   0.018  0.00  0.00    -0.219 NA
ATOM      9  C   UNL     1       3.295   9.822   1.323  0.00  0.00    +0.225 A 
ATOM     10  N   UNL     1       3.055   8.860   2.190  0.00  0.00    -0.216 NA
ENDROOT
BRANCH   7  11
ATOM     11  N   UNL     1       2.854   8.252  -1.860  0.00  0.00    -0.341 N 
ATOM     12  H   UNL     1       3.512   7.549  -2.131  0.00  0.00    +0.144 HD
ATOM     13  H   UNL     1       3.039   8.990  -2.462  0.00  0.00    +0.144 HD
ENDBRANCH   7  11
BRANCH   1  14
ATOM     14  S   UNL     1       1.749   3.842   1.711  0.00  0.00    -0.080 S 
BRANCH  14  15
ATOM     15  C   UNL     1       1.581   3.267   0.004  0.00  0.00    +0.151 C 
BRANCH  15  25
ATOM     16  C   UNL     1       3.548   0.880  -0.027  0.00  0.00    +0.150 C 
ATOM     17  N   UNL     1       2.087   0.774  -0.014  0.00  0.00    -0.330 N 
ATOM     18  C   UNL     1       1.352  -0.395  -0.013  0.00  0.00    +0.069 A 
ATOM     19  C   UNL     1       1.680  -1.744  -0.023  0.00  0.00    +0.028 A 
ATOM     20  C   UNL     1       0.678  -2.691  -0.018  0.00  0.00    +0.002 A 
ATOM     21  C   UNL     1      -0.655  -2.304  -0.003  0.00  0.00    +0.002 A 
ATOM     22  C   UNL     1      -0.997  -0.982   0.007  0.00  0.00    +0.030 A 
ATOM     23  C   UNL     1       0.002  -0.004   0.002  0.00  0.00    +0.089 A 
ATOM     24  N   UNL     1      -0.016   1.354   0.009  0.00  0.00    -0.231 NA
ATOM     25  C   UNL     1       1.203   1.808   0.000  0.00  0.00    +0.121 A 
ENDBRANCH  15  25
ENDBRANCH  14  15
ENDBRANCH   1  14
TORSDOF 4
