REMARK  Name = ZINC37556170
REMARK  5 active torsions:
REMARK  status: ('A' for Active; 'I' for Inactive)
REMARK    1  A    between atoms: C_6  and  N_7
REMARK    2  A    between atoms: N_7  and  S_8
REMARK    3  A    between atoms: S_8  and  C_11
REMARK    4  A    between atoms: C_12  and  N_19
REMARK    5  A    between atoms: N_19  and  N_20
REMARK                            x       y       z     vdW  Elec       q    Type
REMARK                         _______ _______ _______ _____ _____    ______ ____
ROOT
ATOM      1  C   UNL     1      -0.127  -3.226  -0.377  0.00  0.00    +0.225 A 
ATOM      2  C   UNL     1       1.192  -3.272  -0.655  0.00  0.00    +0.179 A 
ATOM      3  N   UNL     1       1.725  -4.318  -0.001  0.00  0.00    -0.203 NA
ATOM      4  C   UNL     1       0.786  -4.922   0.671  0.00  0.00    +0.181 A 
ATOM      5  N   UNL     1      -0.413  -4.286   0.489  0.00  0.00    -0.276 N 
ATOM      6  C   UNL     1      -1.504  -4.809   1.147  0.00  0.00    +0.102 A 
ATOM      7  C   UNL     1      -1.381  -5.884   1.924  0.00  0.00    +0.067 A 
ATOM      8  S   UNL     1       0.359  -6.255   1.767  0.00  0.00    -0.058 S 
ENDROOT
BRANCH   1   9
ATOM      9  S   UNL     1      -1.279  -2.040  -0.987  0.00  0.00    +0.092 S 
ATOM     10  O   UNL     1      -2.574  -2.586  -0.775  0.00  0.00    -0.148 OA
ATOM     11  O   UNL     1      -0.818  -1.650  -2.273  0.00  0.00    -0.148 OA
BRANCH   9  12
ATOM     12  N   UNL     1      -1.165  -0.703  -0.017  0.00  0.00    -0.215 N 
ATOM     13  H   UNL     1      -0.889   0.147  -0.394  0.00  0.00    +0.174 HD
BRANCH  12  19
ATOM     14  C   UNL     1      -0.616  -0.231   2.286  0.00  0.00    +0.025 A 
ATOM     15  C   UNL     1      -0.916  -0.327   3.630  0.00  0.00    +0.016 A 
ATOM     16  C   UNL     1      -2.061  -0.988   4.040  0.00  0.00    +0.013 A 
ATOM     17  C   UNL     1      -2.908  -1.554   3.104  0.00  0.00    +0.016 A 
ATOM     18  C   UNL     1      -2.613  -1.462   1.758  0.00  0.00    +0.025 A 
ATOM     19  C   UNL     1      -1.465  -0.798   1.344  0.00  0.00    +0.048 A 
ATOM     20  I   UNL     1      -2.511  -1.132   6.080  0.00  0.00    -0.044 I 
ENDBRANCH  12  19
ENDBRANCH   9  12
ENDBRANCH   1   9
BRANCH   2  21
ATOM     21  N   UNL     1       1.889  -2.380  -1.485  0.00  0.00    -0.265 N 
ATOM     22  H   UNL     1       1.417  -1.651  -1.917  0.00  0.00    +0.168 HD
BRANCH  21  23
ATOM     23  N   UNL     1       3.230  -2.539  -1.685  0.00  0.00    -0.255 NA
ATOM     24  H   UNL     1       3.437  -3.462  -2.038  0.00  0.00    +0.140 HD
ATOM     25  H   UNL     1       3.591  -1.827  -2.302  0.00  0.00    +0.140 HD
ENDBRANCH  21  23
ENDBRANCH   2  21
TORSDOF 5
