REMARK  Name = ZINC01417110
REMARK  4 active torsions:
REMARK  status: ('A' for Active; 'I' for Inactive)
REMARK    1  A    between atoms: C_1  and  N_2
REMARK    2  A    between atoms: C_3  and  C_5
REMARK    3  A    between atoms: C_6  and  N_10
REMARK    4  A    between atoms: C_11  and  C_13
REMARK                            x       y       z     vdW  Elec       q    Type
REMARK                         _______ _______ _______ _____ _____    ______ ____
ROOT
ATOM      1  C   UNL     1      -2.203  -2.982   0.013  0.00  0.00    +0.177 A 
ATOM      2  C   UNL     1      -1.137  -2.079   0.002  0.00  0.00    +0.125 A 
ATOM      3  S   UNL     1       0.217  -3.164  -0.016  0.00  0.00    +0.052 S 
ATOM      4  N   UNL     1      -0.648  -4.639  -0.017  0.00  0.00    -0.108 NA
ATOM      5  N   UNL     1      -1.882  -4.266  -0.003  0.00  0.00    -0.135 NA
ENDROOT
BRANCH   1   8
ATOM      6  C   UNL     1      -5.995  -2.986   0.070  0.00  0.00    +0.128 C 
ATOM      7  N   UNL     1      -4.601  -3.435   0.046  0.00  0.00    -0.313 N 
ATOM      8  C   UNL     1      -3.601  -2.531   0.036  0.00  0.00    +0.266 C 
ATOM      9  O   UNL     1      -3.857  -1.342   0.047  0.00  0.00    -0.268 OA
ATOM     10  H   UNL     1      -4.397  -4.384   0.038  0.00  0.00    +0.149 HD
ENDBRANCH   1   8
BRANCH   2  11
ATOM     11  N   UNL     1      -1.156  -0.694   0.009  0.00  0.00    -0.270 N 
ATOM     12  C   UNL     1       0.002  -0.004   0.002  0.00  0.00    +0.322 C 
ATOM     13  O   UNL     1       1.060  -0.596  -0.011  0.00  0.00    -0.266 OA
ATOM     14  H   UNL     1      -2.002  -0.220   0.020  0.00  0.00    +0.156 HD
BRANCH  12  15
ATOM     15  C   UNL     1      -0.018   1.503   0.010  0.00  0.00    +0.470 C 
ATOM     16  F   UNL     1       1.294   1.987   0.000  0.00  0.00    -0.162 F 
ATOM     17  F   UNL     1      -0.695   1.966  -1.123  0.00  0.00    -0.162 F 
ATOM     18  F   UNL     1      -0.673   1.954   1.161  0.00  0.00    -0.162 F 
ENDBRANCH  12  15
ENDBRANCH   2  11
TORSDOF 3
