REMARK  Name = ZINC12914557
REMARK  14 active torsions:
REMARK  status: ('A' for Active; 'I' for Inactive)
REMARK    1  A    between atoms: C_1  and  C_2
REMARK    2  A    between atoms: C_2  and  C_3
REMARK    3  A    between atoms: C_3  and  C_4
REMARK    4  A    between atoms: C_4  and  N_5
REMARK    5  A    between atoms: C_6  and  N_37
REMARK    6  A    between atoms: C_7  and  N_14
REMARK    7  A    between atoms: N_14  and  C_15
REMARK    8  A    between atoms: C_15  and  C_16
REMARK    9  A    between atoms: C_16  and  O_17
REMARK   10  A    between atoms: O_17  and  C_18
REMARK   11  A    between atoms: C_19  and  C_21
REMARK   12  A    between atoms: C_24  and  C_36
REMARK   13  A    between atoms: C_25  and  S_27
REMARK   14  A    between atoms: S_27  and  N_30
REMARK                            x       y       z     vdW  Elec       q    Type
REMARK                         _______ _______ _______ _____ _____    ______ ____
ROOT
ATOM      1  N   UNL     1      -0.047  -3.406  -7.213  0.00  0.00    -0.258 N 
ATOM      2  C   UNL     1      -1.161  -2.675  -7.011  0.00  0.00    +0.251 C 
ATOM      3  O   UNL     1      -1.844  -2.335  -7.957  0.00  0.00    -0.270 OA
ENDROOT
BRANCH   1   6
ATOM      4  N   UNL     1       2.879  -3.590  -4.998  0.00  0.00    -0.280 N 
ATOM      5  C   UNL     1       2.086  -3.257  -6.072  0.00  0.00    +0.127 A 
ATOM      6  C   UNL     1       0.791  -3.730  -6.125  0.00  0.00    +0.140 A 
ATOM      7  C   UNL     1       0.320  -4.541  -5.075  0.00  0.00    +0.277 A 
ATOM      8  O   UNL     1      -0.820  -4.973  -5.097  0.00  0.00    -0.266 OA
ATOM      9  N   UNL     1       1.138  -4.837  -4.046  0.00  0.00    -0.273 N 
ATOM     10  H   UNL     1       0.814  -5.396  -3.322  0.00  0.00    +0.173 HD
ATOM     11  C   UNL     1       2.399  -4.371  -4.014  0.00  0.00    +0.331 A 
ATOM     12  O   UNL     1       3.117  -4.658  -3.076  0.00  0.00    -0.246 OA
BRANCH   5  13
ATOM     13  N   UNL     1       2.578  -2.462  -7.080  0.00  0.00    -0.343 N 
ATOM     14  H   UNL     1       3.465  -2.077  -7.004  0.00  0.00    +0.144 HD
ATOM     15  H   UNL     1       2.039  -2.288  -7.867  0.00  0.00    +0.144 HD
ENDBRANCH   5  13
BRANCH   4  16
ATOM     16  C   UNL     1       4.256  -3.094  -4.929  0.00  0.00    +0.128 C 
BRANCH  16  17
ATOM     17  C   UNL     1       5.192  -4.093  -5.612  0.00  0.00    +0.021 C 
BRANCH  17  19
ATOM     18  C   UNL     1       7.566  -4.575  -6.223  0.00  0.00    +0.004 C 
ATOM     19  C   UNL     1       6.630  -3.576  -5.539  0.00  0.00    -0.002 C 
ENDBRANCH  17  19
ENDBRANCH  16  17
ENDBRANCH   4  16
ENDBRANCH   1   6
BRANCH   2  20
ATOM     20  C   UNL     1      -1.551  -2.286  -5.639  0.00  0.00    +0.039 A 
ATOM     21  C   UNL     1      -0.577  -2.122  -4.653  0.00  0.00    +0.013 A 
ATOM     22  C   UNL     1      -0.948  -1.759  -3.375  0.00  0.00    +0.006 A 
ATOM     23  C   UNL     1      -2.283  -1.558  -3.070  0.00  0.00    -0.024 A 
ATOM     24  C   UNL     1      -3.253  -1.720  -4.042  0.00  0.00    +0.109 A 
ATOM     25  C   UNL     1      -2.895  -2.077  -5.326  0.00  0.00    +0.041 A 
ATOM     26  C   UNL     1      -2.681  -1.163  -1.671  0.00  0.00    +0.046 C 
BRANCH  24  27
ATOM     27  S   UNL     1      -4.950  -1.462  -3.643  0.00  0.00    +0.061 S 
ATOM     28  O   UNL     1      -5.692  -1.744  -4.821  0.00  0.00    -0.153 OA
ATOM     29  O   UNL     1      -5.185  -2.137  -2.415  0.00  0.00    -0.153 OA
BRANCH  27  30
ATOM     30  N   UNL     1      -5.141   0.154  -3.338  0.00  0.00    -0.172 NA
ATOM     31  C   UNL     1      -5.089   0.677  -1.964  0.00  0.00    +0.137 C 
ATOM     32  C   UNL     1      -4.107   1.854  -1.931  0.00  0.00    +0.177 C 
ATOM     33  O   UNL     1      -4.459   2.789  -2.953  0.00  0.00    -0.377 OA
ATOM     34  C   UNL     1      -4.372   2.266  -4.280  0.00  0.00    +0.177 C 
ATOM     35  C   UNL     1      -5.362   1.111  -4.434  0.00  0.00    +0.137 C 
ENDBRANCH  27  30
ENDBRANCH  24  27
ENDBRANCH   2  20
BRANCH   1  36
ATOM     36  C   UNL     1       0.294  -3.865  -8.562  0.00  0.00    +0.142 C 
BRANCH  36  37
ATOM     37  C   UNL     1      -0.411  -5.194  -8.842  0.00  0.00    +0.179 C 
BRANCH  37  38
ATOM     38  O   UNL     1      -1.825  -4.989  -8.858  0.00  0.00    -0.381 OA
ATOM     39  C   UNL     1      -2.581  -6.175  -9.112  0.00  0.00    +0.194 C 
ENDBRANCH  37  38
ENDBRANCH  36  37
ENDBRANCH   1  36
TORSDOF 11
