REMARK  Name = ZINC40151245
REMARK  9 active torsions:
REMARK  status: ('A' for Active; 'I' for Inactive)
REMARK    1  A    between atoms: C_5  and  C_7
REMARK    2  A    between atoms: N_9  and  N_10
REMARK    3  A    between atoms: C_11  and  C_12
REMARK    4  A    between atoms: C_11  and  C_24
REMARK    5  A    between atoms: C_24  and  C_26
REMARK    6  A    between atoms: C_24  and  O_31
REMARK    7  A    between atoms: C_26  and  C_28
REMARK    8  A    between atoms: C_26  and  O_30
REMARK    9  A    between atoms: C_28  and  O_29
REMARK                            x       y       z     vdW  Elec       q    Type
REMARK                         _______ _______ _______ _____ _____    ______ ____
ROOT
ATOM      1  N   UNL     1       0.298  -4.304   0.384  0.00  0.00    -0.184 NA
ATOM      2  C   UNL     1      -0.822  -4.910   0.258  0.00  0.00    +0.099 C 
ENDROOT
BRANCH   2   3
ATOM      3  C   UNL     1      -2.091  -4.118   0.073  0.00  0.00    +0.215 C 
ATOM      4  C   UNL     1      -2.362  -4.023  -1.411  0.00  0.00    +0.245 C 
ATOM      5  O   UNL     1      -1.538  -3.531  -2.157  0.00  0.00    -0.273 OA
ATOM      6  N   UNL     1      -3.518  -4.486  -1.891  0.00  0.00    -0.282 N 
ATOM      7  C   UNL     1      -4.431  -5.026  -1.101  0.00  0.00    +0.057 A 
ATOM      8  C   UNL     1      -5.644  -5.506  -1.642  0.00  0.00    +0.025 A 
ATOM      9  C   UNL     1      -6.582  -6.059  -0.837  0.00  0.00    +0.002 A 
ATOM     10  C   UNL     1      -6.413  -6.186   0.551  0.00  0.00    +0.002 A 
ATOM     11  C   UNL     1      -5.290  -5.760   1.171  0.00  0.00    +0.027 A 
ATOM     12  C   UNL     1      -4.222  -5.147   0.364  0.00  0.00    +0.058 A 
ATOM     13  N   UNL     1      -3.126  -4.725   0.924  0.00  0.00    -0.368 N 
ATOM     14  H   UNL     1      -3.693  -4.425  -2.843  0.00  0.00    +0.155 HD
ATOM     15  H   UNL     1      -2.996  -4.807   1.882  0.00  0.00    +0.161 HD
ENDBRANCH   2   3
BRANCH   1  18
ATOM     16  C   UNL     1       1.558  -2.287   0.270  0.00  0.00    +0.264 C 
ATOM     17  O   UNL     1       2.582  -2.934   0.377  0.00  0.00    -0.268 OA
ATOM     18  N   UNL     1       0.366  -2.915   0.214  0.00  0.00    -0.203 N 
ATOM     19  H   UNL     1      -0.444  -2.406   0.056  0.00  0.00    +0.178 HD
BRANCH  16  24
ATOM     20  C   UNL     1       0.526   1.303  -0.112  0.00  0.00    +0.001 A 
ATOM     21  C   UNL     1       1.734   1.952   0.073  0.00  0.00    +0.001 A 
ATOM     22  C   UNL     1       2.885   1.226   0.321  0.00  0.00    +0.015 A 
ATOM     23  C   UNL     1       2.835  -0.152   0.387  0.00  0.00    +0.026 A 
ATOM     24  C   UNL     1       1.619  -0.812   0.202  0.00  0.00    +0.051 A 
ATOM     25  C   UNL     1       0.461  -0.073  -0.049  0.00  0.00    +0.014 A 
ATOM     26  I   UNL     1       4.580  -1.249   0.763  0.00  0.00    -0.043 I 
ENDBRANCH  16  24
ENDBRANCH   1  18
BRANCH   2  27
ATOM     27  C   UNL     1      -0.873  -6.416   0.295  0.00  0.00    +0.193 C 
BRANCH  27  28
ATOM     28  O   UNL     1      -1.573  -6.841   1.466  0.00  0.00    -0.383 OA
ATOM     29  H   UNL     1      -2.524  -6.671   1.439  0.00  0.00    +0.210 HD
ENDBRANCH  27  28
BRANCH  27  30
ATOM     30  C   UNL     1       0.552  -6.974   0.322  0.00  0.00    +0.174 C 
BRANCH  30  31
ATOM     31  O   UNL     1       1.252  -6.549  -0.849  0.00  0.00    -0.387 OA
ATOM     32  H   UNL     1       0.847  -6.841  -1.677  0.00  0.00    +0.210 HD
ENDBRANCH  30  31
BRANCH  30  33
ATOM     33  C   UNL     1       0.501  -8.502   0.360  0.00  0.00    +0.190 C 
BRANCH  33  34
ATOM     34  O   UNL     1       1.825  -9.020   0.502  0.00  0.00    -0.392 OA
ATOM     35  H   UNL     1       1.869  -9.986   0.533  0.00  0.00    +0.210 HD
ENDBRANCH  33  34
ENDBRANCH  30  33
ENDBRANCH  27  30
ENDBRANCH   2  27
TORSDOF 9
