REMARK  Name = ZINC50566285
REMARK  7 active torsions:
REMARK  status: ('A' for Active; 'I' for Inactive)
REMARK    1  A    between atoms: C_1  and  C_2
REMARK    2  A    between atoms: C_8  and  C_10
REMARK    3  A    between atoms: C_11  and  C_13
REMARK    4  A    between atoms: C_13  and  C_14
REMARK    5  A    between atoms: C_13  and  C_15
REMARK    6  A    between atoms: C_13  and  C_16
REMARK    7  A    between atoms: C_16  and  N_18
REMARK                            x       y       z     vdW  Elec       q    Type
REMARK                         _______ _______ _______ _____ _____    ______ ____
ROOT
ATOM      1  C   UNL     1      -2.369   0.622  -0.603  0.00  0.00    +0.009 C 
ATOM      2  C   UNL     1      -1.562  -0.677  -0.597  0.00  0.00    +0.006 C 
ATOM      3  C   UNL     1      -2.517  -1.873  -0.611  0.00  0.00    +0.006 C 
ATOM      4  C   UNL     1      -1.710  -3.173  -0.638  0.00  0.00    +0.019 C 
ATOM      5  C   UNL     1      -0.847  -3.260   0.624  0.00  0.00    +0.108 C 
ATOM      6  N   UNL     1      -0.028  -2.043   0.722  0.00  0.00    -0.298 N 
ATOM      7  C   UNL     1      -0.695  -0.736   0.666  0.00  0.00    +0.076 C 
ATOM      8  C   UNL     1       0.355   0.376   0.619  0.00  0.00    +0.028 C 
ATOM      9  C   UNL     1       1.310  -2.126   0.859  0.00  0.00    +0.228 C 
ATOM     10  O   UNL     1       1.983  -1.117   0.858  0.00  0.00    -0.275 OA
ENDROOT
BRANCH   9  11
ATOM     11  C   UNL     1       1.970  -3.471   1.016  0.00  0.00    +0.086 C 
ATOM     12  C   UNL     1       1.865  -4.247  -0.299  0.00  0.00    +0.027 C 
ATOM     13  C   UNL     1       3.444  -3.277   1.377  0.00  0.00    +0.027 C 
BRANCH  11  14
ATOM     14  C   UNL     1       1.282  -4.244   2.111  0.00  0.00    +0.061 C 
ATOM     15  S   UNL     1       0.297  -3.493   3.122  0.00  0.00    -0.040 S 
BRANCH  14  16
ATOM     16  N   UNL     1       1.498  -5.568   2.239  0.00  0.00    -0.355 N 
ATOM     17  H   UNL     1       2.095  -6.024   1.626  0.00  0.00    +0.143 HD
ATOM     18  H   UNL     1       1.055  -6.066   2.945  0.00  0.00    +0.143 HD
ENDBRANCH  14  16
ENDBRANCH  11  14
ENDBRANCH   9  11
TORSDOF 3
