REMARK  Name = ZINC12603302
REMARK  11 active torsions:
REMARK  status: ('A' for Active; 'I' for Inactive)
REMARK    1  A    between atoms: C_1  and  C_2
REMARK    2  A    between atoms: C_2  and  C_3
REMARK    3  A    between atoms: C_2  and  C_4
REMARK    4  A    between atoms: C_4  and  C_5
REMARK    5  A    between atoms: C_8  and  N_31
REMARK    6  A    between atoms: C_14  and  C_27
REMARK    7  A    between atoms: C_27  and  O_29
REMARK    8  A    between atoms: O_29  and  C_30
REMARK    9  A    between atoms: N_31  and  C_32
REMARK   10  A    between atoms: C_32  and  C_33
REMARK   11  A    between atoms: C_33  and  O_34
REMARK                            x       y       z     vdW  Elec       q    Type
REMARK                         _______ _______ _______ _____ _____    ______ ____
ROOT
ATOM      1  C   UNL     1       0.631  -2.508  -1.608  0.00  0.00    +0.057 C 
ATOM      2  C   UNL     1       1.294  -3.216  -2.792  0.00  0.00    +0.003 C 
ATOM      3  C   UNL     1       0.913  -4.699  -2.779  0.00  0.00    -0.068 C 
ATOM      4  C   UNL     1      -0.613  -4.832  -2.816  0.00  0.00    +0.009 C 
ATOM      5  C   UNL     1      -1.208  -4.082  -1.623  0.00  0.00    +0.103 C 
ATOM      6  N   UNL     1      -0.825  -2.665  -1.703  0.00  0.00    -0.278 NA
ATOM      7  C   UNL     1      -1.528  -1.855  -0.703  0.00  0.00    +0.171 C 
ATOM      8  C   UNL     1      -3.009  -1.737  -1.088  0.00  0.00    +0.068 C 
ATOM      9  C   UNL     1      -3.521  -3.118  -1.414  0.00  0.00    -0.016 A 
ATOM     10  C   UNL     1      -2.713  -4.177  -1.656  0.00  0.00    +0.038 A 
ATOM     11  N   UNL     1      -3.471  -5.285  -1.918  0.00  0.00    -0.356 N 
ATOM     12  H   UNL     1      -2.983  -6.246  -2.139  0.00  0.00    +0.166 HD
ATOM     13  C   UNL     1      -4.797  -4.965  -1.851  0.00  0.00    +0.047 A 
ATOM     14  C   UNL     1      -4.884  -3.585  -1.532  0.00  0.00    +0.003 A 
ATOM     15  C   UNL     1      -6.122  -2.949  -1.392  0.00  0.00    +0.010 A 
ATOM     16  C   UNL     1      -7.241  -3.723  -1.577  0.00  0.00    +0.001 A 
ATOM     17  C   UNL     1      -7.162  -5.070  -1.888  0.00  0.00    +0.002 A 
ATOM     18  C   UNL     1      -5.951  -5.724  -2.033  0.00  0.00    +0.026 A 
ENDROOT
BRANCH   3  19
ATOM     19  N   UNL     1       1.492  -5.364  -3.953  0.00  0.00    +0.382 N 
ATOM     20  H   UNL     1       0.820  -5.238  -4.815  0.00  0.00    -0.085 HD
ATOM     21  H   UNL     1       2.471  -4.917  -4.183  0.00  0.00    -0.085 HD
BRANCH  19  22
ATOM     22  C   UNL     1       1.677  -6.801  -3.707  0.00  0.00    -0.054 C 
BRANCH  22  23
ATOM     23  C   UNL     1       2.281  -7.458  -4.949  0.00  0.00    +0.137 C 
BRANCH  23  24
ATOM     24  O   UNL     1       3.594  -6.941  -5.171  0.00  0.00    -0.397 OA
ATOM     25  H   UNL     1       4.189  -7.297  -6.025  0.00  0.00    +0.209 HD
ENDBRANCH  23  24
ENDBRANCH  22  23
ENDBRANCH  19  22
ENDBRANCH   3  19
BRANCH   7  26
ATOM     26  C   UNL     1      -1.410  -2.512   0.648  0.00  0.00    +0.325 C 
ATOM     27  O   UNL     1      -0.641  -3.430   0.808  0.00  0.00    -0.249 OA
BRANCH  26  28
ATOM     28  O   UNL     1      -2.160  -2.078   1.673  0.00  0.00    -0.467 OA
ATOM     29  C   UNL     1      -1.994  -2.758   2.945  0.00  0.00    +0.280 C 
ENDBRANCH  26  28
ENDBRANCH   7  26
BRANCH   1  30
ATOM     30  C   UNL     1       0.987  -1.020  -1.637  0.00  0.00    +0.022 C 
BRANCH  30  32
ATOM     31  C   UNL     1       1.095   1.020  -3.075  0.00  0.00    +0.007 C 
ATOM     32  C   UNL     1       0.643  -0.441  -3.010  0.00  0.00    -0.016 C 
ATOM     33  C   UNL     1      -0.869  -0.517  -3.231  0.00  0.00    +0.007 C 
ENDBRANCH  30  32
ENDBRANCH   1  30
TORSDOF 8
