REMARK  Name = ZINC01199597
REMARK  3 active torsions:
REMARK  status: ('A' for Active; 'I' for Inactive)
REMARK    1  A    between atoms: C_1  and  S_2
REMARK    2  A    between atoms: S_2  and  C_3
REMARK    3  A    between atoms: C_16  and  C_19
REMARK                            x       y       z     vdW  Elec       q    Type
REMARK                         _______ _______ _______ _____ _____    ______ ____
ROOT
ATOM      1  C   UNL     1      -3.466  -2.246  -0.042  0.00  0.00    +0.212 A 
ATOM      2  N   UNL     1      -2.519  -2.584   0.828  0.00  0.00    -0.184 NA
ATOM      3  C   UNL     1      -1.400  -1.881   0.870  0.00  0.00    +0.248 A 
ATOM      4  C   UNL     1      -1.246  -0.795  -0.020  0.00  0.00    +0.156 A 
ATOM      5  N   UNL     1      -2.229  -0.509  -0.859  0.00  0.00    -0.141 NA
ATOM      6  N   UNL     1      -3.305  -1.218  -0.865  0.00  0.00    -0.122 NA
ATOM      7  C   UNL     1       0.002  -0.004   0.002  0.00  0.00    +0.028 A 
ATOM      8  C   UNL     1      -0.017   1.385   0.010  0.00  0.00    +0.012 A 
ATOM      9  C   UNL     1       1.173   2.088   0.002  0.00  0.00    +0.001 A 
ATOM     10  C   UNL     1       2.383   1.416  -0.013  0.00  0.00    +0.002 A 
ATOM     11  C   UNL     1       2.417   0.034  -0.016  0.00  0.00    +0.024 A 
ATOM     12  C   UNL     1       1.235  -0.684  -0.003  0.00  0.00    +0.040 A 
ATOM     13  N   UNL     1       1.231  -2.082   0.013  0.00  0.00    -0.303 N 
ATOM     14  C   UNL     1       0.774  -2.769   1.218  0.00  0.00    +0.329 C 
ATOM     15  O   UNL     1      -0.410  -2.181   1.745  0.00  0.00    -0.445 OA
ATOM     16  H   UNL     1       1.527  -2.586  -0.761  0.00  0.00    +0.150 HD
ENDROOT
BRANCH  14  17
ATOM     17  C   UNL     1       1.860  -2.706   2.261  0.00  0.00    +0.165 A 
ATOM     18  C   UNL     1       2.084  -3.622   3.219  0.00  0.00    +0.051 A 
ATOM     19  C   UNL     1       3.193  -3.168   3.970  0.00  0.00    +0.056 A 
ATOM     20  C   UNL     1       3.575  -1.996   3.429  0.00  0.00    +0.165 A 
ATOM     21  O   UNL     1       2.764  -1.722   2.394  0.00  0.00    -0.449 OA
ATOM     22  I   UNL     1       5.166  -0.803   4.090  0.00  0.00    -0.001 I 
ENDBRANCH  14  17
BRANCH   1  24
ATOM     23  C   UNL     1      -5.831  -2.292  -1.418  0.00  0.00    +0.093 C 
ATOM     24  S   UNL     1      -4.960  -3.179  -0.103  0.00  0.00    -0.088 S 
ENDBRANCH   1  24
TORSDOF 2
