REMARK  Name = ZINC20911713
REMARK  13 active torsions:
REMARK  status: ('A' for Active; 'I' for Inactive)
REMARK    1  A    between atoms: C_1  and  C_2
REMARK    2  A    between atoms: C_5  and  N_9
REMARK    3  A    between atoms: C_10  and  C_12
REMARK    4  A    between atoms: C_12  and  S_13
REMARK    5  A    between atoms: S_13  and  C_14
REMARK    6  A    between atoms: N_18  and  N_19
REMARK    7  A    between atoms: N_20  and  N_21
REMARK    8  A    between atoms: C_22  and  C_23
REMARK    9  A    between atoms: C_24  and  C_32
REMARK   10  A    between atoms: N_26  and  C_29
REMARK   11  A    between atoms: C_27  and  C_28
REMARK   12  A    between atoms: C_29  and  C_30
REMARK   13  A    between atoms: C_29  and  C_31
REMARK                            x       y       z     vdW  Elec       q    Type
REMARK                         _______ _______ _______ _____ _____    ______ ____
ROOT
ATOM      1  C   UNL     1      -7.727   3.700  -0.364  0.00  0.00    +0.210 A 
ATOM      2  N   UNL     1      -7.751   5.011  -0.353  0.00  0.00    -0.119 NA
ATOM      3  N   UNL     1      -9.087   5.420  -0.459  0.00  0.00    -0.109 NA
ATOM      4  C   UNL     1      -9.835   4.346  -0.524  0.00  0.00    +0.254 A 
ATOM      5  N   UNL     1      -9.014   3.255  -0.467  0.00  0.00    -0.211 N 
ATOM      6  N   UNL     1     -11.218   4.321  -0.631  0.00  0.00    -0.204 N 
ATOM      7  H   UNL     1     -11.749   3.359  -0.677  0.00  0.00    +0.177 HD
ENDROOT
BRANCH   5   8
ATOM      8  N   UNL     1      -9.411   1.948  -0.506  0.00  0.00    -0.294 N 
ATOM      9  H   UNL     1     -10.479   1.700  -0.591  0.00  0.00    +0.163 HD
ATOM     10  H   UNL     1      -8.662   1.144  -0.453  0.00  0.00    +0.163 HD
ENDBRANCH   5   8
BRANCH   6  11
ATOM     11  N   UNL     1     -11.939   5.522  -0.679  0.00  0.00    -0.187 NA
ATOM     12  C   UNL     1     -13.232   5.498  -0.779  0.00  0.00    +0.141 C 
BRANCH  12  13
ATOM     13  C   UNL     1     -13.992   6.763  -0.830  0.00  0.00    +0.038 A 
ATOM     14  C   UNL     1     -13.451   8.066  -0.781  0.00  0.00    +0.069 A 
ATOM     15  N   UNL     1     -14.438   8.919  -0.852  0.00  0.00    -0.175 NA
ATOM     16  N   UNL     1     -15.641   8.210  -0.949  0.00  0.00    -0.265 N 
ATOM     17  C   UNL     1     -15.359   6.892  -0.940  0.00  0.00    +0.045 A 
ATOM     18  C   UNL     1     -16.356   5.765  -1.030  0.00  0.00    +0.066 C 
ATOM     19  C   UNL     1     -11.989   8.413  -0.665  0.00  0.00    +0.068 C 
BRANCH  16  20
ATOM     20  C   UNL     1     -16.978   8.801  -1.049  0.00  0.00    +0.101 C 
ATOM     21  C   UNL     1     -17.250   9.659   0.188  0.00  0.00    +0.032 C 
ATOM     22  C   UNL     1     -17.058   9.674  -2.303  0.00  0.00    +0.032 C 
ENDBRANCH  16  20
ENDBRANCH  12  13
ENDBRANCH   6  11
BRANCH   1  23
ATOM     23  S   UNL     1      -6.287   2.690  -0.259  0.00  0.00    -0.075 S 
BRANCH  23  24
ATOM     24  C   UNL     1      -4.923   3.881  -0.146  0.00  0.00    +0.173 C 
BRANCH  24  26
ATOM     25  N   UNL     1      -2.457   3.822   0.045  0.00  0.00    -0.285 N 
ATOM     26  C   UNL     1      -3.615   3.139  -0.049  0.00  0.00    +0.227 C 
ATOM     27  O   UNL     1      -3.604   1.926  -0.055  0.00  0.00    -0.275 OA
ATOM     28  H   UNL     1      -2.472   4.918   0.138  0.00  0.00    +0.155 HD
BRANCH  25  33
ATOM     29  C   UNL     1       2.493   1.052  -0.040  0.00  0.00    +0.045 C 
ATOM     30  C   UNL     1       1.178   1.787  -0.017  0.00  0.00    -0.032 A 
ATOM     31  C   UNL     1       1.044   2.938   0.738  0.00  0.00    +0.006 A 
ATOM     32  C   UNL     1      -0.161   3.611   0.765  0.00  0.00    +0.023 A 
ATOM     33  C   UNL     1      -1.237   3.138   0.024  0.00  0.00    +0.035 A 
ATOM     34  C   UNL     1      -1.100   1.983  -0.733  0.00  0.00    +0.043 A 
ATOM     35  C   UNL     1       0.107   1.310  -0.752  0.00  0.00    +0.046 A 
ATOM     36 CL   UNL     1       0.280  -0.135  -1.699  0.00  0.00    -0.083 Cl
ENDBRANCH  25  33
ENDBRANCH  24  26
ENDBRANCH  23  24
ENDBRANCH   1  23
TORSDOF 8
