REMARK  Name = ZINC15774938
REMARK  10 active torsions:
REMARK  status: ('A' for Active; 'I' for Inactive)
REMARK    1  A    between atoms: C_11  and  C_13
REMARK    2  A    between atoms: C_13  and  C_27
REMARK    3  A    between atoms: N_14  and  N_15
REMARK    4  A    between atoms: C_16  and  C_18
REMARK    5  A    between atoms: C_21  and  N_24
REMARK    6  A    between atoms: C_27  and  C_29
REMARK    7  A    between atoms: C_27  and  O_34
REMARK    8  A    between atoms: C_29  and  C_31
REMARK    9  A    between atoms: C_29  and  O_33
REMARK   10  A    between atoms: C_31  and  O_32
REMARK                            x       y       z     vdW  Elec       q    Type
REMARK                         _______ _______ _______ _____ _____    ______ ____
ROOT
ATOM      1  C   UNL     1       3.429   6.311   0.210  0.00  0.00    +0.121 C 
ATOM      2  N   UNL     1       2.313   5.646   0.138  0.00  0.00    -0.180 NA
ENDROOT
BRANCH   1  13
ATOM      3  C   UNL     1       9.078   3.644  -1.011  0.00  0.00    +0.002 A 
ATOM      4  C   UNL     1       8.628   4.357  -2.115  0.00  0.00    +0.002 A 
ATOM      5  C   UNL     1       7.433   5.014  -2.079  0.00  0.00    +0.030 A 
ATOM      6  C   UNL     1       6.644   4.973  -0.918  0.00  0.00    +0.088 A 
ATOM      7  C   UNL     1       7.101   4.250   0.201  0.00  0.00    +0.068 A 
ATOM      8  C   UNL     1       8.323   3.588   0.141  0.00  0.00    +0.028 A 
ATOM      9  N   UNL     1       6.338   4.198   1.353  0.00  0.00    -0.319 N 
ATOM     10  H   UNL     1       6.649   3.701   2.126  0.00  0.00    +0.169 HD
ATOM     11  C   UNL     1       5.158   4.853   1.390  0.00  0.00    +0.277 A 
ATOM     12  O   UNL     1       4.469   4.828   2.393  0.00  0.00    -0.266 OA
ATOM     13  C   UNL     1       4.712   5.596   0.195  0.00  0.00    +0.154 A 
ATOM     14  N   UNL     1       5.466   5.621  -0.882  0.00  0.00    -0.238 NA
ENDBRANCH   1  13
BRANCH   2  15
ATOM     15  N   UNL     1       2.335   4.261  -0.068  0.00  0.00    -0.203 N 
ATOM     16  C   UNL     1       1.181   3.587  -0.241  0.00  0.00    +0.263 C 
ATOM     17  O   UNL     1       0.128   4.192  -0.309  0.00  0.00    -0.268 OA
ATOM     18  H   UNL     1       3.181   3.786  -0.086  0.00  0.00    +0.178 HD
BRANCH  16  19
ATOM     19  C   UNL     1       1.194   2.114  -0.349  0.00  0.00    +0.038 A 
ATOM     20  C   UNL     1      -0.007   1.405  -0.419  0.00  0.00    +0.015 A 
ATOM     21  C   UNL     1       0.013   0.029  -0.520  0.00  0.00    +0.033 A 
ATOM     22  C   UNL     1       1.219  -0.648  -0.551  0.00  0.00    +0.126 A 
ATOM     23  C   UNL     1       2.413   0.048  -0.481  0.00  0.00    +0.033 A 
ATOM     24  C   UNL     1       2.408   1.424  -0.380  0.00  0.00    +0.015 A 
BRANCH  22  25
ATOM     25  N   UNL     1       1.233  -2.124  -0.660  0.00  0.00    +0.056 N 
ATOM     26  O   UNL     1       0.184  -2.740  -0.721  0.00  0.00    -0.126 OA
ATOM     27  O   UNL     1       2.293  -2.723  -0.687  0.00  0.00    -0.126 OA
ENDBRANCH  22  25
ENDBRANCH  16  19
ENDBRANCH   2  15
BRANCH   1  28
ATOM     28  C   UNL     1       3.406   7.814   0.308  0.00  0.00    +0.197 C 
BRANCH  28  29
ATOM     29  O   UNL     1       4.521   8.355  -0.404  0.00  0.00    -0.383 OA
ATOM     30  H   UNL     1       4.534   8.131  -1.344  0.00  0.00    +0.210 HD
ENDBRANCH  28  29
BRANCH  28  31
ATOM     31  C   UNL     1       3.489   8.231   1.778  0.00  0.00    +0.174 C 
BRANCH  31  32
ATOM     32  O   UNL     1       4.643   7.638   2.377  0.00  0.00    -0.387 OA
ATOM     33  H   UNL     1       5.477   7.895   1.961  0.00  0.00    +0.210 HD
ENDBRANCH  31  32
BRANCH  31  34
ATOM     34  C   UNL     1       3.591   9.755   1.871  0.00  0.00    +0.190 C 
BRANCH  34  35
ATOM     35  O   UNL     1       3.550  10.151   3.244  0.00  0.00    -0.392 OA
ATOM     36  H   UNL     1       3.610  11.107   3.379  0.00  0.00    +0.210 HD
ENDBRANCH  34  35
ENDBRANCH  31  34
ENDBRANCH  28  31
ENDBRANCH   1  28
TORSDOF 10
