REMARK  Name = ZINC02387972
REMARK  10 active torsions:
REMARK  status: ('A' for Active; 'I' for Inactive)
REMARK    1  A    between atoms: C_1  and  C_2
REMARK    2  A    between atoms: C_7  and  C_8
REMARK    3  A    between atoms: N_9  and  N_10
REMARK    4  A    between atoms: C_11  and  N_31
REMARK    5  A    between atoms: C_12  and  C_23
REMARK    6  A    between atoms: N_25  and  C_26
REMARK    7  A    between atoms: C_26  and  C_27
REMARK    8  A    between atoms: C_27  and  C_28
REMARK    9  A    between atoms: C_28  and  C_29
REMARK   10  A    between atoms: C_28  and  C_30
REMARK                            x       y       z     vdW  Elec       q    Type
REMARK                         _______ _______ _______ _____ _____    ______ ____
ROOT
ATOM      1  N   UNL     1      -4.659   0.628  -0.790  0.00  0.00    -0.198 N 
ATOM      2  C   UNL     1      -5.154   0.341  -2.028  0.00  0.00    +0.134 A 
ATOM      3  C   UNL     1      -6.284  -0.464  -1.923  0.00  0.00    +0.105 A 
ATOM      4  C   UNL     1      -6.509  -0.684  -0.485  0.00  0.00    +0.124 A 
ATOM      5  C   UNL     1      -5.432   0.043   0.194  0.00  0.00    +0.183 A 
ATOM      6  N   UNL     1      -5.371   0.029   1.508  0.00  0.00    -0.224 NA
ATOM      7  C   UNL     1      -6.289  -0.645   2.212  0.00  0.00    +0.092 A 
ATOM      8  C   UNL     1      -6.231  -0.665   3.618  0.00  0.00    +0.030 A 
ATOM      9  C   UNL     1      -7.168  -1.353   4.324  0.00  0.00    +0.002 A 
ATOM     10  C   UNL     1      -8.191  -2.044   3.676  0.00  0.00    +0.002 A 
ATOM     11  C   UNL     1      -8.280  -2.048   2.319  0.00  0.00    +0.030 A 
ATOM     12  C   UNL     1      -7.330  -1.347   1.553  0.00  0.00    +0.090 A 
ATOM     13  N   UNL     1      -7.407  -1.345   0.217  0.00  0.00    -0.241 NA
ENDROOT
BRANCH   3  14
ATOM     14  C   UNL     1      -7.092  -0.983  -3.025  0.00  0.00    +0.250 C 
ATOM     15  O   UNL     1      -8.034  -0.337  -3.446  0.00  0.00    -0.270 OA
ATOM     16  N   UNL     1      -6.794  -2.177  -3.574  0.00  0.00    -0.311 N 
ATOM     17  H   UNL     1      -6.044  -2.692  -3.238  0.00  0.00    +0.149 HD
BRANCH  16  18
ATOM     18  C   UNL     1      -7.604  -2.698  -4.678  0.00  0.00    +0.105 C 
BRANCH  18  19
ATOM     19  C   UNL     1      -7.058  -4.059  -5.113  0.00  0.00    +0.022 C 
BRANCH  19  20
ATOM     20  C   UNL     1      -7.904  -4.603  -6.266  0.00  0.00    -0.016 C 
ATOM     21  C   UNL     1      -7.746  -3.695  -7.487  0.00  0.00    +0.007 C 
ATOM     22  C   UNL     1      -7.436  -6.017  -6.619  0.00  0.00    +0.007 C 
ENDBRANCH  19  20
ENDBRANCH  18  19
ENDBRANCH  16  18
ENDBRANCH   3  14
BRANCH   2  23
ATOM     23  N   UNL     1      -4.613   0.781  -3.208  0.00  0.00    -0.342 N 
ATOM     24  H   UNL     1      -3.820   1.339  -3.200  0.00  0.00    +0.144 HD
ATOM     25  H   UNL     1      -5.024   0.534  -4.052  0.00  0.00    +0.144 HD
ENDBRANCH   2  23
BRANCH   1  27
ATOM     26  C   UNL     1      -2.353   0.859  -0.477  0.00  0.00    +0.141 C 
ATOM     27  N   UNL     1      -3.524   1.414  -0.549  0.00  0.00    -0.171 NA
BRANCH  26  34
ATOM     28  C   UNL     1      -2.665   3.675   0.107  0.00  0.00    +0.044 C 
ATOM     29  C   UNL     1      -1.296   3.047   0.060  0.00  0.00    -0.042 A 
ATOM     30  C   UNL     1      -0.174   3.816   0.290  0.00  0.00    +0.004 A 
ATOM     31  C   UNL     1       1.084   3.241   0.247  0.00  0.00    +0.000 A 
ATOM     32  C   UNL     1       1.226   1.892  -0.027  0.00  0.00    +0.001 A 
ATOM     33  C   UNL     1       0.113   1.111  -0.259  0.00  0.00    +0.010 A 
ATOM     34  C   UNL     1      -1.159   1.686  -0.223  0.00  0.00    -0.002 A 
ENDBRANCH  26  34
ENDBRANCH   1  27
TORSDOF 7
