REMARK  Name = ZINC40376483
REMARK  6 active torsions:
REMARK  status: ('A' for Active; 'I' for Inactive)
REMARK    1  A    between atoms: C_4  and  C_7
REMARK    2  A    between atoms: C_7  and  C_9
REMARK    3  A    between atoms: C_7  and  N_13
REMARK    4  A    between atoms: N_10  and  O_11
REMARK    5  A    between atoms: N_13  and  S_14
REMARK    6  A    between atoms: S_14  and  N_17
REMARK                            x       y       z     vdW  Elec       q    Type
REMARK                         _______ _______ _______ _____ _____    ______ ____
ROOT
ATOM      1  C   UNL     1       2.870  -0.461  -2.526  0.00  0.00    +0.147 C 
ENDROOT
BRANCH   1   5
ATOM      2  C   UNL     1      -0.019   1.526   0.010  0.00  0.00    +0.000 C 
ATOM      3  C   UNL     1       1.417   2.055  -0.000  0.00  0.00    +0.000 C 
ATOM      4  C   UNL     1       2.133   1.562  -1.259  0.00  0.00    +0.005 C 
ATOM      5  C   UNL     1       2.154   0.032  -1.268  0.00  0.00    +0.015 C 
ATOM      6  C   UNL     1       0.718  -0.497  -1.257  0.00  0.00    +0.005 C 
ATOM      7  C   UNL     1       0.002  -0.004   0.002  0.00  0.00    +0.000 C 
ENDBRANCH   1   5
BRANCH   1   8
ATOM      8  C   UNL     1       2.141   0.038  -3.747  0.00  0.00    +0.151 C 
ATOM      9  N   UNL     1       1.132  -0.622  -4.212  0.00  0.00    -0.075 NA
ATOM     10  N   UNL     1       2.550   1.198  -4.367  0.00  0.00    -0.343 N 
ATOM     11  H   UNL     1       3.307   1.693  -4.018  0.00  0.00    +0.144 HD
ATOM     12  H   UNL     1       2.081   1.519  -5.153  0.00  0.00    +0.144 HD
BRANCH   9  13
ATOM     13  O   UNL     1       0.448  -0.153  -5.360  0.00  0.00    -0.408 OA
ATOM     14  H   UNL     1      -0.292  -0.713  -5.632  0.00  0.00    +0.328 HD
ENDBRANCH   9  13
ENDBRANCH   1   8
BRANCH   1  15
ATOM     15  N   UNL     1       2.890  -1.926  -2.534  0.00  0.00    -0.169 NA
ATOM     16  H   UNL     1       2.138  -2.423  -2.175  0.00  0.00    +0.150 HD
BRANCH  15  17
ATOM     17  S   UNL     1       4.195  -2.733  -3.157  0.00  0.00    +0.098 S 
ATOM     18  O   UNL     1       3.928  -4.120  -2.999  0.00  0.00    -0.141 OA
ATOM     19  O   UNL     1       4.466  -2.150  -4.424  0.00  0.00    -0.141 OA
BRANCH  17  20
ATOM     20  N   UNL     1       5.492  -2.387  -2.189  0.00  0.00    -0.162 NA
ATOM     21  C   UNL     1       6.355  -1.227  -2.465  0.00  0.00    +0.138 C 
ATOM     22  C   UNL     1       6.502  -0.416  -1.172  0.00  0.00    +0.177 C 
ATOM     23  O   UNL     1       6.924  -1.284  -0.117  0.00  0.00    -0.377 OA
ATOM     24  C   UNL     1       5.991  -2.321   0.196  0.00  0.00    +0.177 C 
ATOM     25  C   UNL     1       5.814  -3.226  -1.024  0.00  0.00    +0.138 C 
ENDBRANCH  17  20
ENDBRANCH  15  17
ENDBRANCH   1  15
TORSDOF 6
