REMARK  Name = ZINC13131760
REMARK  8 active torsions:
REMARK  status: ('A' for Active; 'I' for Inactive)
REMARK    1  A    between atoms: C_1  and  C_2
REMARK    2  A    between atoms: C_3  and  C_28
REMARK    3  A    between atoms: C_4  and  C_18
REMARK    4  A    between atoms: C_10  and  C_12
REMARK    5  A    between atoms: C_21  and  O_26
REMARK    6  A    between atoms: C_22  and  O_24
REMARK    7  A    between atoms: O_24  and  C_25
REMARK    8  A    between atoms: O_26  and  C_27
REMARK                            x       y       z     vdW  Elec       q    Type
REMARK                         _______ _______ _______ _____ _____    ______ ____
ROOT
ATOM      1  C   UNL     1       0.458   1.363  -0.000  0.00  0.00    +0.066 C 
ATOM      2  C   UNL     1       0.266  -0.132   0.025  0.00  0.00    +0.052 C 
ATOM      3  C   UNL     1      -1.004  -0.637   0.005  0.00  0.00    +0.061 C 
ATOM      4  C   UNL     1      -1.150  -2.148   0.033  0.00  0.00    +0.164 C 
ATOM      5  N   UNL     1       0.100  -2.916   0.078  0.00  0.00    -0.207 N 
ATOM      6  C   UNL     1       1.297  -2.239   0.093  0.00  0.00    +0.237 C 
ATOM      7  N   UNL     1       1.332  -0.916   0.061  0.00  0.00    -0.218 NA
ATOM      8  N   UNL     1       2.276  -3.156   0.135  0.00  0.00    -0.196 NA
ATOM      9  C   UNL     1       1.766  -4.372   0.147  0.00  0.00    +0.146 C 
ATOM     10  N   UNL     1       0.400  -4.280   0.113  0.00  0.00    -0.244 N 
ATOM     11  H   UNL     1      -0.233  -5.016   0.113  0.00  0.00    +0.172 HD
ENDROOT
BRANCH   9  12
ATOM     12  C   UNL     1       2.541  -5.627   0.191  0.00  0.00    +0.016 A 
ATOM     13  C   UNL     1       1.882  -6.859   0.194  0.00  0.00    +0.011 A 
ATOM     14  C   UNL     1       2.613  -8.028   0.235  0.00  0.00    +0.001 A 
ATOM     15  C   UNL     1       3.995  -7.982   0.273  0.00  0.00    +0.000 A 
ATOM     16  C   UNL     1       4.655  -6.766   0.271  0.00  0.00    +0.001 A 
ATOM     17  C   UNL     1       3.937  -5.589   0.224  0.00  0.00    +0.011 A 
ENDBRANCH   9  12
BRANCH   4  18
ATOM     18  C   UNL     1      -1.969  -2.519   1.242  0.00  0.00    -0.017 A 
ATOM     19  C   UNL     1      -1.435  -2.370   2.509  0.00  0.00    +0.009 A 
ATOM     20  C   UNL     1      -2.182  -2.709   3.621  0.00  0.00    +0.050 A 
ATOM     21  C   UNL     1      -3.469  -3.200   3.468  0.00  0.00    +0.162 A 
ATOM     22  C   UNL     1      -4.007  -3.349   2.193  0.00  0.00    +0.162 A 
ATOM     23  C   UNL     1      -3.254  -3.003   1.083  0.00  0.00    +0.055 A 
BRANCH  22  24
ATOM     24  O   UNL     1      -5.269  -3.829   2.038  0.00  0.00    -0.491 OA
ATOM     25  C   UNL     1      -5.755  -3.956   0.700  0.00  0.00    +0.277 C 
ENDBRANCH  22  24
BRANCH  21  26
ATOM     26  O   UNL     1      -4.205  -3.534   4.562  0.00  0.00    -0.491 OA
ATOM     27  C   UNL     1      -3.589  -3.355   5.838  0.00  0.00    +0.277 C 
ENDBRANCH  21  26
ENDBRANCH   4  18
BRANCH   3  28
ATOM     28  C   UNL     1      -2.128   0.208  -0.038  0.00  0.00    +0.241 C 
ATOM     29  O   UNL     1      -1.988   1.415   0.056  0.00  0.00    -0.271 OA
ATOM     30  N   UNL     1      -3.361  -0.318  -0.184  0.00  0.00    -0.325 N 
ATOM     31  H   UNL     1      -3.480  -1.281  -0.190  0.00  0.00    +0.145 HD
ATOM     32  H   UNL     1      -4.129   0.266  -0.284  0.00  0.00    +0.145 HD
ENDBRANCH   3  28
TORSDOF 5
