REMARK  Name = ZINC32074717
REMARK  6 active torsions:
REMARK  status: ('A' for Active; 'I' for Inactive)
REMARK    1  A    between atoms: C_1  and  C_2
REMARK    2  A    between atoms: C_2  and  C_3
REMARK    3  A    between atoms: C_2  and  C_4
REMARK    4  A    between atoms: C_2  and  N_5
REMARK    5  A    between atoms: N_21  and  C_24
REMARK    6  A    between atoms: C_24  and  C_25
REMARK                            x       y       z     vdW  Elec       q    Type
REMARK                         _______ _______ _______ _____ _____    ______ ____
ROOT
ATOM      1  N   UNL     1       0.688  -0.476  -1.203  0.00  0.00    -0.245 N 
ATOM      2  C   UNL     1       0.889  -1.756  -1.547  0.00  0.00    +0.128 A 
ATOM      3  C   UNL     1       1.554  -1.766  -2.746  0.00  0.00    +0.032 A 
ATOM      4  C   UNL     1       1.767  -0.449  -3.126  0.00  0.00    +0.141 A 
ATOM      5  N   UNL     1       1.246   0.331  -2.208  0.00  0.00    -0.177 NA
ATOM      6  C   UNL     1       1.928  -3.045  -3.441  0.00  0.00    +0.112 C 
ATOM      7  C   UNL     1       2.114  -4.148  -2.402  0.00  0.00    +0.122 C 
ATOM      8  C   UNL     1       1.029  -4.103  -1.362  0.00  0.00    +0.220 C 
ATOM      9  O   UNL     1       0.592  -5.145  -0.922  0.00  0.00    -0.275 OA
ATOM     10  N   UNL     1       0.525  -2.938  -0.901  0.00  0.00    -0.270 N 
ATOM     11  C   UNL     1       0.901  -3.428  -4.459  0.00  0.00    -0.006 A 
ATOM     12  C   UNL     1      -0.439  -3.727  -4.339  0.00  0.00    +0.007 A 
ATOM     13  C   UNL     1      -1.120  -4.051  -5.507  0.00  0.00    +0.000 A 
ATOM     14  C   UNL     1      -0.481  -4.069  -6.730  0.00  0.00    +0.002 A 
ATOM     15  C   UNL     1       0.866  -3.770  -6.859  0.00  0.00    +0.024 A 
ATOM     16  C   UNL     1       1.562  -3.445  -5.694  0.00  0.00    +0.041 A 
ATOM     17  N   UNL     1       2.895  -3.109  -5.530  0.00  0.00    -0.261 N 
ATOM     18  C   UNL     1       3.199  -2.858  -4.239  0.00  0.00    +0.236 C 
ATOM     19  O   UNL     1       4.285  -2.542  -3.803  0.00  0.00    -0.274 OA
ATOM     20  H   UNL     1      -0.075  -2.923  -0.140  0.00  0.00    +0.156 HD
ENDROOT
BRANCH   1  22
ATOM     21  C   UNL     1      -0.019   1.526   0.010  0.00  0.00    +0.036 C 
ATOM     22  C   UNL     1       0.002  -0.004   0.002  0.00  0.00    +0.057 C 
ATOM     23  C   UNL     1       0.742  -0.511   1.242  0.00  0.00    +0.036 C 
ATOM     24  C   UNL     1      -1.433  -0.534   0.013  0.00  0.00    +0.036 C 
ENDBRANCH   1  22
BRANCH  17  25
ATOM     25  C   UNL     1       3.861  -3.035  -6.629  0.00  0.00    +0.209 C 
BRANCH  25  26
ATOM     26  C   UNL     1       3.871  -1.640  -7.197  0.00  0.00    +0.228 C 
ATOM     27  O   UNL     1       3.142  -0.790  -6.731  0.00  0.00    -0.274 OA
ATOM     28  N   UNL     1       4.689  -1.336  -8.224  0.00  0.00    -0.328 N 
ATOM     29  H   UNL     1       5.272  -2.015  -8.597  0.00  0.00    +0.145 HD
ATOM     30  H   UNL     1       4.695  -0.437  -8.590  0.00  0.00    +0.145 HD
ENDBRANCH  25  26
ENDBRANCH  17  25
TORSDOF 3
