REMARK  Name = ZINC09721100
REMARK  10 active torsions:
REMARK  status: ('A' for Active; 'I' for Inactive)
REMARK    1  A    between atoms: C_1  and  C_2
REMARK    2  A    between atoms: C_4  and  C_10
REMARK    3  A    between atoms: C_5  and  O_9
REMARK    4  A    between atoms: N_11  and  C_12
REMARK    5  A    between atoms: C_12  and  C_13
REMARK    6  A    between atoms: C_13  and  C_14
REMARK    7  A    between atoms: C_14  and  N_15
REMARK    8  A    between atoms: N_15  and  C_16
REMARK    9  A    between atoms: C_19  and  C_25
REMARK   10  A    between atoms: C_21  and  N_22
REMARK                            x       y       z     vdW  Elec       q    Type
REMARK                         _______ _______ _______ _____ _____    ______ ____
ROOT
ATOM      1  C   UNL     1       1.729  -6.280  -5.162  0.00  0.00    +0.103 C 
ENDROOT
BRANCH   1   2
ATOM      2  N   UNL     1       3.053  -6.899  -5.254  0.00  0.00    -0.342 N 
ATOM      3  H   UNL     1       3.686  -6.801  -4.526  0.00  0.00    +0.146 HD
BRANCH   2   4
ATOM      4  C   UNL     1       3.405  -7.629  -6.392  0.00  0.00    +0.058 A 
ATOM      5  C   UNL     1       2.543  -7.681  -7.480  0.00  0.00    +0.026 A 
ATOM      6  C   UNL     1       2.894  -8.403  -8.603  0.00  0.00    +0.014 A 
ATOM      7  C   UNL     1       4.103  -9.074  -8.646  0.00  0.00    +0.057 A 
ATOM      8  C   UNL     1       4.963  -9.025  -7.564  0.00  0.00    +0.047 A 
ATOM      9  C   UNL     1       4.620  -8.300  -6.440  0.00  0.00    +0.147 A 
BRANCH   7  10
ATOM     10  C   UNL     1       4.483  -9.861  -9.873  0.00  0.00    +0.417 C 
ATOM     11  F   UNL     1       3.462  -9.763 -10.825  0.00  0.00    -0.166 F 
ATOM     12  F   UNL     1       5.669  -9.348 -10.408  0.00  0.00    -0.166 F 
ATOM     13  F   UNL     1       4.669 -11.204  -9.527  0.00  0.00    -0.166 F 
ENDBRANCH   7  10
BRANCH   9  14
ATOM     14  N   UNL     1       5.544  -8.243  -5.285  0.00  0.00    +0.058 N 
ATOM     15  O   UNL     1       5.641  -7.226  -4.638  0.00  0.00    -0.126 OA
ATOM     16  O   UNL     1       6.202  -9.213  -4.989  0.00  0.00    -0.126 OA
ENDBRANCH   9  14
ENDBRANCH   2   4
ENDBRANCH   1   2
BRANCH   1  17
ATOM     17  C   UNL     1       1.601  -5.546  -3.826  0.00  0.00    +0.039 C 
BRANCH  17  18
ATOM     18  C   UNL     1       0.218  -4.899  -3.729  0.00  0.00    +0.114 C 
BRANCH  18  20
ATOM     19  C   UNL     1      -0.034  -2.909  -2.429  0.00  0.00    +0.089 C 
ATOM     20  N   UNL     1       0.095  -4.196  -2.450  0.00  0.00    -0.390 N 
ATOM     21  H   UNL     1       0.111  -4.696  -1.618  0.00  0.00    +0.159 HD
BRANCH  19  25
ATOM     22  C   UNL     1      -0.092   1.380   0.114  0.00  0.00    +0.044 C 
ATOM     23  C   UNL     1      -0.072  -0.127   0.089  0.00  0.00    -0.049 A 
ATOM     24  C   UNL     1      -0.062  -0.793  -1.117  0.00  0.00    +0.016 A 
ATOM     25  C   UNL     1      -0.044  -2.190  -1.142  0.00  0.00    +0.033 A 
ATOM     26  C   UNL     1      -0.035  -2.904   0.064  0.00  0.00    +0.139 A 
ATOM     27  C   UNL     1      -0.045  -2.217   1.269  0.00  0.00    +0.060 A 
ATOM     28  C   UNL     1      -0.058  -0.835   1.279  0.00  0.00    +0.022 A 
ATOM     29 BR   UNL     1      -0.033  -3.173   2.901  0.00  0.00    -0.046 Br
BRANCH  26  30
ATOM     30  O   UNL     1      -0.017  -4.261   0.053  0.00  0.00    -0.505 OA
ATOM     31  H   UNL     1       0.871  -4.643   0.050  0.00  0.00    +0.292 HD
ENDBRANCH  26  30
ENDBRANCH  19  25
ENDBRANCH  18  20
ENDBRANCH  17  18
ENDBRANCH   1  17
TORSDOF 9
