REMARK  Name = ZINC40578949
REMARK  5 active torsions:
REMARK  status: ('A' for Active; 'I' for Inactive)
REMARK    1  A    between atoms: C_10  and  C_22
REMARK    2  A    between atoms: N_15  and  C_16
REMARK    3  A    between atoms: C_16  and  C_17
REMARK    4  A    between atoms: C_17  and  S_18
REMARK    5  A    between atoms: S_18  and  N_21
REMARK                            x       y       z     vdW  Elec       q    Type
REMARK                         _______ _______ _______ _____ _____    ______ ____
ROOT
ATOM      1  C   UNL     1      -0.019   1.533   0.011  0.00  0.00    +0.000 C 
ATOM      2  C   UNL     1       1.393   2.111   0.000  0.00  0.00    +0.002 C 
ATOM      3  C   UNL     1       2.213   1.567  -1.182  0.00  0.00    +0.023 C 
ATOM      4  C   UNL     1       2.224   0.057  -1.067  0.00  0.00    +0.082 C 
ATOM      5  C   UNL     1       0.762  -0.439  -1.240  0.00  0.00    +0.012 C 
ATOM      6  C   UNL     1       0.002  -0.004   0.002  0.00  0.00    +0.005 C 
ATOM      7  C   UNL     1       1.001  -1.951  -1.366  0.00  0.00    +0.039 C 
ATOM      8  C   UNL     1       2.291  -1.998  -2.229  0.00  0.00    +0.191 C 
ATOM      9  N   UNL     1       2.959  -0.693  -2.072  0.00  0.00    -0.269 N 
ATOM     10  C   UNL     1       4.056  -0.279  -2.736  0.00  0.00    +0.303 C 
ATOM     11  O   UNL     1       4.522   0.821  -2.514  0.00  0.00    -0.253 OA
ATOM     12  N   UNL     1       4.636  -1.086  -3.647  0.00  0.00    -0.298 N 
ATOM     13  H   UNL     1       4.264  -1.964  -3.825  0.00  0.00    +0.150 HD
ENDROOT
BRANCH   8  14
ATOM     14  C   UNL     1       3.187  -3.113  -1.754  0.00  0.00    +0.376 C 
ATOM     15  O   UNL     1       3.077  -4.229  -2.232  0.00  0.00    -0.244 OA
ATOM     16  O   UNL     1       4.022  -2.899  -0.891  0.00  0.00    -0.244 OA
ENDBRANCH   8  14
BRANCH  12  17
ATOM     17  C   UNL     1       5.829  -0.636  -4.369  0.00  0.00    +0.130 C 
BRANCH  17  18
ATOM     18  C   UNL     1       6.283  -1.731  -5.336  0.00  0.00    +0.203 C 
BRANCH  18  19
ATOM     19  S   UNL     1       7.760  -1.175  -6.230  0.00  0.00    +0.028 S 
ATOM     20  O   UNL     1       7.429  -0.104  -7.103  0.00  0.00    -0.158 OA
ATOM     21  O   UNL     1       8.861  -1.068  -5.337  0.00  0.00    -0.158 OA
BRANCH  19  22
ATOM     22  N   UNL     1       8.150  -2.433  -7.233  0.00  0.00    -0.208 NA
ATOM     23  H   UNL     1       7.609  -3.238  -7.234  0.00  0.00    +0.144 HD
ATOM     24  H   UNL     1       8.920  -2.365  -7.820  0.00  0.00    +0.144 HD
ENDBRANCH  19  22
ENDBRANCH  18  19
ENDBRANCH  17  18
ENDBRANCH  12  17
TORSDOF 5
