REMARK  Name = ZINC39335369
REMARK  11 active torsions:
REMARK  status: ('A' for Active; 'I' for Inactive)
REMARK    1  A    between atoms: C_1  and  C_2
REMARK    2  A    between atoms: C_5  and  C_29
REMARK    3  A    between atoms: C_7  and  N_8
REMARK    4  A    between atoms: C_9  and  C_11
REMARK    5  A    between atoms: C_11  and  S_12
REMARK    6  A    between atoms: S_12  and  C_13
REMARK    7  A    between atoms: C_14  and  C_27
REMARK    8  A    between atoms: C_21  and  C_25
REMARK    9  A    between atoms: C_22  and  N_24
REMARK   10  A    between atoms: C_29  and  O_31
REMARK   11  A    between atoms: O_31  and  C_32
REMARK                            x       y       z     vdW  Elec       q    Type
REMARK                         _______ _______ _______ _____ _____    ______ ____
ROOT
ATOM      1  C   UNL     1      -0.386  -0.090   7.687  0.00  0.00    +0.081 C 
ATOM      2  C   UNL     1      -0.468  -0.663   8.916  0.00  0.00    +0.068 C 
ATOM      3  C   UNL     1      -0.566   0.165  10.168  0.00  0.00    +0.045 C 
ATOM      4  C   UNL     1      -1.623  -0.444  11.096  0.00  0.00    +0.018 C 
ATOM      5  C   UNL     1      -1.723   0.395  12.371  0.00  0.00    +0.001 C 
ATOM      6  C   UNL     1      -0.370   0.404  13.084  0.00  0.00    +0.000 C 
ATOM      7  C   UNL     1       0.691   1.003  12.158  0.00  0.00    +0.001 C 
ATOM      8  C   UNL     1       0.789   0.164  10.883  0.00  0.00    +0.018 C 
ATOM      9  C   UNL     1      -0.953   1.580   9.838  0.00  0.00    +0.076 C 
ATOM     10  C   UNL     1      -0.853   2.071   8.577  0.00  0.00    +0.100 C 
ATOM     11  N   UNL     1      -0.394   1.280   7.548  0.00  0.00    -0.296 N 
ATOM     12  H   UNL     1      -0.080   1.685   6.725  0.00  0.00    +0.154 HD
ENDROOT
BRANCH  10  13
ATOM     13  N   UNL     1      -1.209   3.374   8.325  0.00  0.00    -0.346 N 
ATOM     14  H   UNL     1      -1.530   3.937   9.047  0.00  0.00    +0.143 HD
ATOM     15  H   UNL     1      -1.140   3.730   7.426  0.00  0.00    +0.143 HD
ENDBRANCH  10  13
BRANCH   9  16
ATOM     16  C   UNL     1      -1.438   2.432  10.882  0.00  0.00    +0.099 C 
ATOM     17  N   UNL     1      -1.824   3.107  11.710  0.00  0.00    -0.191 NA
ENDBRANCH   9  16
BRANCH   2  18
ATOM     18  C   UNL     1      -0.462  -2.091   9.023  0.00  0.00    +0.098 C 
ATOM     19  N   UNL     1      -0.457  -3.224   9.107  0.00  0.00    -0.191 NA
ENDBRANCH   2  18
BRANCH   1  20
ATOM     20  S   UNL     1      -0.260  -1.111   6.257  0.00  0.00    -0.100 S 
BRANCH  20  21
ATOM     21  C   UNL     1      -0.169   0.070   4.882  0.00  0.00    +0.171 C 
BRANCH  21  23
ATOM     22  N   UNL     1       0.025  -0.007   2.417  0.00  0.00    -0.285 N 
ATOM     23  C   UNL     1      -0.057  -0.682   3.581  0.00  0.00    +0.227 C 
ATOM     24  O   UNL     1      -0.040  -1.895   3.581  0.00  0.00    -0.275 OA
ATOM     25  H   UNL     1       0.077   0.962   2.421  0.00  0.00    +0.155 HD
BRANCH  22  32
ATOM     26  C   UNL     1      -1.265   1.183   0.182  0.00  0.00    +0.045 C 
ATOM     27  C   UNL     1      -0.586  -0.158   0.085  0.00  0.00    -0.029 A 
ATOM     28  C   UNL     1      -0.575  -0.839  -1.118  0.00  0.00    +0.006 A 
ATOM     29  C   UNL     1       0.045  -2.068  -1.215  0.00  0.00    +0.015 A 
ATOM     30  C   UNL     1       0.665  -2.627  -0.096  0.00  0.00    +0.061 A 
ATOM     31  C   UNL     1       0.655  -1.940   1.118  0.00  0.00    +0.038 A 
ATOM     32  C   UNL     1       0.033  -0.703   1.203  0.00  0.00    +0.037 A 
BRANCH  30  33
ATOM     33  C   UNL     1       1.330  -3.943  -0.197  0.00  0.00    +0.339 C 
ATOM     34  O   UNL     1       1.869  -4.427   0.778  0.00  0.00    -0.245 OA
BRANCH  33  35
ATOM     35  O   UNL     1       1.339  -4.605  -1.370  0.00  0.00    -0.464 OA
ATOM     36  C   UNL     1       2.000  -5.872  -1.395  0.00  0.00    +0.280 C 
ENDBRANCH  33  35
ENDBRANCH  30  33
ENDBRANCH  22  32
ENDBRANCH  21  23
ENDBRANCH  20  21
ENDBRANCH   1  20
TORSDOF 9
