REMARK  Name = ZINC66820601
REMARK  6 active torsions:
REMARK  status: ('A' for Active; 'I' for Inactive)
REMARK    1  A    between atoms: C_1  and  C_2
REMARK    2  A    between atoms: C_5  and  N_8
REMARK    3  A    between atoms: C_10  and  C_15
REMARK    4  A    between atoms: N_17  and  C_18
REMARK    5  A    between atoms: C_18  and  C_19
REMARK    6  A    between atoms: C_22  and  N_25
REMARK                            x       y       z     vdW  Elec       q    Type
REMARK                         _______ _______ _______ _____ _____    ______ ____
ROOT
ATOM      1  C   UNL     1       2.198  -6.308   1.955  0.00  0.00    +0.218 C 
ATOM      2  O   UNL     1       2.738  -5.446   2.616  0.00  0.00    -0.275 OA
ATOM      3  N   UNL     1       1.896  -7.497   2.514  0.00  0.00    -0.311 N 
ATOM      4  H   UNL     1       1.464  -8.185   1.985  0.00  0.00    +0.149 HD
ENDROOT
BRANCH   1   7
ATOM      5  N   UNL     1       1.121  -3.779   0.297  0.00  0.00    -0.298 N 
ATOM      6  C   UNL     1       2.300  -4.628   0.086  0.00  0.00    +0.121 C 
ATOM      7  C   UNL     1       1.865  -6.049   0.508  0.00  0.00    +0.101 C 
ATOM      8  C   UNL     1       0.334  -5.987   0.294  0.00  0.00    +0.110 C 
ATOM      9  C   UNL     1       0.004  -4.516   0.418  0.00  0.00    +0.217 C 
ATOM     10  O   UNL     1      -1.109  -4.067   0.597  0.00  0.00    -0.276 OA
BRANCH   5  15
ATOM     11  C   UNL     1      -0.162   1.783   0.793  0.00  0.00    +0.007 C 
ATOM     12  C   UNL     1      -0.202   0.255   0.713  0.00  0.00    -0.014 C 
ATOM     13  C   UNL     1       0.320  -0.198  -0.651  0.00  0.00    +0.005 C 
ATOM     14  C   UNL     1       0.281  -1.726  -0.731  0.00  0.00    +0.023 C 
ATOM     15  C   UNL     1       1.159  -2.317   0.373  0.00  0.00    +0.076 C 
ATOM     16  C   UNL     1       0.637  -1.863   1.738  0.00  0.00    +0.023 C 
ATOM     17  C   UNL     1       0.677  -0.336   1.818  0.00  0.00    +0.005 C 
ENDBRANCH   5  15
ENDBRANCH   1   7
BRANCH   3  18
ATOM     18  C   UNL     1       2.220  -7.748   3.920  0.00  0.00    +0.139 C 
BRANCH  18  19
ATOM     19  C   UNL     1       1.783  -9.140   4.295  0.00  0.00    -0.030 A 
ATOM     20  C   UNL     1       0.507  -9.354   4.785  0.00  0.00    +0.007 A 
ATOM     21  C   UNL     1       0.103 -10.629   5.130  0.00  0.00    +0.023 A 
ATOM     22  C   UNL     1       0.979 -11.697   4.984  0.00  0.00    +0.035 A 
ATOM     23  C   UNL     1       2.259 -11.479   4.492  0.00  0.00    +0.023 A 
ATOM     24  C   UNL     1       2.655 -10.202   4.144  0.00  0.00    +0.007 A 
BRANCH  22  25
ATOM     25  N   UNL     1       0.573 -12.989   5.333  0.00  0.00    -0.270 N 
ATOM     26  C   UNL     1      -0.712 -13.361   5.164  0.00  0.00    +0.301 C 
ATOM     27  O   UNL     1      -1.496 -12.608   4.620  0.00  0.00    -0.253 OA
ATOM     28  N   UNL     1      -1.127 -14.567   5.598  0.00  0.00    -0.313 N 
ATOM     29  H   UNL     1       1.216 -13.618   5.697  0.00  0.00    +0.156 HD
ATOM     30  H   UNL     1      -0.501 -15.168   6.033  0.00  0.00    +0.146 HD
ATOM     31  H   UNL     1      -2.051 -14.835   5.476  0.00  0.00    +0.146 HD
ENDBRANCH  22  25
ENDBRANCH  18  19
ENDBRANCH   3  18
TORSDOF 5
