REMARK  Name = ZINC40668309
REMARK  3 active torsions:
REMARK  status: ('A' for Active; 'I' for Inactive)
REMARK    1  A    between atoms: N_4  and  C_6
REMARK    2  A    between atoms: C_9  and  C_12
REMARK    3  A    between atoms: N_14  and  C_15
REMARK                            x       y       z     vdW  Elec       q    Type
REMARK                         _______ _______ _______ _____ _____    ______ ____
ROOT
ATOM      1  C   UNL     1       3.075  -5.774  -0.052  0.00  0.00    +0.248 C 
ATOM      2  O   UNL     1       4.265  -6.022  -0.064  0.00  0.00    -0.270 OA
ATOM      3  N   UNL     1       2.177  -6.779  -0.062  0.00  0.00    -0.279 N 
ATOM      4  H   UNL     1       1.230  -6.584   0.013  0.00  0.00    +0.155 HD
ENDROOT
BRANCH   3   5
ATOM      5  C   UNL     1       2.612  -8.106  -0.180  0.00  0.00    +0.078 A 
ATOM      6  C   UNL     1       3.810  -8.501   0.401  0.00  0.00    +0.027 A 
ATOM      7  C   UNL     1       4.240  -9.809   0.285  0.00  0.00    +0.004 A 
ATOM      8  C   UNL     1       3.481 -10.734  -0.408  0.00  0.00    +0.027 A 
ATOM      9  C   UNL     1       2.284 -10.348  -0.991  0.00  0.00    +0.078 A 
ATOM     10  C   UNL     1       1.843  -9.033  -0.874  0.00  0.00    +0.163 A 
ATOM     11  O   UNL     1       0.665  -8.666  -1.447  0.00  0.00    -0.479 OA
ATOM     12  C   UNL     1       0.304  -9.337  -2.658  0.00  0.00    +0.325 C 
ATOM     13  C   UNL     1       0.513 -10.821  -2.496  0.00  0.00    +0.255 C 
ATOM     14  O   UNL     1      -0.199 -11.604  -3.089  0.00  0.00    -0.272 OA
ATOM     15  N   UNL     1       1.500 -11.273  -1.697  0.00  0.00    -0.280 N 
ATOM     16  H   UNL     1       1.659 -12.225  -1.604  0.00  0.00    +0.155 HD
ENDBRANCH   3   5
BRANCH   1  20
ATOM     17  C   UNL     1       1.746  -1.741   0.018  0.00  0.00    +0.046 A 
ATOM     18  C   UNL     1       3.108  -2.022   0.005  0.00  0.00    +0.027 A 
ATOM     19  C   UNL     1       3.542  -3.329  -0.018  0.00  0.00    +0.015 A 
ATOM     20  C   UNL     1       2.613  -4.372  -0.028  0.00  0.00    +0.037 A 
ATOM     21  C   UNL     1       1.246  -4.086  -0.014  0.00  0.00    +0.015 A 
ATOM     22  C   UNL     1       0.819  -2.777   0.013  0.00  0.00    +0.027 A 
BRANCH  17  26
ATOM     23  C   UNL     1      -0.012   1.344   0.079  0.00  0.00    +0.019 A 
ATOM     24  C   UNL     1       1.327   1.785   0.071  0.00  0.00    +0.019 A 
ATOM     25  C   UNL     1       2.114   0.691   0.048  0.00  0.00    +0.091 A 
ATOM     26  N   UNL     1       1.309  -0.413   0.041  0.00  0.00    -0.323 N 
ATOM     27  C   UNL     1       0.006  -0.004   0.060  0.00  0.00    +0.091 A 
ENDBRANCH  17  26
ENDBRANCH   1  20
TORSDOF 3
