REMARK  Name = ZINC39664812
REMARK  10 active torsions:
REMARK  status: ('A' for Active; 'I' for Inactive)
REMARK    1  A    between atoms: C_1  and  N_2
REMARK    2  A    between atoms: N_2  and  C_3
REMARK    3  A    between atoms: N_2  and  C_4
REMARK    4  A    between atoms: C_4  and  C_5
REMARK    5  A    between atoms: C_5  and  C_7
REMARK    6  A    between atoms: C_5  and  N_13
REMARK    7  A    between atoms: C_14  and  C_16
REMARK    8  A    between atoms: C_27  and  C_29
REMARK    9  A    between atoms: C_34  and  O_35
REMARK   10  A    between atoms: O_35  and  C_36
REMARK                            x       y       z     vdW  Elec       q    Type
REMARK                         _______ _______ _______ _____ _____    ______ ____
ROOT
ATOM      1  C   UNL     1       1.799  -4.304   1.925  0.00  0.00    +0.100 C 
ATOM      2  C   UNL     1       1.483  -3.602   3.264  0.00  0.00    +0.121 C 
ATOM      3  N   UNL     1       2.805  -3.395   3.901  0.00  0.00    -0.296 N 
ATOM      4  C   UNL     1       3.698  -3.016   2.780  0.00  0.00    +0.115 C 
ATOM      5  C   UNL     1       3.254  -3.916   1.610  0.00  0.00    -0.004 C 
ATOM      6  C   UNL     1       3.322  -3.144   0.295  0.00  0.00    -0.010 C 
ATOM      7  C   UNL     1       4.784  -2.821  -0.026  0.00  0.00    -0.082 C 
ATOM      8  N   UNL     1       5.552  -4.068  -0.127  0.00  0.00    +0.379 N 
ATOM      9  C   UNL     1       5.559  -4.758   1.169  0.00  0.00    -0.082 C 
ATOM     10  C   UNL     1       4.130  -5.163   1.540  0.00  0.00    -0.010 C 
ATOM     11  C   UNL     1       3.124  -3.524   5.204  0.00  0.00    +0.252 C 
ATOM     12  O   UNL     1       4.238  -3.226   5.589  0.00  0.00    -0.270 OA
ATOM     13  H   UNL     1       5.131  -4.665  -0.823  0.00  0.00    -0.086 HD
ATOM     14  H   UNL     1       6.500  -3.856  -0.399  0.00  0.00    -0.086 HD
ENDROOT
BRANCH  11  15
ATOM     15  C   UNL     1       2.122  -4.026   6.162  0.00  0.00    +0.099 A 
ATOM     16  C   UNL     1       0.769  -3.698   6.016  0.00  0.00    +0.020 A 
ATOM     17  C   UNL     1      -0.131  -4.195   6.942  0.00  0.00    +0.021 A 
ATOM     18  C   UNL     1       0.326  -4.994   7.975  0.00  0.00    +0.114 A 
ATOM     19  N   UNL     1       1.605  -5.291   8.094  0.00  0.00    -0.220 NA
ATOM     20  C   UNL     1       2.507  -4.847   7.233  0.00  0.00    +0.233 A 
BRANCH  20  21
ATOM     21  O   UNL     1       3.809  -5.181   7.391  0.00  0.00    -0.437 OA
BRANCH  21  22
ATOM     22  C   UNL     1       4.127  -6.064   8.374  0.00  0.00    +0.130 A 
ATOM     23  C   UNL     1       4.706  -5.614   9.552  0.00  0.00    +0.046 A 
ATOM     24  C   UNL     1       5.028  -6.513  10.550  0.00  0.00    +0.004 A 
ATOM     25  C   UNL     1       4.773  -7.861  10.376  0.00  0.00    +0.000 A 
ATOM     26  C   UNL     1       4.196  -8.312   9.203  0.00  0.00    +0.004 A 
ATOM     27  C   UNL     1       3.867  -7.416   8.204  0.00  0.00    +0.046 A 
ENDBRANCH  21  22
ENDBRANCH  20  21
ENDBRANCH  11  15
BRANCH   1  29
ATOM     28  N   UNL     1       0.537  -4.619  -0.179  0.00  0.00    -0.310 N 
ATOM     29  C   UNL     1       0.877  -3.807   0.842  0.00  0.00    +0.219 C 
ATOM     30  O   UNL     1       0.441  -2.676   0.888  0.00  0.00    -0.275 OA
ATOM     31  H   UNL     1       0.827  -5.545  -0.179  0.00  0.00    +0.149 HD
BRANCH  28  32
ATOM     32  C   UNL     1      -0.271  -4.104  -1.287  0.00  0.00    +0.087 C 
BRANCH  32  33
ATOM     33  C   UNL     1       0.050  -4.873  -2.543  0.00  0.00    -0.029 A 
ATOM     34  C   UNL     1       0.242  -6.241  -2.485  0.00  0.00    +0.005 A 
ATOM     35  C   UNL     1       0.536  -6.947  -3.636  0.00  0.00    +0.000 A 
ATOM     36  C   UNL     1       0.637  -6.286  -4.846  0.00  0.00    +0.000 A 
ATOM     37  C   UNL     1       0.445  -4.918  -4.904  0.00  0.00    +0.000 A 
ATOM     38  C   UNL     1       0.146  -4.213  -3.753  0.00  0.00    +0.005 A 
ENDBRANCH  32  33
BRANCH  32  39
ATOM     39  C   UNL     1      -1.755  -4.266  -0.955  0.00  0.00    -0.052 C 
BRANCH  39  41
ATOM     40  C   UNL     1      -3.987  -3.922  -1.765  0.00  0.00    -0.097 C 
ATOM     41  N   UNL     1      -2.564  -3.655  -2.018  0.00  0.00    +0.377 N 
ATOM     42  C   UNL     1      -2.334  -2.204  -2.036  0.00  0.00    -0.097 C 
ATOM     43  H   UNL     1      -2.301  -4.048  -2.909  0.00  0.00    -0.083 HD
ENDBRANCH  39  41
ENDBRANCH  32  39
ENDBRANCH  28  32
ENDBRANCH   1  29
TORSDOF 8
