REMARK  Name = ZINC30112937
REMARK  11 active torsions:
REMARK  status: ('A' for Active; 'I' for Inactive)
REMARK    1  A    between atoms: C_1  and  C_2
REMARK    2  A    between atoms: C_4  and  C_30
REMARK    3  A    between atoms: C_5  and  N_9
REMARK    4  A    between atoms: C_6  and  C_8
REMARK    5  A    between atoms: C_10  and  C_12
REMARK    6  A    between atoms: C_12  and  N_13
REMARK    7  A    between atoms: C_14  and  C_16
REMARK    8  A    between atoms: C_21  and  C_26
REMARK    9  A    between atoms: C_26  and  C_27
REMARK   10  A    between atoms: C_26  and  C_28
REMARK   11  A    between atoms: C_26  and  C_29
REMARK                            x       y       z     vdW  Elec       q    Type
REMARK                         _______ _______ _______ _____ _____    ______ ____
ROOT
ATOM      1  N   UNL     1       0.858  -6.983   2.265  0.00  0.00    -0.302 N 
ATOM      2  C   UNL     1       0.984  -8.311   2.462  0.00  0.00    +0.261 C 
ATOM      3  O   UNL     1       0.717  -9.087   1.564  0.00  0.00    -0.269 OA
ATOM      4  H   UNL     1       1.071  -6.364   2.981  0.00  0.00    +0.150 HD
ENDROOT
BRANCH   2   5
ATOM      5  C   UNL     1       1.445  -8.820   3.762  0.00  0.00    +0.103 A 
ATOM      6  C   UNL     1       1.617 -10.130   4.079  0.00  0.00    +0.040 A 
ATOM      7  C   UNL     1       2.068 -10.195   5.419  0.00  0.00    +0.000 A 
ATOM      8  C   UNL     1       2.406 -11.254   6.271  0.00  0.00    +0.010 A 
ATOM      9  C   UNL     1       2.819 -10.996   7.545  0.00  0.00    +0.005 A 
ATOM     10  C   UNL     1       2.908  -9.689   8.009  0.00  0.00    -0.040 A 
ATOM     11  C   UNL     1       2.581  -8.630   7.191  0.00  0.00    +0.030 A 
ATOM     12  C   UNL     1       2.158  -8.869   5.886  0.00  0.00    +0.047 A 
ATOM     13  N   UNL     1       1.778  -8.043   4.855  0.00  0.00    -0.351 N 
ATOM     14  H   UNL     1       1.746  -7.074   4.889  0.00  0.00    +0.166 HD
BRANCH  10  15
ATOM     15  C   UNL     1       3.366  -9.427   9.420  0.00  0.00    -0.013 C 
ATOM     16  C   UNL     1       3.664 -10.758  10.114  0.00  0.00    +0.015 C 
ATOM     17  C   UNL     1       4.632  -8.569   9.395  0.00  0.00    +0.015 C 
ATOM     18  C   UNL     1       2.265  -8.689  10.185  0.00  0.00    +0.015 C 
ENDBRANCH  10  15
ENDBRANCH   2   5
BRANCH   1  19
ATOM     19  C   UNL     1       0.399  -6.476   0.969  0.00  0.00    +0.200 C 
BRANCH  19  21
ATOM     20  N   UNL     1      -0.052  -4.280  -0.077  0.00  0.00    -0.284 N 
ATOM     21  C   UNL     1       0.345  -4.970   1.011  0.00  0.00    +0.234 C 
ATOM     22  O   UNL     1       0.659  -4.380   2.022  0.00  0.00    -0.274 OA
ATOM     23  H   UNL     1      -0.370  -4.753  -0.862  0.00  0.00    +0.155 HD
BRANCH  20  28
ATOM     24  C   UNL     1       0.136   1.390  -0.065  0.00  0.00    +0.044 C 
ATOM     25  C   UNL     1       0.086  -0.116  -0.068  0.00  0.00    -0.050 A 
ATOM     26  C   UNL     1       0.759  -0.827  -1.045  0.00  0.00    +0.008 A 
ATOM     27  C   UNL     1       0.715  -2.207  -1.051  0.00  0.00    -0.029 A 
ATOM     28  C   UNL     1      -0.005  -2.882  -0.074  0.00  0.00    +0.039 A 
ATOM     29  C   UNL     1      -0.679  -2.165   0.906  0.00  0.00    -0.029 A 
ATOM     30  C   UNL     1      -0.628  -0.785   0.909  0.00  0.00    +0.008 A 
ATOM     31  C   UNL     1      -1.463  -2.893   1.968  0.00  0.00    +0.045 C 
ATOM     32  C   UNL     1       1.448  -2.981  -2.117  0.00  0.00    +0.045 C 
ENDBRANCH  20  28
ENDBRANCH  19  21
ENDBRANCH   1  19
TORSDOF 5
