REMARK  Name = ZINC35336393
REMARK  4 active torsions:
REMARK  status: ('A' for Active; 'I' for Inactive)
REMARK    1  A    between atoms: C_1  and  C_2
REMARK    2  A    between atoms: N_11  and  C_15
REMARK    3  A    between atoms: C_15  and  N_16
REMARK    4  A    between atoms: C_20  and  O_23
REMARK                            x       y       z     vdW  Elec       q    Type
REMARK                         _______ _______ _______ _____ _____    ______ ____
ROOT
ATOM      1  C   UNL     1      -0.019   1.526   0.010  0.00  0.00    +0.010 C 
ATOM      2  C   UNL     1       0.002  -0.004   0.002  0.00  0.00    +0.018 C 
ATOM      3  C   UNL     1       0.718  -0.498  -1.258  0.00  0.00    +0.006 C 
ATOM      4  C   UNL     1       0.756  -2.027  -1.255  0.00  0.00    +0.000 C 
ATOM      5  C   UNL     1       1.516  -2.519  -0.021  0.00  0.00    +0.003 C 
ATOM      6  C   UNL     1       0.803  -2.032   1.243  0.00  0.00    +0.035 C 
ATOM      7  C   UNL     1       0.739  -0.509   1.238  0.00  0.00    +0.115 C 
ATOM      8  C   UNL     1       0.069  -0.004   2.495  0.00  0.00    +0.248 C 
ATOM      9  O   UNL     1      -1.064  -0.228   2.863  0.00  0.00    -0.273 OA
ATOM     10  N   UNL     1       0.998   0.746   3.122  0.00  0.00    -0.211 N 
ATOM     11  C   UNL     1       2.148   0.781   2.437  0.00  0.00    +0.310 C 
ATOM     12  O   UNL     1       3.133   1.393   2.801  0.00  0.00    -0.252 OA
ATOM     13  N   UNL     1       2.091   0.063   1.300  0.00  0.00    -0.285 N 
ATOM     14  H   UNL     1       2.801  -0.054   0.650  0.00  0.00    +0.151 HD
ENDROOT
BRANCH  10  15
ATOM     15  C   UNL     1       0.777   1.438   4.394  0.00  0.00    +0.205 C 
BRANCH  15  16
ATOM     16  N   UNL     1       1.145   0.549   5.505  0.00  0.00    -0.284 NA
ATOM     17  C   UNL     1       0.065  -0.402   5.798  0.00  0.00    +0.086 C 
ATOM     18  C   UNL     1       0.537  -1.401   6.856  0.00  0.00    +0.018 C 
ATOM     19  C   UNL     1       0.932  -0.643   8.126  0.00  0.00    +0.034 C 
ATOM     20  C   UNL     1       2.024   0.375   7.785  0.00  0.00    +0.129 C 
ATOM     21  C   UNL     1       1.509   1.323   6.699  0.00  0.00    +0.117 C 
BRANCH  20  22
ATOM     22  O   UNL     1       2.360   1.125   8.954  0.00  0.00    -0.391 OA
ATOM     23  H   UNL     1       2.691   0.586   9.685  0.00  0.00    +0.210 HD
ENDBRANCH  20  22
ENDBRANCH  15  16
ENDBRANCH  10  15
TORSDOF 3
