REMARK  Name = ZINC37420442
REMARK  5 active torsions:
REMARK  status: ('A' for Active; 'I' for Inactive)
REMARK    1  A    between atoms: C_1  and  C_2
REMARK    2  A    between atoms: C_2  and  C_4
REMARK    3  A    between atoms: C_2  and  N_12
REMARK    4  A    between atoms: N_12  and  C_13
REMARK    5  A    between atoms: C_18  and  N_19
REMARK                            x       y       z     vdW  Elec       q    Type
REMARK                         _______ _______ _______ _____ _____    ______ ____
ROOT
ATOM      1  N   UNL     1       0.711  -0.489   1.189  0.00  0.00    -0.335 N 
ATOM      2  H   UNL     1       0.213  -0.731   1.986  0.00  0.00    +0.147 HD
ENDROOT
BRANCH   1   3
ATOM      3  C   UNL     1       2.103  -0.604   1.173  0.00  0.00    +0.061 A 
ATOM      4  C   UNL     1       2.817  -0.252   0.034  0.00  0.00    +0.025 A 
ATOM      5  C   UNL     1       4.193  -0.366   0.021  0.00  0.00    +0.005 A 
ATOM      6  C   UNL     1       4.862  -0.829   1.139  0.00  0.00    +0.041 A 
ATOM      7  C   UNL     1       4.154  -1.181   2.276  0.00  0.00    +0.155 A 
ATOM      8  C   UNL     1       2.775  -1.064   2.297  0.00  0.00    +0.182 A 
ATOM      9  F   UNL     1       4.810  -1.633   3.367  0.00  0.00    -0.203 F 
BRANCH   8  10
ATOM     10  N   UNL     1       2.019  -1.433   3.514  0.00  0.00    +0.061 N 
ATOM     11  O   UNL     1       1.625  -2.567   3.660  0.00  0.00    -0.126 OA
ATOM     12  O   UNL     1       1.794  -0.602   4.363  0.00  0.00    -0.126 OA
ENDBRANCH   8  10
ENDBRANCH   1   3
BRANCH   1  14
ATOM     13  C   UNL     1      -0.019   1.526   0.010  0.00  0.00    +0.033 C 
ATOM     14  C   UNL     1       0.002  -0.004   0.002  0.00  0.00    +0.099 C 
BRANCH  14  15
ATOM     15  C   UNL     1      -1.412  -0.526   0.013  0.00  0.00    -0.009 A 
ATOM     16  C   UNL     1      -2.014  -0.864   1.210  0.00  0.00    +0.008 A 
ATOM     17  C   UNL     1      -3.311  -1.342   1.221  0.00  0.00    +0.020 A 
ATOM     18  C   UNL     1      -4.007  -1.483   0.033  0.00  0.00    +0.042 A 
ATOM     19  C   UNL     1      -3.404  -1.144  -1.165  0.00  0.00    +0.040 A 
ATOM     20  C   UNL     1      -2.108  -0.661  -1.175  0.00  0.00    +0.047 A 
ATOM     21 CL   UNL     1      -1.353  -0.230  -2.678  0.00  0.00    -0.083 Cl
ATOM     22 CL   UNL     1      -5.635  -2.084   0.046  0.00  0.00    -0.083 Cl
ENDBRANCH  14  15
ENDBRANCH   1  14
TORSDOF 4
