REMARK  Name = ZINC13304883
REMARK  7 active torsions:
REMARK  status: ('A' for Active; 'I' for Inactive)
REMARK    1  A    between atoms: C_1  and  C_2
REMARK    2  A    between atoms: C_9  and  S_19
REMARK    3  A    between atoms: C_10  and  C_13
REMARK    4  A    between atoms: N_14  and  N_15
REMARK    5  A    between atoms: N_15  and  C_16
REMARK    6  A    between atoms: C_16  and  N_18
REMARK    7  A    between atoms: S_19  and  C_20
REMARK                            x       y       z     vdW  Elec       q    Type
REMARK                         _______ _______ _______ _____ _____    ______ ____
ROOT
ATOM      1  C   UNL     1       5.380   4.041  -0.162  0.00  0.00    +0.047 C 
ATOM      2  C   UNL     1       6.114   5.353  -0.043  0.00  0.00    -0.008 A 
ATOM      3  C   UNL     1       7.455   5.369   0.199  0.00  0.00    +0.008 A 
ATOM      4  C   UNL     1       8.123   6.597   0.307  0.00  0.00    +0.019 A 
ATOM      5  C   UNL     1       7.440   7.756   0.173  0.00  0.00    +0.096 A 
ATOM      6  N   UNL     1       6.097   7.751  -0.068  0.00  0.00    -0.267 N 
ATOM      7  C   UNL     1       5.418   6.568  -0.179  0.00  0.00    +0.144 A 
ATOM      8  N   UNL     1       4.108   6.545  -0.415  0.00  0.00    -0.222 NA
ATOM      9  C   UNL     1       3.406   7.663  -0.552  0.00  0.00    +0.120 A 
ATOM     10  C   UNL     1       4.057   8.909  -0.452  0.00  0.00    +0.092 A 
ATOM     11  C   UNL     1       5.443   8.925  -0.197  0.00  0.00    +0.268 A 
ATOM     12  O   UNL     1       6.043   9.983  -0.098  0.00  0.00    -0.267 OA
ENDROOT
BRANCH  10  13
ATOM     13  C   UNL     1       3.307  10.162  -0.605  0.00  0.00    +0.146 C 
ATOM     14  N   UNL     1       2.027  10.131  -0.836  0.00  0.00    -0.188 NA
BRANCH  14  15
ATOM     15  N   UNL     1       1.312  11.326  -0.982  0.00  0.00    -0.219 N 
ATOM     16  H   UNL     1       1.771  12.178  -0.911  0.00  0.00    +0.176 HD
BRANCH  15  17
ATOM     17  C   UNL     1      -0.014  11.293  -1.220  0.00  0.00    +0.147 C 
ATOM     18  S   UNL     1      -0.888  12.755  -1.398  0.00  0.00    -0.017 S 
BRANCH  17  19
ATOM     19  N   UNL     1      -0.652  10.110  -1.318  0.00  0.00    -0.339 N 
ATOM     20  H   UNL     1      -0.157   9.282  -1.217  0.00  0.00    +0.144 HD
ATOM     21  H   UNL     1      -1.606  10.086  -1.490  0.00  0.00    +0.144 HD
ENDBRANCH  17  19
ENDBRANCH  15  17
ENDBRANCH  14  15
ENDBRANCH  10  13
BRANCH   9  22
ATOM     22  S   UNL     1       1.674   7.590  -0.863  0.00  0.00    -0.042 S 
BRANCH  22  23
ATOM     23  C   UNL     1       1.119   6.893   0.657  0.00  0.00    +0.142 A 
ATOM     24  N   UNL     1      -0.095   6.527   1.002  0.00  0.00    -0.232 NA
ATOM     25  C   UNL     1      -0.378   6.002   2.213  0.00  0.00    +0.079 A 
ATOM     26  C   UNL     1      -1.631   5.571   2.707  0.00  0.00    +0.029 A 
ATOM     27  C   UNL     1      -1.746   5.053   3.970  0.00  0.00    +0.002 A 
ATOM     28  C   UNL     1      -0.647   4.943   4.811  0.00  0.00    +0.001 A 
ATOM     29  C   UNL     1       0.594   5.355   4.361  0.00  0.00    +0.017 A 
ATOM     30  C   UNL     1       0.719   5.870   3.095  0.00  0.00    +0.040 A 
ATOM     31  S   UNL     1       2.064   6.505   2.123  0.00  0.00    -0.061 S 
ENDBRANCH  22  23
ENDBRANCH   9  22
TORSDOF 6
