REMARK  Name = ZINC06952273
REMARK  17 active torsions:
REMARK  status: ('A' for Active; 'I' for Inactive)
REMARK    1  A    between atoms: C_1  and  C_2
REMARK    2  A    between atoms: C_2  and  C_3
REMARK    3  A    between atoms: C_2  and  C_4
REMARK    4  A    between atoms: C_4  and  C_5
REMARK    5  A    between atoms: C_5  and  C_7
REMARK    6  A    between atoms: C_5  and  N_27
REMARK    7  A    between atoms: N_9  and  N_10
REMARK    8  A    between atoms: C_11  and  C_12
REMARK    9  A    between atoms: C_14  and  C_23
REMARK   10  A    between atoms: C_15  and  O_22
REMARK   11  A    between atoms: C_16  and  C_18
REMARK   12  A    between atoms: C_18  and  C_19
REMARK   13  A    between atoms: C_18  and  C_20
REMARK   14  A    between atoms: C_18  and  C_21
REMARK   15  A    between atoms: C_23  and  C_24
REMARK   16  A    between atoms: C_23  and  C_25
REMARK   17  A    between atoms: C_23  and  C_26
REMARK                            x       y       z     vdW  Elec       q    Type
REMARK                         _______ _______ _______ _____ _____    ______ ____
ROOT
ATOM      1  C   UNL     1      -6.480  -3.599  -3.138  0.00  0.00    -0.005 A 
ATOM      2  C   UNL     1      -7.259  -4.034  -2.062  0.00  0.00    +0.017 A 
ATOM      3  C   UNL     1      -8.537  -4.500  -2.283  0.00  0.00    +0.000 A 
ATOM      4  C   UNL     1      -9.051  -4.538  -3.573  0.00  0.00    +0.124 A 
ATOM      5  C   UNL     1      -8.280  -4.108  -4.646  0.00  0.00    +0.000 A 
ATOM      6  C   UNL     1      -7.004  -3.635  -4.434  0.00  0.00    +0.017 A 
ENDROOT
BRANCH   5   7
ATOM      7  C   UNL     1      -8.844  -4.153  -6.043  0.00  0.00    -0.009 C 
ATOM      8  C   UNL     1      -7.800  -3.627  -7.030  0.00  0.00    +0.015 C 
ATOM      9  C   UNL     1      -9.204  -5.596  -6.401  0.00  0.00    +0.015 C 
ATOM     10  C   UNL     1     -10.099  -3.281  -6.115  0.00  0.00    +0.015 C 
ENDBRANCH   5   7
BRANCH   3  11
ATOM     11  C   UNL     1      -9.377  -4.970  -1.124  0.00  0.00    -0.009 C 
ATOM     12  C   UNL     1      -8.581  -4.824   0.175  0.00  0.00    +0.015 C 
ATOM     13  C   UNL     1     -10.649  -4.123  -1.040  0.00  0.00    +0.015 C 
ATOM     14  C   UNL     1      -9.754  -6.438  -1.329  0.00  0.00    +0.015 C 
ENDBRANCH   3  11
BRANCH   1  16
ATOM     15  N   UNL     1      -4.628  -3.067  -1.703  0.00  0.00    -0.188 NA
ATOM     16  C   UNL     1      -5.113  -3.099  -2.907  0.00  0.00    +0.138 C 
BRANCH  15  19
ATOM     17  C   UNL     1      -2.826  -2.559  -0.234  0.00  0.00    +0.218 C 
ATOM     18  O   UNL     1      -3.499  -2.940   0.701  0.00  0.00    -0.276 OA
ATOM     19  N   UNL     1      -3.329  -2.592  -1.484  0.00  0.00    -0.208 N 
ATOM     20  H   UNL     1      -2.791  -2.287  -2.231  0.00  0.00    +0.177 HD
BRANCH  17  21
ATOM     21  C   UNL     1      -1.428  -2.048   0.003  0.00  0.00    +0.015 C 
BRANCH  21  22
ATOM     22  N   UNL     1      -0.940  -2.538   1.299  0.00  0.00    +0.386 N 
ATOM     23  H   UNL     1      -1.496  -2.138   2.040  0.00  0.00    -0.089 HD
ATOM     24  H   UNL     1      -1.014  -3.544   1.327  0.00  0.00    -0.089 HD
ATOM     25  H   UNL     1       0.025  -2.268   1.419  0.00  0.00    -0.089 HD
ENDBRANCH  21  22
BRANCH  21  26
ATOM     26  C   UNL     1      -1.439  -0.518   0.007  0.00  0.00    -0.004 C 
BRANCH  26  28
ATOM     27  C   UNL     1       0.784  -0.381  -1.125  0.00  0.00    +0.007 C 
ATOM     28  C   UNL     1      -0.005   0.002   0.129  0.00  0.00    -0.018 C 
ATOM     29  C   UNL     1      -0.025   1.525   0.274  0.00  0.00    +0.007 C 
ENDBRANCH  26  28
ENDBRANCH  21  26
ENDBRANCH  17  21
ENDBRANCH  15  19
ENDBRANCH   1  16
BRANCH   4  30
ATOM     30  O   UNL     1     -10.311  -4.999  -3.786  0.00  0.00    -0.506 OA
ATOM     31  H   UNL     1     -10.992  -4.314  -3.746  0.00  0.00    +0.292 HD
ENDBRANCH   4  30
TORSDOF 9
