REMARK  Name = ZINC45452654
REMARK  10 active torsions:
REMARK  status: ('A' for Active; 'I' for Inactive)
REMARK    1  A    between atoms: C_1  and  C_2
REMARK    2  A    between atoms: C_5  and  N_9
REMARK    3  A    between atoms: C_6  and  C_8
REMARK    4  A    between atoms: N_9  and  S_10
REMARK    5  A    between atoms: S_10  and  C_13
REMARK    6  A    between atoms: C_17  and  C_19
REMARK    7  A    between atoms: N_21  and  N_22
REMARK    8  A    between atoms: C_23  and  C_24
REMARK    9  A    between atoms: C_23  and  C_25
REMARK   10  A    between atoms: C_28  and  C_30
REMARK                            x       y       z     vdW  Elec       q    Type
REMARK                         _______ _______ _______ _____ _____    ______ ____
ROOT
ATOM      1  C   UNL     1       2.517  -4.719  -1.127  0.00  0.00    +0.109 A 
ATOM      2  C   UNL     1       3.106  -3.635  -1.754  0.00  0.00    +0.029 A 
ATOM      3  C   UNL     1       4.469  -3.423  -1.647  0.00  0.00    +0.003 A 
ATOM      4  C   UNL     1       5.250  -4.293  -0.913  0.00  0.00    +0.013 A 
ATOM      5  C   UNL     1       4.661  -5.388  -0.278  0.00  0.00    +0.040 A 
ATOM      6  C   UNL     1       3.284  -5.593  -0.386  0.00  0.00    +0.042 A 
ENDROOT
BRANCH   5   7
ATOM      7  C   UNL     1       5.491  -6.324   0.509  0.00  0.00    +0.263 C 
ATOM      8  O   UNL     1       4.976  -7.277   1.061  0.00  0.00    -0.268 OA
ATOM      9  N   UNL     1       6.819  -6.120   0.616  0.00  0.00    -0.203 N 
ATOM     10  H   UNL     1       7.230  -5.360   0.176  0.00  0.00    +0.178 HD
BRANCH   9  11
ATOM     11  N   UNL     1       7.606  -7.007   1.362  0.00  0.00    -0.181 NA
ATOM     12  C   UNL     1       8.888  -6.811   1.465  0.00  0.00    +0.098 C 
ATOM     13  C   UNL     1       9.527  -5.630   0.781  0.00  0.00    +0.071 C 
BRANCH  12  14
ATOM     14  C   UNL     1       9.711  -7.739   2.246  0.00  0.00    +0.150 A 
ATOM     15  C   UNL     1       9.264  -8.846   2.908  0.00  0.00    +0.051 A 
ATOM     16  C   UNL     1      10.387  -9.435   3.517  0.00  0.00    +0.045 A 
ATOM     17  C   UNL     1      11.454  -8.671   3.204  0.00  0.00    +0.103 A 
ATOM     18  O   UNL     1      11.044  -7.652   2.432  0.00  0.00    -0.459 OA
ATOM     19  C   UNL     1      12.873  -8.924   3.643  0.00  0.00    +0.086 C 
ENDBRANCH  12  14
ENDBRANCH   9  11
ENDBRANCH   5   7
BRANCH   1  20
ATOM     20  S   UNL     1       0.780  -4.979  -1.271  0.00  0.00    +0.072 S 
ATOM     21  O   UNL     1       0.556  -6.363  -1.040  0.00  0.00    -0.150 OA
ATOM     22  O   UNL     1       0.369  -4.331  -2.467  0.00  0.00    -0.150 OA
BRANCH  20  23
ATOM     23  N   UNL     1       0.058  -4.167  -0.021  0.00  0.00    -0.216 N 
ATOM     24  H   UNL     1      -0.470  -4.653   0.632  0.00  0.00    +0.174 HD
BRANCH  23  29
ATOM     25  C   UNL     1       0.671   1.451   0.442  0.00  0.00    +0.044 C 
ATOM     26  C   UNL     1       0.508  -0.042   0.319  0.00  0.00    -0.050 A 
ATOM     27  C   UNL     1       0.416  -0.625  -0.932  0.00  0.00    +0.005 A 
ATOM     28  C   UNL     1       0.267  -1.993  -1.048  0.00  0.00    +0.025 A 
ATOM     29  C   UNL     1       0.209  -2.784   0.093  0.00  0.00    +0.051 A 
ATOM     30  C   UNL     1       0.302  -2.195   1.347  0.00  0.00    -0.028 A 
ATOM     31  C   UNL     1       0.457  -0.826   1.456  0.00  0.00    +0.008 A 
ATOM     32  C   UNL     1       0.239  -3.048   2.588  0.00  0.00    +0.046 C 
ENDBRANCH  23  29
ENDBRANCH  20  23
ENDBRANCH   1  20
TORSDOF 6
