REMARK  Name = ZINC00705612
REMARK  5 active torsions:
REMARK  status: ('A' for Active; 'I' for Inactive)
REMARK    1  A    between atoms: C_5  and  C_7
REMARK    2  A    between atoms: C_13  and  C_28
REMARK    3  A    between atoms: C_14  and  C_21
REMARK    4  A    between atoms: C_16  and  C_19
REMARK    5  A    between atoms: C_17  and  N_18
REMARK                            x       y       z     vdW  Elec       q    Type
REMARK                         _______ _______ _______ _____ _____    ______ ____
ROOT
ATOM      1  C   UNL     1       8.271   1.801   1.914  0.00  0.00    +0.031 C 
ATOM      2  C   UNL     1       6.997   2.114   1.563  0.00  0.00    +0.080 A 
ATOM      3  C   UNL     1       6.353   2.059   0.245  0.00  0.00    +0.271 A 
ATOM      4  O   UNL     1       6.973   1.692  -0.736  0.00  0.00    -0.266 OA
ATOM      5  N   UNL     1       5.060   2.425   0.147  0.00  0.00    -0.256 N 
ATOM      6  C   UNL     1       4.419   2.831   1.302  0.00  0.00    +0.104 A 
ATOM      7  C   UNL     1       3.122   3.227   1.359  0.00  0.00    +0.073 C 
ATOM      8  C   UNL     1       2.313   3.227   0.078  0.00  0.00    +0.108 C 
ATOM      9  C   UNL     1       3.051   2.775  -1.166  0.00  0.00    +0.080 C 
ATOM     10  C   UNL     1       4.348   2.411  -1.058  0.00  0.00    +0.119 C 
ATOM     11  S   UNL     1       5.654   2.703   2.580  0.00  0.00    -0.065 S 
ENDROOT
BRANCH   1  16
ATOM     12  C   UNL     1      10.243   1.940  -1.271  0.00  0.00    +0.001 A 
ATOM     13  C   UNL     1      11.133   0.896  -1.082  0.00  0.00    +0.003 A 
ATOM     14  C   UNL     1      11.095   0.145   0.079  0.00  0.00    +0.039 A 
ATOM     15  C   UNL     1      10.169   0.435   1.063  0.00  0.00    +0.131 A 
ATOM     16  C   UNL     1       9.262   1.487   0.876  0.00  0.00    +0.011 A 
ATOM     17  C   UNL     1       9.310   2.240  -0.303  0.00  0.00    +0.011 A 
ATOM     18  F   UNL     1      10.136  -0.294   2.200  0.00  0.00    -0.205 F 
ENDBRANCH   1  16
BRANCH   8  19
ATOM     19  C   UNL     1       1.121   2.325   0.272  0.00  0.00    +0.001 A 
ATOM     20  C   UNL     1       1.304   0.966   0.445  0.00  0.00    +0.007 A 
ATOM     21  C   UNL     1       0.210   0.139   0.623  0.00  0.00    +0.000 A 
ATOM     22  C   UNL     1      -1.066   0.669   0.623  0.00  0.00    +0.003 A 
ATOM     23  C   UNL     1      -1.251   2.029   0.456  0.00  0.00    +0.038 A 
ATOM     24  C   UNL     1      -0.156   2.858   0.278  0.00  0.00    +0.127 A 
ATOM     25  F   UNL     1      -0.336   4.187   0.110  0.00  0.00    -0.205 F 
ENDBRANCH   8  19
BRANCH  10  26
ATOM     26  N   UNL     1       5.004   2.003  -2.194  0.00  0.00    -0.343 N 
ATOM     27  H   UNL     1       4.473   1.981  -3.157  0.00  0.00    +0.144 HD
ATOM     28  H   UNL     1       6.060   1.700  -2.140  0.00  0.00    +0.144 HD
ENDBRANCH  10  26
BRANCH   9  29
ATOM     29  C   UNL     1       2.386   2.736  -2.434  0.00  0.00    +0.099 C 
ATOM     30  N   UNL     1       1.859   2.705  -3.440  0.00  0.00    -0.191 NA
ENDBRANCH   9  29
BRANCH   7  31
ATOM     31  C   UNL     1       2.533   3.634   2.599  0.00  0.00    +0.098 C 
ATOM     32  N   UNL     1       2.066   3.957   3.583  0.00  0.00    -0.191 NA
ENDBRANCH   7  31
TORSDOF 5
