REMARK  Name = ZINC39533482
REMARK  10 active torsions:
REMARK  status: ('A' for Active; 'I' for Inactive)
REMARK    1  A    between atoms: C_1  and  C_2
REMARK    2  A    between atoms: C_2  and  C_3
REMARK    3  A    between atoms: C_2  and  C_4
REMARK    4  A    between atoms: C_4  and  C_5
REMARK    5  A    between atoms: C_8  and  C_11
REMARK    6  A    between atoms: C_11  and  C_13
REMARK    7  A    between atoms: C_11  and  N_22
REMARK    8  A    between atoms: C_13  and  N_14
REMARK    9  A    between atoms: N_14  and  C_15
REMARK   10  A    between atoms: C_15  and  C_16
REMARK                            x       y       z     vdW  Elec       q    Type
REMARK                         _______ _______ _______ _____ _____    ______ ____
ROOT
ATOM      1  C   UNL     1      -1.336  -6.325  -0.484  0.00  0.00    +0.070 C 
ENDROOT
BRANCH   1   2
ATOM      2  N   UNL     1      -2.141  -6.780   0.657  0.00  0.00    -0.294 NA
ATOM      3  C   UNL     1      -1.991  -8.227   0.863  0.00  0.00    +0.100 C 
ATOM      4  C   UNL     1      -2.780  -8.647   2.106  0.00  0.00    +0.097 C 
ATOM      5  N   UNL     1      -4.194  -8.286   1.930  0.00  0.00    -0.302 NA
ATOM      6  C   UNL     1      -4.344  -6.839   1.723  0.00  0.00    +0.136 C 
ATOM      7  C   UNL     1      -3.555  -6.419   0.481  0.00  0.00    +0.115 C 
ATOM      8 BR   UNL     1      -6.245  -6.405   1.471  0.00  0.00    -0.070 Br
ATOM      9  H   UNL     1      -4.608  -8.805   1.169  0.00  0.00    +0.123 HD
ENDBRANCH   1   2
BRANCH   1  13
ATOM     10  C   UNL     1      -1.588  -2.072  -0.799  0.00  0.00    -0.047 A 
ATOM     11  C   UNL     1      -1.607  -2.852  -1.940  0.00  0.00    +0.004 A 
ATOM     12  C   UNL     1      -1.525  -4.228  -1.838  0.00  0.00    +0.005 A 
ATOM     13  C   UNL     1      -1.424  -4.825  -0.595  0.00  0.00    -0.032 A 
ATOM     14  C   UNL     1      -1.405  -4.045   0.546  0.00  0.00    +0.005 A 
ATOM     15  C   UNL     1      -1.482  -2.669   0.444  0.00  0.00    +0.004 A 
BRANCH  10  16
ATOM     16  C   UNL     1      -1.678  -0.572  -0.909  0.00  0.00    +0.038 C 
BRANCH  16  18
ATOM     17  C   UNL     1      -0.365   1.523  -1.269  0.00  0.00    +0.007 C 
ATOM     18  C   UNL     1      -0.270   0.015  -1.032  0.00  0.00    -0.013 C 
ATOM     19  C   UNL     1       0.507  -0.250   0.259  0.00  0.00    +0.007 C 
ENDBRANCH  16  18
ENDBRANCH  10  16
ENDBRANCH   1  13
BRANCH   1  20
ATOM     20  C   UNL     1       0.123  -6.736  -0.275  0.00  0.00    -0.058 C 
BRANCH  20  21
ATOM     21  N   UNL     1       0.915  -6.344  -1.449  0.00  0.00    +0.383 N 
ATOM     22  H   UNL     1       0.496  -6.730  -2.281  0.00  0.00    -0.085 HD
ATOM     23  H   UNL     1       0.938  -5.338  -1.519  0.00  0.00    -0.085 HD
BRANCH  21  24
ATOM     24  C   UNL     1       2.285  -6.855  -1.308  0.00  0.00    -0.047 C 
BRANCH  24  25
ATOM     25  C   UNL     1       3.098  -6.453  -2.511  0.00  0.00    -0.064 A 
ATOM     26  C   UNL     1       3.146  -7.278  -3.620  0.00  0.00    +0.002 A 
ATOM     27  C   UNL     1       3.891  -6.909  -4.724  0.00  0.00    +0.000 A 
ATOM     28  C   UNL     1       4.589  -5.715  -4.720  0.00  0.00    +0.000 A 
ATOM     29  C   UNL     1       4.540  -4.890  -3.612  0.00  0.00    +0.000 A 
ATOM     30  C   UNL     1       3.791  -5.257  -2.509  0.00  0.00    +0.002 A 
ENDBRANCH  24  25
ENDBRANCH  21  24
ENDBRANCH  20  21
ENDBRANCH   1  20
TORSDOF 8
