REMARK  Name = ZINC05255326
REMARK  5 active torsions:
REMARK  status: ('A' for Active; 'I' for Inactive)
REMARK    1  A    between atoms: C_1  and  O_2
REMARK    2  A    between atoms: O_2  and  C_3
REMARK    3  A    between atoms: C_11  and  N_16
REMARK    4  A    between atoms: C_12  and  C_13
REMARK    5  A    between atoms: C_17  and  C_19
REMARK                            x       y       z     vdW  Elec       q    Type
REMARK                         _______ _______ _______ _____ _____    ______ ____
ROOT
ATOM      1  C   UNL     1      -1.189  -0.632   0.010  0.00  0.00    +0.403 C 
ATOM      2  O   UNL     1      -2.217   0.016   0.023  0.00  0.00    -0.226 OA
ATOM      3  N   UNL     1      -1.241  -1.978   0.003  0.00  0.00    -0.262 N 
ATOM      4  C   UNL     1      -2.528  -2.691   0.005  0.00  0.00    +0.116 C 
ATOM      5  C   UNL     1      -2.680  -3.479  -1.297  0.00  0.00    +0.056 C 
ATOM      6  C   UNL     1      -1.397  -4.252  -1.566  0.00  0.00    -0.020 A 
ATOM      7  C   UNL     1      -0.230  -3.914  -0.976  0.00  0.00    +0.013 A 
ATOM      8  S   UNL     1       0.944  -5.081  -1.595  0.00  0.00    -0.076 S 
ATOM      9  C   UNL     1      -0.055  -5.989  -2.594  0.00  0.00    +0.085 A 
ATOM     10  C   UNL     1      -1.300  -5.396  -2.456  0.00  0.00    +0.068 A 
ATOM     11  C   UNL     1      -0.009  -2.792  -0.013  0.00  0.00    +0.153 C 
ENDROOT
BRANCH  10  12
ATOM     12  C   UNL     1      -2.471  -5.903  -3.178  0.00  0.00    +0.244 C 
ATOM     13  O   UNL     1      -2.740  -5.469  -4.283  0.00  0.00    -0.270 OA
ATOM     14  N   UNL     1      -3.250  -6.850  -2.619  0.00  0.00    -0.325 N 
ATOM     15  H   UNL     1      -3.036  -7.196  -1.738  0.00  0.00    +0.145 HD
ATOM     16  H   UNL     1      -4.025  -7.185  -3.096  0.00  0.00    +0.145 HD
ENDBRANCH  10  12
BRANCH   9  17
ATOM     17  N   UNL     1       0.287  -7.082  -3.376  0.00  0.00    -0.276 N 
ATOM     18  C   UNL     1       1.558  -7.530  -3.390  0.00  0.00    +0.262 C 
ATOM     19  O   UNL     1       2.403  -6.977  -2.717  0.00  0.00    -0.271 OA
ATOM     20  H   UNL     1      -0.389  -7.524  -3.914  0.00  0.00    +0.155 HD
BRANCH  18  21
ATOM     21  C   UNL     1       1.929  -8.717  -4.240  0.00  0.00    +0.296 C 
ATOM     22  C   UNL     1       1.219  -9.972  -3.715  0.00  0.00    +0.283 C 
ATOM     23  O   UNL     1       1.604 -11.081  -4.535  0.00  0.00    -0.484 OA
ATOM     24  C   UNL     1       2.931 -11.205  -4.811  0.00  0.00    +0.162 A 
ATOM     25  C   UNL     1       3.419 -12.418  -5.276  0.00  0.00    +0.049 A 
ATOM     26  C   UNL     1       4.763 -12.559  -5.564  0.00  0.00    +0.004 A 
ATOM     27  C   UNL     1       5.625 -11.492  -5.389  0.00  0.00    +0.004 A 
ATOM     28  C   UNL     1       5.146 -10.282  -4.925  0.00  0.00    +0.049 A 
ATOM     29  C   UNL     1       3.798 -10.134  -4.633  0.00  0.00    +0.163 A 
ATOM     30  O   UNL     1       3.342  -8.938  -4.170  0.00  0.00    -0.473 OA
ENDBRANCH  18  21
ENDBRANCH   9  17
BRANCH   1  32
ATOM     31  C   UNL     1      -0.017   1.425   0.010  0.00  0.00    +0.282 C 
ATOM     32  O   UNL     1       0.002  -0.004   0.002  0.00  0.00    -0.454 OA
ENDBRANCH   1  32
TORSDOF 4
