REMARK  Name = ZINC12250181
REMARK  12 active torsions:
REMARK  status: ('A' for Active; 'I' for Inactive)
REMARK    1  A    between atoms: C_1  and  C_2
REMARK    2  A    between atoms: C_2  and  C_3
REMARK    3  A    between atoms: C_6  and  N_9
REMARK    4  A    between atoms: C_10  and  C_12
REMARK    5  A    between atoms: C_13  and  C_38
REMARK    6  A    between atoms: C_15  and  S_26
REMARK    7  A    between atoms: C_16  and  C_24
REMARK    8  A    between atoms: C_17  and  C_19
REMARK    9  A    between atoms: S_26  and  C_27
REMARK   10  A    between atoms: C_27  and  C_28
REMARK   11  A    between atoms: N_30  and  C_31
REMARK   12  A    between atoms: C_36  and  C_37
REMARK                            x       y       z     vdW  Elec       q    Type
REMARK                         _______ _______ _______ _____ _____    ______ ____
ROOT
ATOM      1  C   UNL     1      -1.519   3.888  -0.070  0.00  0.00    +0.047 C 
ATOM      2  C   UNL     1      -0.498   4.469   0.579  0.00  0.00    +0.015 C 
ATOM      3  N   UNL     1       0.730   3.868   0.644  0.00  0.00    -0.312 N 
ATOM      4  C   UNL     1       1.054   2.858  -0.235  0.00  0.00    +0.080 C 
ATOM      5  C   UNL     1       0.080   2.205  -0.925  0.00  0.00    +0.072 C 
ATOM      6  C   UNL     1      -1.370   2.558  -0.750  0.00  0.00    +0.134 C 
ATOM      7  C   UNL     1      -0.706   5.803   1.247  0.00  0.00    +0.061 C 
ATOM      8  H   UNL     1       1.461   4.191   1.399  0.00  0.00    +0.152 HD
ENDROOT
BRANCH   6   9
ATOM      9  C   UNL     1      -2.034   2.612  -2.102  0.00  0.00    +0.118 A 
ATOM     10  C   UNL     1      -3.147   1.947  -2.458  0.00  0.00    +0.045 A 
ATOM     11  C   UNL     1      -3.413   2.286  -3.804  0.00  0.00    +0.041 A 
ATOM     12  C   UNL     1      -2.447   3.137  -4.190  0.00  0.00    +0.195 A 
ATOM     13  O   UNL     1      -1.617   3.336  -3.153  0.00  0.00    -0.467 OA
ENDBRANCH   6   9
BRANCH   1  15
ATOM     14  N   UNL     1      -2.942   5.603  -0.944  0.00  0.00    -0.282 N 
ATOM     15  C   UNL     1      -2.769   4.549  -0.121  0.00  0.00    +0.247 C 
ATOM     16  O   UNL     1      -3.689   4.167   0.580  0.00  0.00    -0.270 OA
ATOM     17  H   UNL     1      -2.146   5.886  -1.648  0.00  0.00    +0.155 HD
BRANCH  14  21
ATOM     18  C   UNL     1      -6.490   7.782  -0.822  0.00  0.00    -0.048 A 
ATOM     19  C   UNL     1      -5.812   7.633  -2.018  0.00  0.00    +0.005 A 
ATOM     20  C   UNL     1      -4.636   6.911  -2.062  0.00  0.00    +0.023 A 
ATOM     21  C   UNL     1      -4.133   6.334  -0.903  0.00  0.00    +0.034 A 
ATOM     22  C   UNL     1      -4.819   6.481   0.296  0.00  0.00    +0.023 A 
ATOM     23  C   UNL     1      -5.992   7.208   0.334  0.00  0.00    +0.005 A 
BRANCH  18  25
ATOM     24  C   UNL     1      -8.956   7.634  -1.037  0.00  0.00    +0.009 C 
ATOM     25  C   UNL     1      -7.774   8.570  -0.778  0.00  0.00    +0.032 C 
ENDBRANCH  18  25
ENDBRANCH  14  21
ENDBRANCH   1  15
BRANCH   5  26
ATOM     26  C   UNL     1       0.444   1.165  -1.839  0.00  0.00    +0.098 C 
ATOM     27  N   UNL     1       0.733   0.340  -2.565  0.00  0.00    -0.191 NA
ENDBRANCH   5  26
BRANCH   4  28
ATOM     28  S   UNL     1       2.742   2.409  -0.468  0.00  0.00    -0.100 S 
BRANCH  28  29
ATOM     29  C   UNL     1       3.536   3.575   0.666  0.00  0.00    +0.171 C 
BRANCH  29  30
ATOM     30  C   UNL     1       5.029   3.370   0.633  0.00  0.00    +0.227 C 
ATOM     31  O   UNL     1       5.508   2.519  -0.086  0.00  0.00    -0.275 OA
ATOM     32  N   UNL     1       5.831   4.131   1.403  0.00  0.00    -0.285 N 
ATOM     33  H   UNL     1       5.393   4.851   2.111  0.00  0.00    +0.155 HD
BRANCH  32  34
ATOM     34  C   UNL     1       7.221   4.007   1.302  0.00  0.00    +0.036 A 
ATOM     35  C   UNL     1       7.793   2.765   1.059  0.00  0.00    +0.023 A 
ATOM     36  C   UNL     1       9.165   2.646   0.960  0.00  0.00    +0.002 A 
ATOM     37  C   UNL     1       9.970   3.762   1.103  0.00  0.00    +0.000 A 
ATOM     38  C   UNL     1       9.403   5.000   1.345  0.00  0.00    +0.005 A 
ATOM     39  C   UNL     1       8.031   5.126   1.440  0.00  0.00    -0.029 A 
ATOM     40  C   UNL     1       7.415   6.477   1.698  0.00  0.00    +0.045 C 
ENDBRANCH  32  34
ENDBRANCH  29  30
ENDBRANCH  28  29
ENDBRANCH   4  28
TORSDOF 9
