REMARK  Name = ZINC37912809
REMARK  5 active torsions:
REMARK  status: ('A' for Active; 'I' for Inactive)
REMARK    1  A    between atoms: C_1  and  C_2
REMARK    2  A    between atoms: C_2  and  C_3
REMARK    3  A    between atoms: N_8  and  S_9
REMARK    4  A    between atoms: S_9  and  C_12
REMARK    5  A    between atoms: C_13  and  N_20
REMARK                            x       y       z     vdW  Elec       q    Type
REMARK                         _______ _______ _______ _____ _____    ______ ____
ROOT
ATOM      1  C   UNL     1      -3.971   1.704  -1.324  0.00  0.00    +0.144 A 
ATOM      2  C   UNL     1      -5.132   1.328  -1.988  0.00  0.00    +0.054 A 
ATOM      3  C   UNL     1      -6.370   1.554  -1.401  0.00  0.00    +0.044 A 
ATOM      4  C   UNL     1      -6.444   2.152  -0.157  0.00  0.00    +0.044 A 
ATOM      5  C   UNL     1      -5.286   2.526   0.503  0.00  0.00    +0.042 A 
ATOM      6  C   UNL     1      -4.051   2.297  -0.078  0.00  0.00    +0.070 A 
ATOM      7 CL   UNL     1      -2.601   2.761   0.757  0.00  0.00    -0.081 Cl
ATOM      8 CL   UNL     1      -7.991   2.436   0.578  0.00  0.00    -0.083 Cl
ENDROOT
BRANCH   1   9
ATOM      9  S   UNL     1      -2.398   1.419  -2.065  0.00  0.00    +0.064 S 
ATOM     10  O   UNL     1      -1.469   2.242  -1.375  0.00  0.00    -0.153 OA
ATOM     11  O   UNL     1      -2.591   1.501  -3.471  0.00  0.00    -0.153 OA
BRANCH   9  16
ATOM     12  C   UNL     1      -1.307  -0.617  -0.514  0.00  0.00    +0.080 C 
ATOM     13  C   UNL     1      -1.146  -2.147  -0.634  0.00  0.00    +0.022 C 
ATOM     14  C   UNL     1      -2.241  -2.532  -1.663  0.00  0.00    +0.019 C 
ATOM     15  C   UNL     1      -2.215  -1.311  -2.616  0.00  0.00    +0.110 C 
ATOM     16  N   UNL     1      -1.979  -0.148  -1.735  0.00  0.00    -0.173 NA
BRANCH  12  18
ATOM     17  C   UNL     1       0.722  -0.382   0.925  0.00  0.00    +0.005 C 
ATOM     18  C   UNL     1       0.068   0.043  -0.391  0.00  0.00    +0.017 C 
ENDBRANCH  12  18
ENDBRANCH   9  16
ENDBRANCH   1   9
BRANCH   2  19
ATOM     19  N   UNL     1      -5.054   0.725  -3.245  0.00  0.00    -0.356 N 
ATOM     20  H   UNL     1      -4.199   0.412  -3.581  0.00  0.00    +0.142 HD
ATOM     21  H   UNL     1      -5.854   0.618  -3.783  0.00  0.00    +0.142 HD
ENDBRANCH   2  19
TORSDOF 4
