REMARK  Name = ZINC00906209
REMARK  12 active torsions:
REMARK  status: ('A' for Active; 'I' for Inactive)
REMARK    1  A    between atoms: C_1  and  C_2
REMARK    2  A    between atoms: C_2  and  C_4
REMARK    3  A    between atoms: C_8  and  N_10
REMARK    4  A    between atoms: N_10  and  C_11
REMARK    5  A    between atoms: C_11  and  C_13
REMARK    6  A    between atoms: C_11  and  C_22
REMARK    7  A    between atoms: C_16  and  O_20
REMARK    8  A    between atoms: C_17  and  O_19
REMARK    9  A    between atoms: O_20  and  C_21
REMARK   10  A    between atoms: N_24  and  C_25
REMARK   11  A    between atoms: C_31  and  C_33
REMARK   12  A    between atoms: C_33  and  N_34
REMARK                            x       y       z     vdW  Elec       q    Type
REMARK                         _______ _______ _______ _____ _____    ______ ____
ROOT
ATOM      1  N   UNL     1      -5.334   3.747  -1.859  0.00  0.00    -0.254 N 
ATOM      2  C   UNL     1      -4.051   3.334  -1.894  0.00  0.00    +0.242 C 
ATOM      3  O   UNL     1      -3.714   2.468  -2.673  0.00  0.00    -0.273 OA
ENDROOT
BRANCH   1   8
ATOM      4  C   UNL     1      -6.383   7.139  -0.862  0.00  0.00    +0.019 A 
ATOM      5  C   UNL     1      -6.409   7.002   0.529  0.00  0.00    +0.011 A 
ATOM      6  C   UNL     1      -6.081   5.794   1.109  0.00  0.00    +0.002 A 
ATOM      7  C   UNL     1      -5.725   4.717   0.318  0.00  0.00    +0.023 A 
ATOM      8  C   UNL     1      -5.695   4.842  -1.065  0.00  0.00    +0.038 A 
ATOM      9  C   UNL     1      -6.018   6.051  -1.659  0.00  0.00    +0.035 A 
BRANCH   4  11
ATOM     10  C   UNL     1      -7.121   9.600  -0.622  0.00  0.00    +0.091 C 
ATOM     11  C   UNL     1      -6.733   8.427  -1.484  0.00  0.00    +0.160 C 
ATOM     12  O   UNL     1      -6.710   8.543  -2.691  0.00  0.00    -0.292 OA
ENDBRANCH   4  11
ENDBRANCH   1   8
BRANCH   1  13
ATOM     13  C   UNL     1      -6.349   3.050  -2.653  0.00  0.00    +0.197 C 
BRANCH  13  14
ATOM     14  C   UNL     1      -7.657   3.792  -2.557  0.00  0.00    -0.014 A 
ATOM     15  C   UNL     1      -8.220   4.042  -1.319  0.00  0.00    +0.010 A 
ATOM     16  C   UNL     1      -9.417   4.727  -1.226  0.00  0.00    +0.050 A 
ATOM     17  C   UNL     1     -10.061   5.155  -2.376  0.00  0.00    +0.161 A 
ATOM     18  C   UNL     1      -9.498   4.899  -3.622  0.00  0.00    +0.159 A 
ATOM     19  C   UNL     1      -8.295   4.217  -3.708  0.00  0.00    +0.055 A 
BRANCH  18  20
ATOM     20  O   UNL     1     -10.126   5.317  -4.753  0.00  0.00    -0.503 OA
ATOM     21  H   UNL     1     -10.746   4.672  -5.121  0.00  0.00    +0.292 HD
ENDBRANCH  18  20
BRANCH  17  22
ATOM     22  O   UNL     1     -11.242   5.824  -2.287  0.00  0.00    -0.491 OA
ATOM     23  C   UNL     1     -11.761   6.052  -0.975  0.00  0.00    +0.277 C 
ENDBRANCH  17  22
ENDBRANCH  13  14
BRANCH  13  24
ATOM     24  C   UNL     1      -6.526   1.650  -2.124  0.00  0.00    +0.239 C 
ATOM     25  O   UNL     1      -5.869   1.272  -1.178  0.00  0.00    -0.273 OA
ATOM     26  N   UNL     1      -7.415   0.819  -2.703  0.00  0.00    -0.311 N 
ATOM     27  H   UNL     1      -7.941   1.122  -3.460  0.00  0.00    +0.149 HD
BRANCH  26  28
ATOM     28  C   UNL     1      -7.587  -0.542  -2.189  0.00  0.00    +0.073 C 
ATOM     29  C   UNL     1      -6.538  -1.462  -2.819  0.00  0.00    +0.022 C 
ATOM     30  C   UNL     1      -6.718  -2.883  -2.283  0.00  0.00    +0.002 C 
ATOM     31  C   UNL     1      -8.118  -3.389  -2.636  0.00  0.00    +0.000 C 
ATOM     32  C   UNL     1      -9.166  -2.470  -2.007  0.00  0.00    +0.002 C 
ATOM     33  C   UNL     1      -8.987  -1.048  -2.543  0.00  0.00    +0.022 C 
ENDBRANCH  26  28
ENDBRANCH  13  24
ENDBRANCH   1  13
BRANCH   2  34
ATOM     34  C   UNL     1      -3.036   3.949  -0.964  0.00  0.00    +0.242 C 
BRANCH  34  35
ATOM     35  N   UNL     1      -1.739   3.295  -1.157  0.00  0.00    -0.235 N 
ATOM     36  C   UNL     1      -1.270   2.187  -0.492  0.00  0.00    +0.090 A 
ATOM     37  C   UNL     1      -1.792   1.359   0.496  0.00  0.00    +0.029 A 
ATOM     38  C   UNL     1      -1.053   0.310   0.964  0.00  0.00    +0.002 A 
ATOM     39  C   UNL     1       0.214   0.055   0.454  0.00  0.00    +0.002 A 
ATOM     40  C   UNL     1       0.747   0.848  -0.519  0.00  0.00    +0.032 A 
ATOM     41  C   UNL     1       0.011   1.934  -1.013  0.00  0.00    +0.113 A 
ATOM     42  N   UNL     1       0.265   2.872  -1.947  0.00  0.00    -0.129 NA
ATOM     43  N   UNL     1      -0.732   3.678  -2.055  0.00  0.00    -0.064 NA
ENDBRANCH  34  35
ENDBRANCH   2  34
TORSDOF 10
