REMARK  Name = ZINC43460746
REMARK  6 active torsions:
REMARK  status: ('A' for Active; 'I' for Inactive)
REMARK    1  A    between atoms: C_1  and  C_2
REMARK    2  A    between atoms: C_2  and  C_21
REMARK    3  A    between atoms: C_4  and  O_20
REMARK    4  A    between atoms: C_9  and  O_13
REMARK    5  A    between atoms: O_13  and  C_14
REMARK    6  A    between atoms: C_14  and  C_15
REMARK                            x       y       z     vdW  Elec       q    Type
REMARK                         _______ _______ _______ _____ _____    ______ ____
ROOT
ATOM      1  C   UNL     1      -0.019   1.526   0.010  0.00  0.00    +0.055 C 
ATOM      2  C   UNL     1       0.002  -0.004   0.002  0.00  0.00    +0.108 C 
ATOM      3  C   UNL     1      -1.435  -0.540   0.040  0.00  0.00    +0.083 C 
ATOM      4  C   UNL     1      -1.382  -2.065  -0.082  0.00  0.00    +0.152 C 
ATOM      5  C   UNL     1      -0.363  -2.616   0.884  0.00  0.00    +0.023 A 
ATOM      6  C   UNL     1      -0.415  -3.962   1.210  0.00  0.00    +0.013 A 
ATOM      7  C   UNL     1       0.502  -4.504   2.087  0.00  0.00    +0.046 A 
ATOM      8  C   UNL     1       1.485  -3.699   2.646  0.00  0.00    +0.125 A 
ATOM      9  C   UNL     1       1.540  -2.354   2.323  0.00  0.00    +0.091 A 
ATOM     10  C   UNL     1       0.613  -1.808   1.441  0.00  0.00    +0.130 A 
ATOM     11  O   UNL     1       0.692  -0.482   1.157  0.00  0.00    -0.486 OA
ATOM     12  C   UNL     1       0.706  -0.503  -1.262  0.00  0.00    +0.055 C 
ENDROOT
BRANCH   4  13
ATOM     13  O   UNL     1      -2.667  -2.611   0.222  0.00  0.00    -0.387 OA
ATOM     14  H   UNL     1      -2.708  -3.576   0.165  0.00  0.00    +0.210 HD
ENDBRANCH   4  13
BRANCH   8  15
ATOM     15  O   UNL     1       2.392  -4.230   3.508  0.00  0.00    -0.484 OA
BRANCH  15  16
ATOM     16  C   UNL     1       2.275  -5.625   3.795  0.00  0.00    +0.308 C 
BRANCH  16  17
ATOM     17  C   UNL     1       3.357  -6.031   4.762  0.00  0.00    +0.209 A 
ATOM     18  N   UNL     1       4.577  -6.463   4.426  0.00  0.00    -0.196 NA
ATOM     19  C   UNL     1       5.268  -6.731   5.500  0.00  0.00    +0.343 A 
ATOM     20  O   UNL     1       4.500  -6.476   6.567  0.00  0.00    -0.341 OA
ATOM     21  N   UNL     1       3.257  -6.014   6.060  0.00  0.00    -0.058 NA
ENDBRANCH  16  17
ENDBRANCH  15  16
ENDBRANCH   8  15
TORSDOF 4
