REMARK  Name = ZINC00946904
REMARK  8 active torsions:
REMARK  status: ('A' for Active; 'I' for Inactive)
REMARK    1  A    between atoms: C_4  and  C_7
REMARK    2  A    between atoms: C_7  and  N_8
REMARK    3  A    between atoms: C_16  and  C_17
REMARK    4  A    between atoms: C_21  and  C_26
REMARK    5  A    between atoms: C_22  and  C_24
REMARK    6  A    between atoms: N_28  and  C_31
REMARK    7  A    between atoms: C_29  and  N_30
REMARK    8  A    between atoms: C_31  and  C_32
REMARK                            x       y       z     vdW  Elec       q    Type
REMARK                         _______ _______ _______ _____ _____    ______ ____
ROOT
ATOM      1  C   UNL     1       1.400  -1.537  -0.624  0.00  0.00    +0.084 A 
ATOM      2  C   UNL     1       0.907  -0.497  -1.539  0.00  0.00    +0.122 A 
ATOM      3  C   UNL     1       1.863   0.547  -1.497  0.00  0.00    +0.163 A 
ATOM      4  N   UNL     1       1.680   1.631  -2.231  0.00  0.00    -0.214 NA
ATOM      5  C   UNL     1       0.603   1.738  -3.004  0.00  0.00    +0.178 A 
ATOM      6  C   UNL     1      -0.347   0.699  -3.045  0.00  0.00    +0.177 A 
ATOM      7  N   UNL     1      -0.168  -0.393  -2.308  0.00  0.00    -0.230 NA
ATOM      8  N   UNL     1       2.860   0.168  -0.624  0.00  0.00    -0.310 N 
ATOM      9  C   UNL     1       2.594  -1.064  -0.102  0.00  0.00    +0.111 A 
ENDROOT
BRANCH   1  18
ATOM     10  N   UNL     1      -0.553  -2.980   0.060  0.00  0.00    -0.319 N 
ATOM     11  C   UNL     1      -0.765  -4.336   0.242  0.00  0.00    +0.069 A 
ATOM     12  C   UNL     1      -1.865  -5.093   0.618  0.00  0.00    +0.028 A 
ATOM     13  C   UNL     1      -1.752  -6.464   0.718  0.00  0.00    +0.002 A 
ATOM     14  C   UNL     1      -0.546  -7.093   0.445  0.00  0.00    +0.002 A 
ATOM     15  C   UNL     1       0.556  -6.358   0.070  0.00  0.00    +0.030 A 
ATOM     16  C   UNL     1       0.459  -4.967  -0.036  0.00  0.00    +0.090 A 
ATOM     17  N   UNL     1       1.345  -3.996  -0.374  0.00  0.00    -0.227 NA
ATOM     18  C   UNL     1       0.754  -2.823  -0.323  0.00  0.00    +0.148 A 
BRANCH  10  19
ATOM     19  C   UNL     1      -1.541  -1.913   0.239  0.00  0.00    +0.159 C 
BRANCH  19  23
ATOM     20  C   UNL     1      -1.688  -0.784   4.356  0.00  0.00    +0.000 A 
ATOM     21  C   UNL     1      -0.736  -0.230   3.521  0.00  0.00    +0.000 A 
ATOM     22  C   UNL     1      -0.688  -0.595   2.188  0.00  0.00    +0.005 A 
ATOM     23  C   UNL     1      -1.593  -1.515   1.691  0.00  0.00    -0.028 A 
ATOM     24  C   UNL     1      -2.548  -2.064   2.525  0.00  0.00    +0.005 A 
ATOM     25  C   UNL     1      -2.593  -1.702   3.858  0.00  0.00    +0.000 A 
ENDBRANCH  19  23
ENDBRANCH  10  19
ENDBRANCH   1  18
BRANCH   9  26
ATOM     26  N   UNL     1       3.387  -1.733   0.800  0.00  0.00    -0.344 N 
ATOM     27  H   UNL     1       3.123  -2.609   1.122  0.00  0.00    +0.144 HD
ATOM     28  H   UNL     1       4.210  -1.328   1.116  0.00  0.00    +0.144 HD
ENDBRANCH   9  26
BRANCH   6  29
ATOM     29  C   UNL     1      -1.503   0.816  -3.882  0.00  0.00    +0.122 C 
ATOM     30  N   UNL     1      -2.419   0.909  -4.547  0.00  0.00    -0.189 NA
ENDBRANCH   6  29
BRANCH   5  31
ATOM     31  C   UNL     1       0.409   2.913  -3.799  0.00  0.00    +0.122 C 
ATOM     32  N   UNL     1       0.255   3.846  -4.429  0.00  0.00    -0.189 NA
ENDBRANCH   5  31
BRANCH   8  33
ATOM     33  C   UNL     1       4.040   0.975  -0.301  0.00  0.00    +0.156 C 
BRANCH  33  34
ATOM     34  C   UNL     1       5.169   0.640  -1.277  0.00  0.00    +0.138 C 
ATOM     35  C   UNL     1       6.452   1.399  -0.875  0.00  0.00    +0.035 C 
ATOM     36  C   UNL     1       7.035   1.814  -2.254  0.00  0.00    +0.031 C 
ATOM     37  C   UNL     1       5.736   2.061  -3.061  0.00  0.00    +0.160 C 
ATOM     38  O   UNL     1       4.812   1.063  -2.598  0.00  0.00    -0.375 OA
ENDBRANCH  33  34
ENDBRANCH   8  33
TORSDOF 8
