REMARK  Name = ZINC09095029
REMARK  6 active torsions:
REMARK  status: ('A' for Active; 'I' for Inactive)
REMARK    1  A    between atoms: C_6  and  O_7
REMARK    2  A    between atoms: O_7  and  C_8
REMARK    3  A    between atoms: C_8  and  C_9
REMARK    4  A    between atoms: N_11  and  C_12
REMARK    5  A    between atoms: C_15  and  N_19
REMARK    6  A    between atoms: C_17  and  O_18
REMARK                            x       y       z     vdW  Elec       q    Type
REMARK                         _______ _______ _______ _____ _____    ______ ____
ROOT
ATOM      1  C   UNL     1      -1.412  -0.526   0.005  0.00  0.00    +0.255 C 
ATOM      2  O   UNL     1      -2.345   0.250   0.022  0.00  0.00    -0.272 OA
ATOM      3  N   UNL     1      -1.640  -1.854   0.008  0.00  0.00    -0.280 N 
ATOM      4  H   UNL     1      -0.898  -2.473  -0.070  0.00  0.00    +0.155 HD
ENDROOT
BRANCH   3   5
ATOM      5  C   UNL     1      -2.949  -2.340   0.123  0.00  0.00    +0.076 A 
ATOM      6  C   UNL     1      -4.002  -1.646  -0.453  0.00  0.00    +0.029 A 
ATOM      7  C   UNL     1      -5.293  -2.128  -0.338  0.00  0.00    +0.035 A 
ATOM      8  C   UNL     1      -5.537  -3.301   0.351  0.00  0.00    +0.130 A 
ATOM      9  C   UNL     1      -4.492  -3.999   0.929  0.00  0.00    +0.080 A 
ATOM     10  C   UNL     1      -3.195  -3.525   0.813  0.00  0.00    +0.140 A 
BRANCH   8  11
ATOM     11  N   UNL     1      -6.921  -3.812   0.471  0.00  0.00    +0.057 N 
ATOM     12  O   UNL     1      -7.843  -3.200  -0.038  0.00  0.00    -0.126 OA
ATOM     13  O   UNL     1      -7.138  -4.846   1.077  0.00  0.00    -0.126 OA
ENDBRANCH   8  11
BRANCH  10  14
ATOM     14  O   UNL     1      -2.166  -4.213   1.375  0.00  0.00    -0.505 OA
ATOM     15  H   UNL     1      -1.972  -3.955   2.287  0.00  0.00    +0.292 HD
ENDBRANCH  10  14
ENDBRANCH   3   5
BRANCH   1  16
ATOM     16  C   UNL     1       0.001  -0.003  -0.018  0.00  0.00    +0.324 C 
BRANCH  16  17
ATOM     17  O   UNL     1      -0.019   1.426  -0.016  0.00  0.00    -0.483 OA
BRANCH  17  23
ATOM     18  C   UNL     1       2.357   1.321  -0.050  0.00  0.00    +0.046 A 
ATOM     19  C   UNL     1       3.578   1.968  -0.075  0.00  0.00    +0.018 A 
ATOM     20  C   UNL     1       3.630   3.350  -0.075  0.00  0.00    +0.014 A 
ATOM     21  C   UNL     1       2.460   4.088  -0.055  0.00  0.00    +0.018 A 
ATOM     22  C   UNL     1       1.237   3.446  -0.035  0.00  0.00    +0.046 A 
ATOM     23  C   UNL     1       1.183   2.060  -0.036  0.00  0.00    +0.121 A 
ATOM     24  I   UNL     1       5.482   4.328  -0.106  0.00  0.00    -0.044 I 
ENDBRANCH  17  23
ENDBRANCH  16  17
ENDBRANCH   1  16
TORSDOF 6
