REMARK  Name = ZINC20524724
REMARK  10 active torsions:
REMARK  status: ('A' for Active; 'I' for Inactive)
REMARK    1  A    between atoms: C_1  and  C_2
REMARK    2  A    between atoms: C_2  and  C_4
REMARK    3  A    between atoms: C_2  and  N_10
REMARK    4  A    between atoms: C_4  and  C_5
REMARK    5  A    between atoms: C_5  and  C_6
REMARK    6  A    between atoms: C_5  and  C_7
REMARK    7  A    between atoms: C_5  and  O_8
REMARK    8  A    between atoms: O_8  and  C_9
REMARK    9  A    between atoms: N_10  and  C_11
REMARK   10  A    between atoms: C_15  and  C_17
REMARK                            x       y       z     vdW  Elec       q    Type
REMARK                         _______ _______ _______ _____ _____    ______ ____
ROOT
ATOM      1  C   UNL     1      -0.332   2.662  -3.046  0.00  0.00    +0.028 A 
ATOM      2  C   UNL     1      -1.425   2.214  -3.779  0.00  0.00    +0.023 A 
ATOM      3  C   UNL     1      -2.246   3.117  -4.426  0.00  0.00    +0.003 A 
ATOM      4  C   UNL     1      -1.981   4.470  -4.358  0.00  0.00    +0.013 A 
ATOM      5  C   UNL     1      -0.883   4.930  -3.628  0.00  0.00    +0.040 A 
ATOM      6  C   UNL     1      -0.057   4.019  -2.971  0.00  0.00    +0.036 A 
ENDROOT
BRANCH   5   7
ATOM      7  C   UNL     1      -0.597   6.379  -3.554  0.00  0.00    +0.248 A 
ATOM      8  N   UNL     1       0.393   6.944  -2.903  0.00  0.00    -0.108 NA
ATOM      9  N   UNL     1       0.332   8.219  -3.063  0.00  0.00    -0.116 NA
ATOM     10  C   UNL     1      -0.696   8.517  -3.808  0.00  0.00    +0.332 A 
ATOM     11  O   UNL     1      -1.307   7.365  -4.137  0.00  0.00    -0.423 OA
ENDBRANCH   5   7
BRANCH   1  12
ATOM     12  N   UNL     1       0.493   1.745  -2.389  0.00  0.00    -0.341 N 
ATOM     13  H   UNL     1       1.360   2.100  -1.812  0.00  0.00    +0.146 HD
BRANCH  12  15
ATOM     14  C   UNL     1       0.823  -0.265  -3.742  0.00  0.00    +0.028 C 
ATOM     15  C   UNL     1       0.202   0.311  -2.468  0.00  0.00    +0.070 C 
BRANCH  15  16
ATOM     16  C   UNL     1       0.793  -0.397  -1.248  0.00  0.00    +0.056 C 
BRANCH  16  17
ATOM     17  C   UNL     1       0.070   0.076   0.015  0.00  0.00    +0.065 C 
ATOM     18  C   UNL     1       0.662  -0.631   1.237  0.00  0.00    +0.041 C 
ATOM     19  C   UNL     1      -1.419  -0.257  -0.094  0.00  0.00    +0.041 C 
BRANCH  17  20
ATOM     20  O   UNL     1       0.234   1.489   0.157  0.00  0.00    -0.377 OA
ATOM     21  C   UNL     1      -0.407   2.035   1.312  0.00  0.00    +0.194 C 
ENDBRANCH  17  20
ENDBRANCH  16  17
ENDBRANCH  15  16
ENDBRANCH  12  15
ENDBRANCH   1  12
TORSDOF 6
