REMARK  Name = ZINC10531732
REMARK  7 active torsions:
REMARK  status: ('A' for Active; 'I' for Inactive)
REMARK    1  A    between atoms: C_5  and  N_7
REMARK    2  A    between atoms: C_8  and  C_10
REMARK    3  A    between atoms: C_10  and  O_11
REMARK    4  A    between atoms: O_11  and  C_12
REMARK    5  A    between atoms: C_12  and  C_14
REMARK    6  A    between atoms: C_17  and  N_23
REMARK    7  A    between atoms: C_18  and  N_20
REMARK                            x       y       z     vdW  Elec       q    Type
REMARK                         _______ _______ _______ _____ _____    ______ ____
ROOT
ATOM      1  C   UNL     1       0.201  -4.645  -0.011  0.00  0.00    +0.340 C 
ATOM      2  O   UNL     1      -0.753  -5.391   0.085  0.00  0.00    -0.245 OA
ENDROOT
BRANCH   1   3
ATOM      3  C   UNL     1       0.003  -3.185   0.030  0.00  0.00    +0.061 A 
ATOM      4  C   UNL     1       1.101  -2.325  -0.079  0.00  0.00    +0.017 A 
ATOM      5  C   UNL     1       0.916  -0.973  -0.041  0.00  0.00    +0.026 A 
ATOM      6  C   UNL     1      -0.363  -0.444   0.106  0.00  0.00    +0.055 A 
ATOM      7  C   UNL     1      -1.461  -1.292   0.221  0.00  0.00    +0.147 A 
ATOM      8  C   UNL     1      -1.283  -2.656   0.178  0.00  0.00    +0.049 A 
BRANCH   7   9
ATOM      9  N   UNL     1      -2.820  -0.727   0.383  0.00  0.00    +0.058 N 
ATOM     10  O   UNL     1      -3.637  -1.298   1.083  0.00  0.00    -0.126 OA
ATOM     11  O   UNL     1      -3.120   0.308  -0.183  0.00  0.00    -0.126 OA
ENDBRANCH   7   9
BRANCH   6  12
ATOM     12  N   UNL     1      -0.544   0.934   0.144  0.00  0.00    -0.356 N 
ATOM     13  H   UNL     1       0.225   1.524   0.140  0.00  0.00    +0.142 HD
ATOM     14  H   UNL     1      -1.440   1.305   0.171  0.00  0.00    +0.142 HD
ENDBRANCH   6  12
ENDBRANCH   1   3
BRANCH   1  15
ATOM     15  O   UNL     1       1.441  -5.153  -0.154  0.00  0.00    -0.452 OA
BRANCH  15  16
ATOM     16  C   UNL     1       1.561  -6.599  -0.186  0.00  0.00    +0.328 C 
BRANCH  16  18
ATOM     17  N   UNL     1       3.364  -8.279  -0.407  0.00  0.00    -0.282 N 
ATOM     18  C   UNL     1       3.010  -6.980  -0.350  0.00  0.00    +0.255 C 
ATOM     19  O   UNL     1       3.858  -6.116  -0.432  0.00  0.00    -0.272 OA
ATOM     20  H   UNL     1       2.681  -8.967  -0.424  0.00  0.00    +0.155 HD
BRANCH  17  25
ATOM     21  C   UNL     1       7.009  -8.134   0.057  0.00  0.00    +0.002 A 
ATOM     22  C   UNL     1       7.392  -9.339  -0.504  0.00  0.00    +0.001 A 
ATOM     23  C   UNL     1       6.442 -10.193  -1.032  0.00  0.00    +0.016 A 
ATOM     24  C   UNL     1       5.105  -9.844  -1.002  0.00  0.00    +0.035 A 
ATOM     25  C   UNL     1       4.717  -8.635  -0.439  0.00  0.00    +0.047 A 
ATOM     26  C   UNL     1       5.675  -7.778   0.086  0.00  0.00    +0.024 A 
ATOM     27  I   UNL     1       3.665 -11.138  -1.803  0.00  0.00    -0.042 I 
ENDBRANCH  17  25
ENDBRANCH  16  18
ENDBRANCH  15  16
ENDBRANCH   1  15
TORSDOF 7
