REMARK  Name = ZINC67103886
REMARK  7 active torsions:
REMARK  status: ('A' for Active; 'I' for Inactive)
REMARK    1  A    between atoms: C_1  and  C_2
REMARK    2  A    between atoms: N_16  and  N_17
REMARK    3  A    between atoms: C_18  and  C_20
REMARK    4  A    between atoms: C_20  and  C_21
REMARK    5  A    between atoms: C_21  and  C_22
REMARK    6  A    between atoms: C_22  and  C_23
REMARK    7  A    between atoms: C_22  and  C_24
REMARK                            x       y       z     vdW  Elec       q    Type
REMARK                         _______ _______ _______ _____ _____    ______ ____
ROOT
ATOM      1  C   UNL     1      -0.034   1.502   0.017  0.00  0.00    +0.066 C 
ATOM      2  C   UNL     1      -0.004  -0.005   0.005  0.00  0.00    +0.047 A 
ATOM      3  C   UNL     1       0.008  -0.702  -1.156  0.00  0.00    +0.071 A 
ATOM      4  S   UNL     1       0.043  -2.377  -0.539  0.00  0.00    -0.060 S 
ATOM      5  C   UNL     1       0.038  -2.020   1.105  0.00  0.00    +0.161 A 
ATOM      6  N   UNL     1       0.017  -0.704   1.126  0.00  0.00    -0.230 NA
ATOM      7  N   UNL     1       0.057  -2.898   2.178  0.00  0.00    -0.308 N 
ATOM      8  C   UNL     1       0.092  -4.341   1.899  0.00  0.00    +0.108 C 
ATOM      9  C   UNL     1       1.074  -5.091   2.803  0.00  0.00    +0.038 C 
ATOM     10  C   UNL     1       2.350  -4.293   2.973  0.00  0.00    +0.111 C 
ATOM     11  N   UNL     1       2.159  -3.363   4.086  0.00  0.00    -0.283 N 
ATOM     12  C   UNL     1       1.506  -2.105   3.980  0.00  0.00    +0.128 C 
ATOM     13  C   UNL     1       0.048  -2.346   3.522  0.00  0.00    +0.126 C 
ATOM     14  C   UNL     1       2.633  -3.725   5.294  0.00  0.00    +0.319 C 
ATOM     15  O   UNL     1       2.584  -2.944   6.225  0.00  0.00    -0.251 OA
ATOM     16  N   UNL     1       3.161  -4.952   5.471  0.00  0.00    -0.218 N 
ATOM     17  H   UNL     1       3.265  -5.549   4.714  0.00  0.00    +0.174 HD
ENDROOT
BRANCH  16  18
ATOM     18  N   UNL     1       3.559  -5.366   6.749  0.00  0.00    -0.233 N 
ATOM     19  C   UNL     1       4.179  -6.552   6.911  0.00  0.00    +0.229 C 
ATOM     20  O   UNL     1       4.392  -7.261   5.950  0.00  0.00    -0.274 OA
ATOM     21  H   UNL     1       3.388  -4.799   7.518  0.00  0.00    +0.173 HD
BRANCH  19  22
ATOM     22  C   UNL     1       4.607  -6.997   8.285  0.00  0.00    +0.097 C 
BRANCH  22  23
ATOM     23  C   UNL     1       5.282  -8.367   8.191  0.00  0.00    +0.012 C 
BRANCH  23  24
ATOM     24  C   UNL     1       5.716  -8.819   9.586  0.00  0.00    -0.017 C 
ATOM     25  C   UNL     1       4.479  -9.036  10.460  0.00  0.00    +0.007 C 
ATOM     26  C   UNL     1       6.500 -10.128   9.477  0.00  0.00    +0.007 C 
ENDBRANCH  23  24
ENDBRANCH  22  23
ENDBRANCH  19  22
ENDBRANCH  16  18
TORSDOF 4
