REMARK  Name = ZINC39685758
REMARK  12 active torsions:
REMARK  status: ('A' for Active; 'I' for Inactive)
REMARK    1  A    between atoms: C_1  and  C_2
REMARK    2  A    between atoms: C_2  and  C_3
REMARK    3  A    between atoms: C_2  and  C_4
REMARK    4  A    between atoms: C_4  and  C_6
REMARK    5  A    between atoms: C_4  and  N_13
REMARK    6  A    between atoms: N_8  and  C_9
REMARK    7  A    between atoms: C_9  and  C_10
REMARK    8  A    between atoms: C_9  and  C_11
REMARK    9  A    between atoms: C_9  and  C_12
REMARK   10  A    between atoms: C_14  and  C_16
REMARK   11  A    between atoms: C_27  and  C_29
REMARK   12  A    between atoms: C_32  and  C_36
REMARK                            x       y       z     vdW  Elec       q    Type
REMARK                         _______ _______ _______ _____ _____    ______ ____
ROOT
ATOM      1  C   UNL     1      -1.752  -4.484   1.280  0.00  0.00    +0.100 C 
ATOM      2  C   UNL     1      -2.804  -5.302   0.498  0.00  0.00    +0.121 C 
ATOM      3  N   UNL     1      -2.985  -6.538   1.295  0.00  0.00    -0.296 N 
ATOM      4  C   UNL     1      -2.948  -6.077   2.704  0.00  0.00    +0.115 C 
ATOM      5  C   UNL     1      -1.850  -4.995   2.727  0.00  0.00    -0.004 C 
ATOM      6  C   UNL     1      -0.520  -5.602   3.164  0.00  0.00    -0.010 C 
ATOM      7  C   UNL     1      -0.625  -6.051   4.624  0.00  0.00    -0.082 C 
ATOM      8  N   UNL     1      -0.962  -4.899   5.470  0.00  0.00    +0.379 N 
ATOM      9  C   UNL     1      -2.284  -4.379   5.103  0.00  0.00    -0.082 C 
ATOM     10  C   UNL     1      -2.250  -3.859   3.663  0.00  0.00    -0.010 C 
ATOM     11  C   UNL     1      -3.147  -7.797   0.842  0.00  0.00    +0.247 C 
ATOM     12  O   UNL     1      -3.038  -8.034  -0.345  0.00  0.00    -0.270 OA
ATOM     13  H   UNL     1      -0.971  -5.185   6.437  0.00  0.00    -0.086 HD
ATOM     14  H   UNL     1      -0.270  -4.176   5.341  0.00  0.00    -0.086 HD
ENDROOT
BRANCH  11  15
ATOM     15  C   UNL     1      -3.457  -8.889   1.789  0.00  0.00    +0.040 A 
ATOM     16  C   UNL     1      -3.989  -8.597   3.046  0.00  0.00    +0.014 A 
ATOM     17  C   UNL     1      -4.278  -9.620   3.926  0.00  0.00    +0.016 A 
ATOM     18  C   UNL     1      -4.041 -10.934   3.565  0.00  0.00    +0.090 A 
ATOM     19  C   UNL     1      -3.512 -11.232   2.320  0.00  0.00    +0.136 A 
ATOM     20  C   UNL     1      -3.225 -10.217   1.427  0.00  0.00    +0.052 A 
ATOM     21  F   UNL     1      -3.283 -12.518   1.975  0.00  0.00    -0.205 F 
BRANCH  18  22
ATOM     22  C   UNL     1      -4.358 -12.046   4.532  0.00  0.00    +0.420 C 
ATOM     23  F   UNL     1      -4.876 -11.504   5.713  0.00  0.00    -0.166 F 
ATOM     24  F   UNL     1      -5.302 -12.906   3.960  0.00  0.00    -0.166 F 
ATOM     25  F   UNL     1      -3.191 -12.761   4.820  0.00  0.00    -0.166 F 
ENDBRANCH  18  22
ENDBRANCH  11  15
BRANCH   1  27
ATOM     26  N   UNL     1      -3.338  -2.594   1.456  0.00  0.00    -0.303 N 
ATOM     27  C   UNL     1      -2.079  -3.014   1.219  0.00  0.00    +0.219 C 
ATOM     28  O   UNL     1      -1.211  -2.209   0.957  0.00  0.00    -0.275 OA
ATOM     29  H   UNL     1      -4.014  -3.226   1.744  0.00  0.00    +0.149 HD
BRANCH  26  30
ATOM     30  C   UNL     1      -3.684  -1.181   1.280  0.00  0.00    +0.161 C 
BRANCH  30  31
ATOM     31  C   UNL     1      -4.871  -0.843   2.144  0.00  0.00    +0.234 C 
ATOM     32  O   UNL     1      -5.433  -1.716   2.771  0.00  0.00    -0.274 OA
ATOM     33  N   UNL     1      -5.309   0.429   2.220  0.00  0.00    -0.309 N 
ATOM     34  H   UNL     1      -4.817   1.139   1.777  0.00  0.00    +0.149 HD
BRANCH  33  35
ATOM     35  C   UNL     1      -6.527   0.741   2.971  0.00  0.00    +0.026 C 
ATOM     36  C   UNL     1      -6.346   0.325   4.432  0.00  0.00    +0.031 C 
ATOM     37  C   UNL     1      -6.800   2.245   2.899  0.00  0.00    +0.031 C 
ATOM     38  C   UNL     1      -7.708  -0.021   2.367  0.00  0.00    +0.031 C 
ENDBRANCH  33  35
ENDBRANCH  30  31
BRANCH  30  40
ATOM     39  C   UNL     1      -2.798  -1.182  -1.056  0.00  0.00    +0.009 C 
ATOM     40  C   UNL     1      -4.030  -0.920  -0.187  0.00  0.00    +0.012 C 
ATOM     41  C   UNL     1      -5.164  -1.852  -0.617  0.00  0.00    +0.009 C 
ENDBRANCH  30  40
ENDBRANCH  26  30
ENDBRANCH   1  27
TORSDOF 7
