REMARK  Name = ZINC36597650
REMARK  13 active torsions:
REMARK  status: ('A' for Active; 'I' for Inactive)
REMARK    1  A    between atoms: C_1  and  C_2
REMARK    2  A    between atoms: C_2  and  C_3
REMARK    3  A    between atoms: C_3  and  C_4
REMARK    4  A    between atoms: C_4  and  N_5
REMARK    5  A    between atoms: C_6  and  C_8
REMARK    6  A    between atoms: C_8  and  C_10
REMARK    7  A    between atoms: C_8  and  N_16
REMARK    8  A    between atoms: N_16  and  C_17
REMARK    9  A    between atoms: C_17  and  C_18
REMARK   10  A    between atoms: C_21  and  C_23
REMARK   11  A    between atoms: C_24  and  C_26
REMARK   12  A    between atoms: C_30  and  O_33
REMARK   13  A    between atoms: C_31  and  O_32
REMARK                            x       y       z     vdW  Elec       q    Type
REMARK                         _______ _______ _______ _____ _____    ______ ____
ROOT
ATOM      1  N   UNL     1      -4.471  -5.812   0.966  0.00  0.00    -0.278 N 
ATOM      2  C   UNL     1      -5.707  -6.336   1.075  0.00  0.00    +0.251 C 
ATOM      3  O   UNL     1      -5.862  -7.541   1.044  0.00  0.00    -0.270 OA
ENDROOT
BRANCH   2   4
ATOM      4  C   UNL     1      -6.875  -5.446   1.230  0.00  0.00    +0.082 A 
ATOM      5  C   UNL     1      -6.933  -4.236   0.533  0.00  0.00    +0.017 A 
ATOM      6  C   UNL     1      -8.025  -3.409   0.680  0.00  0.00    +0.005 A 
ATOM      7  C   UNL     1      -9.068  -3.769   1.518  0.00  0.00    +0.049 A 
ATOM      8  C   UNL     1      -9.024  -4.964   2.216  0.00  0.00    +0.159 A 
ATOM      9  C   UNL     1      -7.931  -5.813   2.072  0.00  0.00    +0.171 A 
BRANCH   9  10
ATOM     10  O   UNL     1      -7.887  -6.988   2.750  0.00  0.00    -0.503 OA
ATOM     11  H   UNL     1      -7.475  -6.924   3.623  0.00  0.00    +0.292 HD
ENDBRANCH   9  10
BRANCH   8  12
ATOM     12  O   UNL     1     -10.052  -5.310   3.036  0.00  0.00    -0.503 OA
ATOM     13  H   UNL     1     -10.749  -5.818   2.600  0.00  0.00    +0.292 HD
ENDBRANCH   8  12
ENDBRANCH   2   4
BRANCH   1  14
ATOM     14  C   UNL     1      -4.274  -4.365   1.093  0.00  0.00    +0.166 C 
BRANCH  14  15
ATOM     15  C   UNL     1      -3.859  -3.786  -0.261  0.00  0.00    +0.019 C 
ATOM     16  C   UNL     1      -2.480  -4.325  -0.645  0.00  0.00    +0.006 C 
ATOM     17  C   UNL     1      -2.065  -3.746  -1.999  0.00  0.00    +0.000 C 
ATOM     18  C   UNL     1      -2.008  -2.220  -1.905  0.00  0.00    +0.000 C 
ATOM     19  C   UNL     1      -3.387  -1.681  -1.521  0.00  0.00    +0.000 C 
ATOM     20  C   UNL     1      -3.802  -2.260  -0.167  0.00  0.00    +0.006 C 
ENDBRANCH  14  15
BRANCH  14  22
ATOM     21  N   UNL     1      -3.167  -2.915   2.762  0.00  0.00    -0.314 N 
ATOM     22  C   UNL     1      -3.194  -4.093   2.108  0.00  0.00    +0.234 C 
ATOM     23  O   UNL     1      -2.350  -4.933   2.337  0.00  0.00    -0.274 OA
ATOM     24  H   UNL     1      -3.800  -2.217   2.532  0.00  0.00    +0.149 HD
BRANCH  21  25
ATOM     25  C   UNL     1      -2.180  -2.688   3.822  0.00  0.00    +0.104 C 
BRANCH  25  26
ATOM     26  C   UNL     1      -2.363  -1.282   4.396  0.00  0.00    +0.018 C 
BRANCH  26  28
ATOM     27  C   UNL     1      -1.516   0.361   6.078  0.00  0.00    +0.004 C 
ATOM     28  C   UNL     1      -1.333  -1.045   5.503  0.00  0.00    -0.002 C 
ENDBRANCH  26  28
ENDBRANCH  25  26
ENDBRANCH  21  25
ENDBRANCH  14  22
ENDBRANCH   1  14
BRANCH   1  29
ATOM     29  C   UNL     1      -3.323  -6.688   0.720  0.00  0.00    +0.183 C 
BRANCH  29  30
ATOM     30  C   UNL     1      -3.092  -7.564   1.925  0.00  0.00    +0.122 A 
ATOM     31  C   UNL     1      -3.634  -8.778   2.130  0.00  0.00    +0.046 A 
ATOM     32  C   UNL     1      -3.152  -9.236   3.377  0.00  0.00    +0.045 A 
ATOM     33  C   UNL     1      -2.344  -8.275   3.860  0.00  0.00    +0.102 A 
ATOM     34  O   UNL     1      -2.307  -7.267   2.973  0.00  0.00    -0.463 OA
ATOM     35  C   UNL     1      -1.601  -8.324   5.170  0.00  0.00    +0.086 C 
ENDBRANCH  29  30
ENDBRANCH   1  29
TORSDOF 11
