REMARK  Name = ZINC05684147
REMARK  12 active torsions:
REMARK  status: ('A' for Active; 'I' for Inactive)
REMARK    1  A    between atoms: C_1  and  C_2
REMARK    2  A    between atoms: C_5  and  N_9
REMARK    3  A    between atoms: C_7  and  C_8
REMARK    4  A    between atoms: C_10  and  C_12
REMARK    5  A    between atoms: C_12  and  C_18
REMARK    6  A    between atoms: N_13  and  N_14
REMARK    7  A    between atoms: N_14  and  C_15
REMARK    8  A    between atoms: C_15  and  N_17
REMARK    9  A    between atoms: C_18  and  C_19
REMARK   10  A    between atoms: C_19  and  C_21
REMARK   11  A    between atoms: C_22  and  C_23
REMARK   12  A    between atoms: C_22  and  C_24
REMARK                            x       y       z     vdW  Elec       q    Type
REMARK                         _______ _______ _______ _____ _____    ______ ____
ROOT
ATOM      1  C   UNL     1      -1.452  -6.649  -1.703  0.00  0.00    +0.128 C 
ATOM      2  N   UNL     1      -1.733  -7.383  -0.666  0.00  0.00    -0.180 NA
ENDROOT
BRANCH   1   4
ATOM      3  N   UNL     1      -1.742  -4.543  -2.896  0.00  0.00    -0.280 N 
ATOM      4  C   UNL     1      -1.930  -5.265  -1.773  0.00  0.00    +0.264 C 
ATOM      5  O   UNL     1      -2.497  -4.769  -0.818  0.00  0.00    -0.268 OA
ATOM      6  H   UNL     1      -1.325  -4.951  -3.671  0.00  0.00    +0.155 HD
BRANCH   3  11
ATOM      7  C   UNL     1      -3.390   0.881  -3.087  0.00  0.00    +0.044 C 
ATOM      8  C   UNL     1      -2.952  -0.560  -3.036  0.00  0.00    -0.047 A 
ATOM      9  C   UNL     1      -3.591  -1.446  -2.188  0.00  0.00    +0.005 A 
ATOM     10  C   UNL     1      -3.193  -2.767  -2.139  0.00  0.00    +0.023 A 
ATOM     11  C   UNL     1      -2.148  -3.206  -2.943  0.00  0.00    +0.034 A 
ATOM     12  C   UNL     1      -1.509  -2.314  -3.794  0.00  0.00    +0.027 A 
ATOM     13  C   UNL     1      -1.916  -0.995  -3.842  0.00  0.00    -0.046 A 
ATOM     14  C   UNL     1      -1.227  -0.028  -4.770  0.00  0.00    +0.044 C 
ENDBRANCH   3  11
ENDBRANCH   1   4
BRANCH   2  15
ATOM     15  N   UNL     1      -2.367  -6.812   0.445  0.00  0.00    -0.218 N 
ATOM     16  H   UNL     1      -2.667  -5.890   0.412  0.00  0.00    +0.176 HD
BRANCH  15  17
ATOM     17  C   UNL     1      -2.559  -7.543   1.561  0.00  0.00    +0.147 C 
ATOM     18  S   UNL     1      -3.333  -6.845   2.919  0.00  0.00    -0.017 S 
BRANCH  17  19
ATOM     19  N   UNL     1      -2.142  -8.824   1.607  0.00  0.00    -0.339 N 
ATOM     20  H   UNL     1      -1.703  -9.219   0.838  0.00  0.00    +0.144 HD
ATOM     21  H   UNL     1      -2.281  -9.350   2.410  0.00  0.00    +0.144 HD
ENDBRANCH  17  19
ENDBRANCH  15  17
ENDBRANCH   2  15
BRANCH   1  22
ATOM     22  C   UNL     1      -0.635  -7.222  -2.833  0.00  0.00    +0.141 C 
BRANCH  22  23
ATOM     23  C   UNL     1      -0.272  -8.650  -2.516  0.00  0.00    +0.162 C 
ATOM     24  O   UNL     1      -0.641  -9.153  -1.475  0.00  0.00    -0.292 OA
BRANCH  23  25
ATOM     25  C   UNL     1       0.525  -9.429  -3.463  0.00  0.00    +0.045 C 
ATOM     26  C   UNL     1       0.831 -10.699  -3.191  0.00  0.00    -0.072 C 
ATOM     27  C   UNL     1       0.594 -11.252  -1.809  0.00  0.00    +0.039 C 
ATOM     28  C   UNL     1       1.415 -11.580  -4.265  0.00  0.00    +0.039 C 
ENDBRANCH  23  25
ENDBRANCH  22  23
ENDBRANCH   1  22
TORSDOF 8
