REMARK  Name = ZINC66262939
REMARK  5 active torsions:
REMARK  status: ('A' for Active; 'I' for Inactive)
REMARK    1  A    between atoms: C_1  and  C_2
REMARK    2  A    between atoms: C_2  and  C_17
REMARK    3  A    between atoms: N_5  and  C_9
REMARK    4  A    between atoms: C_9  and  C_10
REMARK    5  A    between atoms: C_10  and  C_11
REMARK                            x       y       z     vdW  Elec       q    Type
REMARK                         _______ _______ _______ _____ _____    ______ ____
ROOT
ATOM      1  C   UNL     1      -0.019   1.526   0.010  0.00  0.00    +0.047 C 
ATOM      2  C   UNL     1       0.002  -0.004   0.002  0.00  0.00    +0.141 C 
ATOM      3  C   UNL     1       0.799  -0.520  -1.180  0.00  0.00    +0.251 C 
ATOM      4  O   UNL     1       0.564  -0.342  -2.356  0.00  0.00    -0.272 OA
ATOM      5  N   UNL     1       1.824  -1.217  -0.651  0.00  0.00    -0.223 N 
ATOM      6  C   UNL     1       1.786  -1.214   0.686  0.00  0.00    +0.310 C 
ATOM      7  O   UNL     1       2.604  -1.776   1.387  0.00  0.00    -0.252 OA
ATOM      8  N   UNL     1       0.740  -0.519   1.169  0.00  0.00    -0.281 N 
ATOM      9  H   UNL     1       0.515  -0.383   2.102  0.00  0.00    +0.152 HD
ENDROOT
BRANCH   2  10
ATOM     10  C   UNL     1      -1.402  -0.552  -0.021  0.00  0.00    +0.023 A 
ATOM     11  C   UNL     1      -2.218  -0.851   1.018  0.00  0.00    +0.015 A 
ATOM     12  C   UNL     1      -3.482  -1.348   0.757  0.00  0.00    +0.028 A 
ATOM     13  C   UNL     1      -3.866  -1.522  -0.533  0.00  0.00    +0.078 A 
ATOM     14  S   UNL     1      -2.423  -0.967  -1.426  0.00  0.00    -0.079 S 
ATOM     15 CL   UNL     1      -5.372  -2.121  -1.153  0.00  0.00    -0.076 Cl
ENDBRANCH   2  10
BRANCH   5  16
ATOM     16  C   UNL     1       2.853  -1.896  -1.443  0.00  0.00    +0.127 C 
BRANCH  16  17
ATOM     17  C   UNL     1       4.015  -0.936  -1.700  0.00  0.00    +0.115 C 
BRANCH  17  18
ATOM     18  C   UNL     1       5.074  -1.634  -2.515  0.00  0.00    +0.222 C 
ATOM     19  O   UNL     1       4.913  -2.786  -2.856  0.00  0.00    -0.275 OA
ATOM     20  N   UNL     1       6.198  -0.978  -2.864  0.00  0.00    -0.240 N 
ATOM     21  C   UNL     1       7.144  -1.602  -3.592  0.00  0.00    +0.303 C 
ATOM     22  O   UNL     1       6.984  -2.757  -3.935  0.00  0.00    -0.253 OA
ATOM     23  N   UNL     1       8.268  -0.946  -3.942  0.00  0.00    -0.313 N 
ATOM     24  H   UNL     1       6.326  -0.056  -2.591  0.00  0.00    +0.159 HD
ATOM     25  H   UNL     1       8.396  -0.024  -3.668  0.00  0.00    +0.146 HD
ATOM     26  H   UNL     1       8.949  -1.395  -4.466  0.00  0.00    +0.146 HD
ENDBRANCH  17  18
ENDBRANCH  16  17
ENDBRANCH   5  16
TORSDOF 4
