REMARK  Name = ZINC36500467
REMARK  13 active torsions:
REMARK  status: ('A' for Active; 'I' for Inactive)
REMARK    1  A    between atoms: C_1  and  C_2
REMARK    2  A    between atoms: C_2  and  C_3
REMARK    3  A    between atoms: C_2  and  C_4
REMARK    4  A    between atoms: C_2  and  N_5
REMARK    5  A    between atoms: C_6  and  C_8
REMARK    6  A    between atoms: C_8  and  C_10
REMARK    7  A    between atoms: C_8  and  N_17
REMARK    8  A    between atoms: C_13  and  O_16
REMARK    9  A    between atoms: N_17  and  C_18
REMARK   10  A    between atoms: C_18  and  C_19
REMARK   11  A    between atoms: C_24  and  C_26
REMARK   12  A    between atoms: C_27  and  O_33
REMARK   13  A    between atoms: C_31  and  O_32
REMARK                            x       y       z     vdW  Elec       q    Type
REMARK                         _______ _______ _______ _____ _____    ______ ____
ROOT
ATOM      1  N   UNL     1       3.889  -0.057  -2.338  0.00  0.00    -0.274 N 
ATOM      2  C   UNL     1       4.871  -0.463  -3.167  0.00  0.00    +0.255 C 
ATOM      3  O   UNL     1       4.598  -1.103  -4.165  0.00  0.00    -0.270 OA
ENDROOT
BRANCH   2   4
ATOM      4  C   UNL     1       6.273  -0.133  -2.864  0.00  0.00    +0.119 A 
ATOM      5  C   UNL     1       7.054  -1.006  -2.093  0.00  0.00    +0.133 A 
ATOM      6  C   UNL     1       8.373  -0.685  -1.815  0.00  0.00    +0.046 A 
ATOM      7  C   UNL     1       8.919   0.491  -2.294  0.00  0.00    +0.007 A 
ATOM      8  C   UNL     1       8.159   1.359  -3.055  0.00  0.00    +0.046 A 
ATOM      9  C   UNL     1       6.840   1.055  -3.350  0.00  0.00    +0.133 A 
BRANCH   9  10
ATOM     10  O   UNL     1       6.097   1.906  -4.102  0.00  0.00    -0.506 OA
ATOM     11  H   UNL     1       5.624   2.574  -3.588  0.00  0.00    +0.292 HD
ENDBRANCH   9  10
BRANCH   5  12
ATOM     12  O   UNL     1       6.520  -2.160  -1.621  0.00  0.00    -0.506 OA
ATOM     13  H   UNL     1       6.621  -2.914  -2.218  0.00  0.00    +0.292 HD
ENDBRANCH   5  12
ENDBRANCH   2   4
BRANCH   1  14
ATOM     14  C   UNL     1       2.493  -0.385  -2.639  0.00  0.00    +0.193 C 
BRANCH  14  15
ATOM     15  C   UNL     1       2.319  -1.882  -2.641  0.00  0.00    -0.018 A 
ATOM     16  C   UNL     1       3.112  -2.670  -1.827  0.00  0.00    +0.009 A 
ATOM     17  C   UNL     1       2.955  -4.043  -1.827  0.00  0.00    +0.046 A 
ATOM     18  C   UNL     1       1.999  -4.630  -2.644  0.00  0.00    +0.117 A 
ATOM     19  C   UNL     1       1.204  -3.837  -3.458  0.00  0.00    +0.046 A 
ATOM     20  C   UNL     1       1.362  -2.465  -3.451  0.00  0.00    +0.009 A 
BRANCH  18  21
ATOM     21  O   UNL     1       1.843  -5.980  -2.646  0.00  0.00    -0.507 OA
ATOM     22  H   UNL     1       1.201  -6.303  -1.998  0.00  0.00    +0.292 HD
ENDBRANCH  18  21
ENDBRANCH  14  15
BRANCH  14  24
ATOM     23  N   UNL     1       0.584   1.033  -1.961  0.00  0.00    -0.309 N 
ATOM     24  C   UNL     1       1.596   0.224  -1.593  0.00  0.00    +0.239 C 
ATOM     25  O   UNL     1       1.786  -0.015  -0.419  0.00  0.00    -0.273 OA
ATOM     26  H   UNL     1       0.432   1.224  -2.900  0.00  0.00    +0.149 HD
BRANCH  23  28
ATOM     27  C   UNL     1       0.548   2.487   0.005  0.00  0.00    +0.031 C 
ATOM     28  C   UNL     1      -0.288   1.626  -0.944  0.00  0.00    +0.026 C 
ATOM     29  C   UNL     1      -0.975   0.512  -0.150  0.00  0.00    +0.031 C 
ATOM     30  C   UNL     1      -1.347   2.496  -1.623  0.00  0.00    +0.031 C 
ENDBRANCH  23  28
ENDBRANCH  14  24
ENDBRANCH   1  14
BRANCH   1  31
ATOM     31  C   UNL     1       4.216   0.714  -1.137  0.00  0.00    +0.183 C 
BRANCH  31  32
ATOM     32  C   UNL     1       4.562  -0.229  -0.013  0.00  0.00    +0.122 A 
ATOM     33  C   UNL     1       5.804  -0.563   0.379  0.00  0.00    +0.046 A 
ATOM     34  C   UNL     1       5.664  -1.467   1.457  0.00  0.00    +0.041 A 
ATOM     35  C   UNL     1       4.345  -1.631   1.659  0.00  0.00    +0.195 A 
ATOM     36  O   UNL     1       3.682  -0.874   0.769  0.00  0.00    -0.466 OA
ENDBRANCH  31  32
ENDBRANCH   1  31
TORSDOF 10
