REMARK  Name = ZINC48258242
REMARK  6 active torsions:
REMARK  status: ('A' for Active; 'I' for Inactive)
REMARK    1  A    between atoms: C_1  and  C_2
REMARK    2  A    between atoms: C_2  and  C_4
REMARK    3  A    between atoms: C_2  and  O_9
REMARK    4  A    between atoms: C_4  and  C_5
REMARK    5  A    between atoms: N_6  and  O_7
REMARK    6  A    between atoms: O_9  and  C_10
REMARK                            x       y       z     vdW  Elec       q    Type
REMARK                         _______ _______ _______ _____ _____    ______ ____
ROOT
ATOM      1  O   UNL     1       0.693  -0.477   1.160  0.00  0.00    -0.487 OA
ENDROOT
BRANCH   1   2
ATOM      2  C   UNL     1      -0.030  -0.600   2.303  0.00  0.00    +0.147 A 
ATOM      3  C   UNL     1      -1.378  -0.375   2.290  0.00  0.00    +0.049 A 
ATOM      4  C   UNL     1      -2.136  -0.495   3.451  0.00  0.00    +0.024 A 
ATOM      5  C   UNL     1      -1.555  -0.840   4.635  0.00  0.00    +0.050 A 
ATOM      6  C   UNL     1      -0.172  -1.080   4.688  0.00  0.00    +0.022 A 
ATOM      7  C   UNL     1       0.605  -0.965   3.508  0.00  0.00    +0.114 A 
ATOM      8  N   UNL     1       1.920  -1.196   3.552  0.00  0.00    -0.251 NA
ATOM      9  C   UNL     1       2.515  -1.536   4.669  0.00  0.00    +0.111 A 
ATOM     10  C   UNL     1       1.810  -1.672   5.863  0.00  0.00    +0.020 A 
ATOM     11  C   UNL     1       0.465  -1.438   5.891  0.00  0.00    +0.013 A 
ATOM     12 CL   UNL     1      -2.520  -0.982   6.071  0.00  0.00    -0.083 Cl
ENDBRANCH   1   2
BRANCH   1  14
ATOM     13  C   UNL     1      -0.296   1.272  -0.183  0.00  0.00    +0.052 C 
ATOM     14  C   UNL     1      -0.034  -0.230  -0.045  0.00  0.00    +0.178 C 
BRANCH  14  15
ATOM     15  C   UNL     1       0.782  -0.717  -1.243  0.00  0.00    +0.118 C 
BRANCH  15  16
ATOM     16  C   UNL     1       0.935  -2.215  -1.171  0.00  0.00    +0.135 C 
ATOM     17  N   UNL     1       0.408  -2.871  -0.192  0.00  0.00    -0.077 NA
ATOM     18  N   UNL     1       1.638  -2.884  -2.149  0.00  0.00    -0.344 N 
ATOM     19  H   UNL     1       2.034  -2.390  -2.884  0.00  0.00    +0.144 HD
ATOM     20  H   UNL     1       1.736  -3.847  -2.102  0.00  0.00    +0.144 HD
BRANCH  17  21
ATOM     21  O   UNL     1       0.551  -4.278  -0.123  0.00  0.00    -0.408 OA
ATOM     22  H   UNL     1       0.123  -4.681   0.644  0.00  0.00    +0.328 HD
ENDBRANCH  17  21
ENDBRANCH  15  16
ENDBRANCH  14  15
ENDBRANCH   1  14
TORSDOF 5
