REMARK  Name = ZINC06571234
REMARK  9 active torsions:
REMARK  status: ('A' for Active; 'I' for Inactive)
REMARK    1  A    between atoms: C_1  and  C_2
REMARK    2  A    between atoms: C_3  and  C_30
REMARK    3  A    between atoms: C_9  and  O_13
REMARK    4  A    between atoms: O_13  and  C_14
REMARK    5  A    between atoms: C_16  and  O_29
REMARK    6  A    between atoms: C_18  and  O_28
REMARK    7  A    between atoms: C_20  and  O_27
REMARK    8  A    between atoms: C_22  and  C_25
REMARK    9  A    between atoms: C_25  and  O_26
REMARK                            x       y       z     vdW  Elec       q    Type
REMARK                         _______ _______ _______ _____ _____    ______ ____
ROOT
ATOM      1  C   UNL     1       2.566   5.675  -0.066  0.00  0.00    +0.087 C 
ATOM      2  C   UNL     1       2.480   4.171  -0.035  0.00  0.00    +0.115 A 
ATOM      3  C   UNL     1       3.612   3.447  -0.238  0.00  0.00    +0.085 A 
ATOM      4  C   UNL     1       3.527   1.977  -0.207  0.00  0.00    +0.202 A 
ATOM      5  O   UNL     1       4.509   1.276  -0.382  0.00  0.00    -0.286 OA
ATOM      6  C   UNL     1       2.197   1.394   0.048  0.00  0.00    +0.065 A 
ATOM      7  C   UNL     1       2.010   0.012   0.098  0.00  0.00    +0.019 A 
ATOM      8  C   UNL     1       0.765  -0.495   0.336  0.00  0.00    +0.047 A 
ATOM      9  C   UNL     1      -0.318   0.361   0.529  0.00  0.00    +0.128 A 
ATOM     10  C   UNL     1      -0.148   1.734   0.483  0.00  0.00    +0.092 A 
ATOM     11  C   UNL     1       1.112   2.266   0.241  0.00  0.00    +0.142 A 
ATOM     12  O   UNL     1       1.295   3.601   0.193  0.00  0.00    -0.459 OA
ENDROOT
BRANCH   3  13
ATOM     13  C   UNL     1       4.907   4.124  -0.488  0.00  0.00    +0.078 A 
ATOM     14  C   UNL     1       6.040   3.735   0.226  0.00  0.00    +0.028 A 
ATOM     15  C   UNL     1       7.241   4.376  -0.018  0.00  0.00    +0.004 A 
ATOM     16  C   UNL     1       7.271   5.387  -0.969  0.00  0.00    +0.020 A 
ATOM     17  C   UNL     1       6.111   5.722  -1.640  0.00  0.00    +0.111 A 
ATOM     18  N   UNL     1       4.979   5.093  -1.392  0.00  0.00    -0.255 NA
ENDBRANCH   3  13
BRANCH   9  19
ATOM     19  O   UNL     1      -1.550  -0.157   0.765  0.00  0.00    -0.461 OA
BRANCH  19  20
ATOM     20  C   UNL     1      -1.660  -1.581   0.801  0.00  0.00    +0.339 C 
ATOM     21  C   UNL     1      -3.138  -1.979   0.828  0.00  0.00    +0.214 C 
ATOM     22  C   UNL     1      -3.247  -3.503   0.927  0.00  0.00    +0.180 C 
ATOM     23  C   UNL     1      -2.494  -3.978   2.174  0.00  0.00    +0.177 C 
ATOM     24  C   UNL     1      -1.041  -3.503   2.095  0.00  0.00    +0.179 C 
ATOM     25  O   UNL     1      -1.012  -2.080   1.973  0.00  0.00    -0.331 OA
BRANCH  23  26
ATOM     26  O   UNL     1      -3.112  -3.433   3.341  0.00  0.00    -0.386 OA
ATOM     27  H   UNL     1      -4.036  -3.693   3.455  0.00  0.00    +0.210 HD
ENDBRANCH  23  26
BRANCH  22  28
ATOM     28  O   UNL     1      -4.622  -3.879   1.027  0.00  0.00    -0.386 OA
ATOM     29  H   UNL     1      -5.159  -3.610   0.270  0.00  0.00    +0.210 HD
ENDBRANCH  22  28
BRANCH  21  30
ATOM     30  O   UNL     1      -3.773  -1.380   1.960  0.00  0.00    -0.383 OA
ATOM     31  H   UNL     1      -3.738  -0.414   1.965  0.00  0.00    +0.210 HD
ENDBRANCH  21  30
BRANCH  24  32
ATOM     32  C   UNL     1      -0.297  -3.922   3.364  0.00  0.00    +0.190 C 
BRANCH  32  33
ATOM     33  O   UNL     1       1.085  -3.581   3.241  0.00  0.00    -0.392 OA
ATOM     34  H   UNL     1       1.619  -3.818   4.012  0.00  0.00    +0.210 HD
ENDBRANCH  32  33
ENDBRANCH  24  32
ENDBRANCH  19  20
ENDBRANCH   9  19
TORSDOF 8
