REMARK  Name = ZINC12299093
REMARK  9 active torsions:
REMARK  status: ('A' for Active; 'I' for Inactive)
REMARK    1  A    between atoms: C_1  and  C_2
REMARK    2  A    between atoms: C_2  and  C_25
REMARK    3  A    between atoms: C_3  and  C_4
REMARK    4  A    between atoms: C_4  and  N_55
REMARK    5  A    between atoms: C_10  and  C_12
REMARK    6  A    between atoms: C_12  and  C_13
REMARK    7  A    between atoms: N_15  and  C_16
REMARK    8  A    between atoms: C_16  and  C_17
REMARK    9  A    between atoms: C_17  and  N_18
REMARK                            x       y       z     vdW  Elec       q    Type
REMARK                         _______ _______ _______ _____ _____    ______ ____
ROOT
ATOM      1  C   UNL     1       6.864  -0.532  -6.550  0.00  0.00    -0.058 C 
ATOM      2  C   UNL     1       5.521  -0.806  -7.228  0.00  0.00    +0.085 C 
ATOM      3  N   UNL     1       4.774  -1.808  -6.473  0.00  0.00    -0.318 N 
ATOM      4  C   UNL     1       5.053  -2.117  -5.202  0.00  0.00    +0.200 C 
ATOM      5  O   UNL     1       4.362  -2.940  -4.640  0.00  0.00    -0.278 OA
ATOM      6  C   UNL     1       6.186  -1.488  -4.442  0.00  0.00    +0.028 C 
ATOM      7  H   UNL     1       4.043  -2.269  -6.913  0.00  0.00    +0.149 HD
ATOM      8  N   UNL     1       6.608  -0.250  -5.123  0.00  0.00    +0.391 N 
ATOM      9  H   UNL     1       5.857   0.447  -5.049  0.00  0.00    -0.080 HD
ENDROOT
BRANCH   8  10
ATOM     10  C   UNL     1       7.830   0.289  -4.484  0.00  0.00    -0.050 C 
BRANCH  10  13
ATOM     11  C   UNL     1       8.186   2.341  -2.584  0.00  0.00    +0.038 C 
ATOM     12  C   UNL     1       8.144   2.672  -4.054  0.00  0.00    -0.081 C 
ATOM     13  C   UNL     1       8.031   1.712  -4.938  0.00  0.00    -0.047 C 
ATOM     14  C   UNL     1       8.232   4.106  -4.506  0.00  0.00    +0.038 C 
ENDBRANCH  10  13
ENDBRANCH   8  10
BRANCH   6  15
ATOM     15  C   UNL     1       5.718  -1.143  -3.027  0.00  0.00    +0.089 C 
BRANCH  15  16
ATOM     16  C   UNL     1       4.612  -0.122  -3.098  0.00  0.00    +0.212 C 
ATOM     17  O   UNL     1       4.301   0.362  -4.166  0.00  0.00    -0.276 OA
ATOM     18  N   UNL     1       3.968   0.253  -1.975  0.00  0.00    -0.314 N 
ATOM     19  H   UNL     1       4.216  -0.134  -1.121  0.00  0.00    +0.149 HD
BRANCH  18  20
ATOM     20  C   UNL     1       2.892   1.245  -2.045  0.00  0.00    +0.123 C 
BRANCH  20  21
ATOM     21  C   UNL     1       2.333   1.490  -0.642  0.00  0.00    +0.126 C 
BRANCH  21  22
ATOM     22  N   UNL     1       1.258   2.482  -0.711  0.00  0.00    -0.300 N 
ATOM     23  C   UNL     1       1.615   3.888  -0.565  0.00  0.00    +0.108 C 
ATOM     24  C   UNL     1       0.505   4.782  -1.119  0.00  0.00    +0.019 C 
ATOM     25  C   UNL     1      -0.831   4.344  -0.507  0.00  0.00    +0.011 C 
ATOM     26  C   UNL     1      -1.174   2.951  -1.048  0.00  0.00    +0.096 C 
ATOM     27  C   UNL     1       0.013   2.043  -0.903  0.00  0.00    +0.216 C 
ATOM     28  O   UNL     1      -0.169   0.846  -0.969  0.00  0.00    -0.276 OA
ENDBRANCH  21  22
ENDBRANCH  20  21
ENDBRANCH  18  20
ENDBRANCH  15  16
ENDBRANCH   6  15
TORSDOF 7
