REMARK  Name = ZINC52844921
REMARK  6 active torsions:
REMARK  status: ('A' for Active; 'I' for Inactive)
REMARK    1  A    between atoms: C_1  and  C_2
REMARK    2  A    between atoms: C_2  and  C_3
REMARK    3  A    between atoms: C_2  and  C_4
REMARK    4  A    between atoms: C_2  and  N_5
REMARK    5  A    between atoms: C_9  and  C_11
REMARK    6  A    between atoms: C_11  and  N_12
REMARK                            x       y       z     vdW  Elec       q    Type
REMARK                         _______ _______ _______ _____ _____    ______ ____
ROOT
ATOM      1  N   UNL     1       0.688  -0.476  -1.203  0.00  0.00    -0.294 N 
ATOM      2  C   UNL     1       1.972  -0.132  -1.427  0.00  0.00    +0.306 C 
ATOM      3  O   UNL     1       2.560   0.570  -0.629  0.00  0.00    -0.252 OA
ATOM      4  N   UNL     1       2.602  -0.567  -2.536  0.00  0.00    -0.239 N 
ATOM      5  C   UNL     1       3.886  -0.223  -2.760  0.00  0.00    +0.238 C 
ATOM      6  O   UNL     1       4.473   0.478  -1.963  0.00  0.00    -0.274 OA
ATOM      7  H   UNL     1       0.218  -1.037  -1.840  0.00  0.00    +0.151 HD
ATOM      8  H   UNL     1       2.132  -1.127  -3.173  0.00  0.00    +0.159 HD
ENDROOT
BRANCH   1  10
ATOM      9  C   UNL     1      -0.019   1.526   0.010  0.00  0.00    +0.031 C 
ATOM     10  C   UNL     1       0.002  -0.004   0.002  0.00  0.00    +0.028 C 
ATOM     11  C   UNL     1       0.742  -0.511   1.242  0.00  0.00    +0.031 C 
ATOM     12  C   UNL     1      -1.433  -0.534   0.013  0.00  0.00    +0.031 C 
ENDBRANCH   1  10
BRANCH   5  13
ATOM     13  C   UNL     1       4.591  -0.709  -3.999  0.00  0.00    +0.201 C 
BRANCH  13  14
ATOM     14  N   UNL     1       5.966  -0.202  -4.010  0.00  0.00    -0.321 N 
ATOM     15  C   UNL     1       6.280   1.091  -4.633  0.00  0.00    +0.106 C 
ATOM     16  C   UNL     1       7.549   0.909  -5.476  0.00  0.00    +0.024 C 
ATOM     17  C   UNL     1       8.708   0.541  -4.550  0.00  0.00    +0.038 C 
ATOM     18  C   UNL     1       8.328  -0.616  -3.664  0.00  0.00    -0.026 A 
ATOM     19  C   UNL     1       7.000  -0.938  -3.421  0.00  0.00    +0.036 A 
ATOM     20  C   UNL     1       6.681  -2.006  -2.590  0.00  0.00    +0.061 A 
ATOM     21  C   UNL     1       7.689  -2.748  -2.001  0.00  0.00    +0.125 A 
ATOM     22  C   UNL     1       9.014  -2.425  -2.241  0.00  0.00    +0.039 A 
ATOM     23  C   UNL     1       9.332  -1.367  -3.076  0.00  0.00    +0.008 A 
ATOM     24  F   UNL     1       7.380  -3.786  -1.193  0.00  0.00    -0.205 F 
ENDBRANCH  13  14
ENDBRANCH   5  13
TORSDOF 3
