REMARK  Name = ZINC33244600
REMARK  8 active torsions:
REMARK  status: ('A' for Active; 'I' for Inactive)
REMARK    1  A    between atoms: C_1  and  C_2
REMARK    2  A    between atoms: C_2  and  C_4
REMARK    3  A    between atoms: C_2  and  O_23
REMARK    4  A    between atoms: N_6  and  C_7
REMARK    5  A    between atoms: C_10  and  N_13
REMARK    6  A    between atoms: N_16  and  C_17
REMARK    7  A    between atoms: C_17  and  C_18
REMARK    8  A    between atoms: O_23  and  C_24
REMARK                            x       y       z     vdW  Elec       q    Type
REMARK                         _______ _______ _______ _____ _____    ______ ____
ROOT
ATOM      1  C   UNL     1      -3.379  -1.630  -0.373  0.00  0.00    +0.034 A 
ATOM      2  C   UNL     1      -3.701  -2.424   0.720  0.00  0.00    +0.025 A 
ATOM      3  C   UNL     1      -4.837  -3.208   0.693  0.00  0.00    +0.025 A 
ATOM      4  C   UNL     1      -5.657  -3.203  -0.428  0.00  0.00    +0.035 A 
ATOM      5  C   UNL     1      -5.335  -2.410  -1.521  0.00  0.00    +0.025 A 
ATOM      6  C   UNL     1      -4.202  -1.621  -1.491  0.00  0.00    +0.025 A 
ENDROOT
BRANCH   4   7
ATOM      7  N   UNL     1      -6.810  -3.999  -0.455  0.00  0.00    -0.269 N 
ATOM      8  C   UNL     1      -7.218  -4.554  -1.614  0.00  0.00    +0.304 C 
ATOM      9  O   UNL     1      -6.538  -4.439  -2.616  0.00  0.00    -0.252 OA
ATOM     10  N   UNL     1      -8.379  -5.237  -1.662  0.00  0.00    -0.292 N 
ATOM     11  H   UNL     1      -7.314  -4.151   0.359  0.00  0.00    +0.156 HD
ATOM     12  H   UNL     1      -8.921  -5.329  -0.863  0.00  0.00    +0.151 HD
BRANCH  10  13
ATOM     13  C   UNL     1      -8.822  -5.841  -2.921  0.00  0.00    +0.180 C 
BRANCH  13  14
ATOM     14  C   UNL     1     -10.139  -6.541  -2.706  0.00  0.00    +0.122 A 
ATOM     15  C   UNL     1     -11.357  -5.989  -2.853  0.00  0.00    +0.046 A 
ATOM     16  C   UNL     1     -12.302  -6.996  -2.554  0.00  0.00    +0.041 A 
ATOM     17  C   UNL     1     -11.606  -8.104  -2.241  0.00  0.00    +0.195 A 
ATOM     18  O   UNL     1     -10.296  -7.824  -2.341  0.00  0.00    -0.466 OA
ENDBRANCH  13  14
ENDBRANCH  10  13
ENDBRANCH   4   7
BRANCH   1  21
ATOM     19  C   UNL     1      -2.212   0.354  -0.981  0.00  0.00    +0.258 C 
ATOM     20  O   UNL     1      -3.227   0.781  -1.491  0.00  0.00    -0.271 OA
ATOM     21  N   UNL     1      -2.226  -0.834  -0.346  0.00  0.00    -0.282 N 
ATOM     22  H   UNL     1      -1.438  -1.139   0.131  0.00  0.00    +0.155 HD
BRANCH  19  24
ATOM     23  C   UNL     1       0.095   0.387  -1.889  0.00  0.00    +0.062 C 
ATOM     24  C   UNL     1      -0.936   1.153  -1.058  0.00  0.00    +0.256 C 
BRANCH  24  25
ATOM     25  O   UNL     1      -1.201   2.415  -1.673  0.00  0.00    -0.478 OA
BRANCH  25  26
ATOM     26  C   UNL     1      -0.387   3.449  -1.334  0.00  0.00    +0.141 A 
ATOM     27  C   UNL     1       0.716   3.228  -0.522  0.00  0.00    +0.047 A 
ATOM     28  C   UNL     1       1.543   4.280  -0.179  0.00  0.00    +0.005 A 
ATOM     29  C   UNL     1       1.273   5.554  -0.643  0.00  0.00    +0.022 A 
ATOM     30  C   UNL     1       0.173   5.779  -1.452  0.00  0.00    +0.063 A 
ATOM     31  C   UNL     1      -0.654   4.728  -1.804  0.00  0.00    +0.101 A 
ATOM     32 CL   UNL     1      -2.030   5.008  -2.825  0.00  0.00    -0.078 Cl
ATOM     33 CL   UNL     1      -0.164   7.380  -2.032  0.00  0.00    -0.082 Cl
ENDBRANCH  25  26
ENDBRANCH  24  25
ENDBRANCH  19  24
ENDBRANCH   1  21
TORSDOF 7
