REMARK  Name = ZINC22063378
REMARK  4 active torsions:
REMARK  status: ('A' for Active; 'I' for Inactive)
REMARK    1  A    between atoms: C_8  and  C_27
REMARK    2  A    between atoms: N_10  and  C_12
REMARK    3  A    between atoms: C_12  and  C_13
REMARK    4  A    between atoms: N_15  and  C_16
REMARK                            x       y       z     vdW  Elec       q    Type
REMARK                         _______ _______ _______ _____ _____    ______ ____
ROOT
ATOM      1  C   UNL     1      -0.905   1.685   0.674  0.00  0.00    +0.000 A 
ATOM      2  C   UNL     1       0.224   0.963   0.335  0.00  0.00    +0.000 A 
ATOM      3  C   UNL     1       1.376   1.624  -0.039  0.00  0.00    +0.002 A 
ATOM      4  C   UNL     1       1.411   3.011  -0.070  0.00  0.00    -0.061 A 
ATOM      5  C   UNL     1       0.287   3.730   0.276  0.00  0.00    -0.047 A 
ATOM      6  C   UNL     1      -0.871   3.065   0.649  0.00  0.00    +0.004 A 
ATOM      7  C   UNL     1       0.278   5.237   0.265  0.00  0.00    +0.029 C 
ATOM      8  C   UNL     1       1.462   5.760  -0.550  0.00  0.00    +0.024 C 
ATOM      9  N   UNL     1       2.685   5.094  -0.076  0.00  0.00    +0.396 N 
ATOM     10  C   UNL     1       2.690   3.687  -0.488  0.00  0.00    -0.041 C 
ATOM     11  H   UNL     1       2.701   5.131   1.023  0.00  0.00    -0.080 HD
ENDROOT
BRANCH   8  12
ATOM     12  C   UNL     1       1.589   7.249  -0.359  0.00  0.00    +0.197 C 
ATOM     13  O   UNL     1       2.200   7.689   0.592  0.00  0.00    -0.278 OA
ATOM     14  N   UNL     1       1.024   8.093  -1.246  0.00  0.00    -0.331 N 
ATOM     15  H   UNL     1       1.118   9.180  -1.107  0.00  0.00    +0.145 HD
ATOM     16  H   UNL     1       0.471   7.694  -2.109  0.00  0.00    +0.145 HD
ENDBRANCH   8  12
BRANCH   9  17
ATOM     17  C   UNL     1       3.885   5.789  -0.562  0.00  0.00    +0.020 C 
BRANCH  17  18
ATOM     18  C   UNL     1       3.868   5.825  -2.069  0.00  0.00    +0.201 C 
ATOM     19  O   UNL     1       2.948   5.321  -2.678  0.00  0.00    -0.278 OA
ATOM     20  N   UNL     1       4.876   6.417  -2.740  0.00  0.00    -0.286 N 
ATOM     21  H   UNL     1       5.747   6.808  -2.192  0.00  0.00    +0.155 HD
BRANCH  20  22
ATOM     22  C   UNL     1       4.816   6.534  -4.135  0.00  0.00    +0.056 A 
ATOM     23  C   UNL     1       4.184   5.554  -4.887  0.00  0.00    +0.074 A 
ATOM     24  C   UNL     1       4.123   5.670  -6.267  0.00  0.00    +0.164 A 
ATOM     25  C   UNL     1       4.696   6.769  -6.896  0.00  0.00    +0.164 A 
ATOM     26  C   UNL     1       5.328   7.746  -6.142  0.00  0.00    +0.071 A 
ATOM     27  C   UNL     1       5.384   7.633  -4.766  0.00  0.00    +0.066 A 
ATOM     28 CL   UNL     1       6.170   8.863  -3.825  0.00  0.00    -0.082 Cl
ATOM     29  O   UNL     1       4.643   6.902  -8.251  0.00  0.00    -0.485 OA
ATOM     30  C   UNL     1       4.333   5.723  -9.002  0.00  0.00    +0.270 C 
ATOM     31  C   UNL     1       3.136   5.031  -8.335  0.00  0.00    +0.270 C 
ATOM     32  O   UNL     1       3.503   4.698  -6.991  0.00  0.00    -0.485 OA
ENDBRANCH  20  22
ENDBRANCH  17  18
ENDBRANCH   9  17
TORSDOF 4
