REMARK  Name = ZINC67148695
REMARK  12 active torsions:
REMARK  status: ('A' for Active; 'I' for Inactive)
REMARK    1  A    between atoms: C_1  and  C_2
REMARK    2  A    between atoms: C_2  and  C_3
REMARK    3  A    between atoms: C_2  and  C_4
REMARK    4  A    between atoms: C_4  and  C_5
REMARK    5  A    between atoms: C_5  and  C_6
REMARK    6  A    between atoms: N_8  and  C_9
REMARK    7  A    between atoms: C_9  and  C_10
REMARK    8  A    between atoms: N_12  and  C_13
REMARK    9  A    between atoms: C_15  and  C_21
REMARK   10  A    between atoms: C_15  and  C_22
REMARK   11  A    between atoms: C_17  and  C_19
REMARK   12  A    between atoms: C_17  and  C_20
REMARK                            x       y       z     vdW  Elec       q    Type
REMARK                         _______ _______ _______ _____ _____    ______ ____
ROOT
ATOM      1  C   UNL     1       0.118  -0.117   7.341  0.00  0.00    +0.230 C 
ATOM      2  O   UNL     1      -0.875   0.571   7.239  0.00  0.00    -0.274 OA
ATOM      3  N   UNL     1       0.545  -0.507   8.559  0.00  0.00    -0.311 N 
ATOM      4  H   UNL     1       1.339  -1.057   8.641  0.00  0.00    +0.149 HD
ENDROOT
BRANCH   3   5
ATOM      5  C   UNL     1      -0.192  -0.097   9.761  0.00  0.00    +0.070 C 
ATOM      6  C   UNL     1       0.316   1.271  10.220  0.00  0.00    +0.009 C 
ATOM      7  C   UNL     1      -0.434   1.707  11.479  0.00  0.00    -0.072 C 
ATOM      8  N   UNL     1      -0.365   0.704  12.531  0.00  0.00    +0.386 N 
ATOM      9  C   UNL     1      -0.630  -0.678  12.166  0.00  0.00    -0.072 C 
ATOM     10  C   UNL     1       0.069  -1.105  10.880  0.00  0.00    +0.009 C 
ATOM     11  C   UNL     1      -0.081  -1.572  13.304  0.00  0.00    -0.010 C 
ATOM     12  C   UNL     1      -2.131  -0.959  12.063  0.00  0.00    -0.010 C 
ATOM     13  C   UNL     1      -1.875   2.081  11.133  0.00  0.00    -0.010 C 
ATOM     14  C   UNL     1       0.258   2.985  12.005  0.00  0.00    -0.010 C 
ATOM     15  H   UNL     1       0.563   0.752  12.960  0.00  0.00    -0.084 HD
ATOM     16  H   UNL     1      -1.017   0.973  13.273  0.00  0.00    -0.084 HD
ENDBRANCH   3   5
BRANCH   1  17
ATOM     17  C   UNL     1       0.874  -0.538   6.107  0.00  0.00    +0.200 C 
BRANCH  17  20
ATOM     18  C   UNL     1       0.717  -0.239   3.694  0.00  0.00    +0.213 C 
ATOM     19  O   UNL     1       1.717  -0.915   3.575  0.00  0.00    -0.276 OA
ATOM     20  N   UNL     1       0.214   0.009   4.920  0.00  0.00    -0.307 N 
ATOM     21  H   UNL     1      -0.586   0.549   5.015  0.00  0.00    +0.149 HD
BRANCH  18  22
ATOM     22  C   UNL     1       0.038   0.324   2.473  0.00  0.00    +0.096 C 
BRANCH  22  23
ATOM     23  C   UNL     1       0.805  -0.103   1.220  0.00  0.00    +0.012 C 
BRANCH  23  25
ATOM     24  C   UNL     1       0.201   1.995   0.006  0.00  0.00    +0.007 C 
ATOM     25  C   UNL     1       0.116   0.468  -0.021  0.00  0.00    -0.017 C 
ATOM     26  C   UNL     1       0.809  -0.060  -1.278  0.00  0.00    +0.007 C 
ENDBRANCH  23  25
ENDBRANCH  22  23
ENDBRANCH  18  22
ENDBRANCH  17  20
ENDBRANCH   1  17
TORSDOF 6
