REMARK  Name = ZINC56748135
REMARK  8 active torsions:
REMARK  status: ('A' for Active; 'I' for Inactive)
REMARK    1  A    between atoms: C_1  and  N_2
REMARK    2  A    between atoms: N_2  and  C_3
REMARK    3  A    between atoms: C_3  and  C_4
REMARK    4  A    between atoms: C_7  and  C_10
REMARK    5  A    between atoms: N_14  and  C_15
REMARK    6  A    between atoms: C_20  and  C_21
REMARK    7  A    between atoms: C_21  and  O_22
REMARK    8  A    between atoms: O_22  and  C_23
REMARK                            x       y       z     vdW  Elec       q    Type
REMARK                         _______ _______ _______ _____ _____    ______ ____
ROOT
ATOM      1  C   UNL     1       0.057   1.439   0.022  0.00  0.00    +0.134 C 
ATOM      2  N   UNL     1      -0.574   0.120  -0.067  0.00  0.00    -0.284 N 
ATOM      3  C   UNL     1      -0.587  -0.543  -1.241  0.00  0.00    +0.307 C 
ATOM      4  O   UNL     1      -1.111  -1.638  -1.315  0.00  0.00    -0.252 OA
ATOM      5  N   UNL     1      -0.020   0.009  -2.332  0.00  0.00    -0.269 N 
ATOM      6  H   UNL     1       0.325   0.914  -2.294  0.00  0.00    +0.156 HD
ENDROOT
BRANCH   5   7
ATOM      7  C   UNL     1       0.071  -0.726  -3.520  0.00  0.00    +0.041 A 
ATOM      8  C   UNL     1       0.077  -2.114  -3.481  0.00  0.00    +0.024 A 
ATOM      9  C   UNL     1       0.166  -2.836  -4.655  0.00  0.00    +0.002 A 
ATOM     10  C   UNL     1       0.251  -2.178  -5.868  0.00  0.00    +0.000 A 
ATOM     11  C   UNL     1       0.246  -0.796  -5.910  0.00  0.00    +0.009 A 
ATOM     12  C   UNL     1       0.150  -0.068  -4.740  0.00  0.00    +0.011 A 
BRANCH  12  13
ATOM     13  C   UNL     1       0.138   1.438  -4.787  0.00  0.00    +0.266 C 
BRANCH  13  14
ATOM     14  O   UNL     1       0.230   1.873  -6.146  0.00  0.00    -0.487 OA
BRANCH  14  15
ATOM     15  C   UNL     1       0.232   3.214  -6.366  0.00  0.00    +0.121 A 
ATOM     16  C   UNL     1       0.154   4.093  -5.296  0.00  0.00    +0.045 A 
ATOM     17  C   UNL     1       0.156   5.456  -5.522  0.00  0.00    +0.004 A 
ATOM     18  C   UNL     1       0.236   5.944  -6.813  0.00  0.00    +0.000 A 
ATOM     19  C   UNL     1       0.314   5.069  -7.881  0.00  0.00    +0.004 A 
ATOM     20  C   UNL     1       0.318   3.705  -7.660  0.00  0.00    +0.045 A 
ENDBRANCH  14  15
ENDBRANCH  13  14
ENDBRANCH  12  13
ENDBRANCH   5   7
BRANCH   2  21
ATOM     21  C   UNL     1      -1.190  -0.480   1.119  0.00  0.00    +0.144 C 
BRANCH  21  22
ATOM     22  C   UNL     1      -2.639  -0.071   1.193  0.00  0.00    -0.030 A 
ATOM     23  C   UNL     1      -2.995   1.083   1.868  0.00  0.00    +0.006 A 
ATOM     24  C   UNL     1      -4.320   1.463   1.940  0.00  0.00    +0.019 A 
ATOM     25  C   UNL     1      -5.301   0.680   1.329  0.00  0.00    +0.052 A 
ATOM     26  C   UNL     1      -4.934  -0.483   0.649  0.00  0.00    +0.019 A 
ATOM     27  C   UNL     1      -3.606  -0.849   0.581  0.00  0.00    +0.006 A 
BRANCH  25  28
ATOM     28  C   UNL     1      -6.678   1.068   1.400  0.00  0.00    +0.099 C 
ATOM     29  N   UNL     1      -7.770   1.376   1.456  0.00  0.00    -0.191 NA
ENDBRANCH  25  28
ENDBRANCH  21  22
ENDBRANCH   2  21
TORSDOF 7
