REMARK  Name = ZINC58396114
REMARK  4 active torsions:
REMARK  status: ('A' for Active; 'I' for Inactive)
REMARK    1  A    between atoms: C_8  and  C_12
REMARK    2  A    between atoms: N_14  and  C_15
REMARK    3  A    between atoms: N_14  and  C_19
REMARK    4  A    between atoms: C_15  and  C_16
REMARK                            x       y       z     vdW  Elec       q    Type
REMARK                         _______ _______ _______ _____ _____    ______ ____
ROOT
ATOM      1  C   UNL     1      -4.250  -2.927   0.272  0.00  0.00    +0.254 C 
ATOM      2  O   UNL     1      -5.133  -2.090   0.330  0.00  0.00    -0.269 OA
ATOM      3  N   UNL     1      -4.545  -4.193  -0.082  0.00  0.00    -0.285 N 
ENDROOT
BRANCH   1  11
ATOM      4  C   UNL     1      -0.118   1.210   1.554  0.00  0.00    +0.101 A 
ATOM      5  C   UNL     1       0.998   1.875   1.849  0.00  0.00    +0.067 A 
ATOM      6  S   UNL     1       2.200   0.557   1.939  0.00  0.00    -0.058 S 
ATOM      7  C   UNL     1       1.099  -0.791   1.571  0.00  0.00    +0.179 A 
ATOM      8  N   UNL     1      -0.103  -0.159   1.404  0.00  0.00    -0.293 N 
ATOM      9  C   UNL     1      -1.035  -1.189   1.104  0.00  0.00    +0.082 A 
ATOM     10  C   UNL     1      -2.386  -1.314   0.822  0.00  0.00    +0.049 A 
ATOM     11  C   UNL     1      -2.913  -2.569   0.577  0.00  0.00    +0.078 A 
ATOM     12  S   UNL     1      -1.482  -3.624   0.742  0.00  0.00    -0.063 S 
ATOM     13  C   UNL     1      -0.284  -2.369   1.120  0.00  0.00    +0.128 A 
ATOM     14  N   UNL     1       0.979  -2.081   1.403  0.00  0.00    -0.214 NA
ENDBRANCH   1  11
BRANCH   3  15
ATOM     15  C   UNL     1      -5.917  -4.550  -0.452  0.00  0.00    +0.077 C 
ATOM     16  C   UNL     1      -6.395  -3.668  -1.624  0.00  0.00    +0.022 C 
ATOM     17  C   UNL     1      -7.889  -3.401  -1.313  0.00  0.00    +0.002 C 
ATOM     18  C   UNL     1      -7.892  -3.231   0.227  0.00  0.00    +0.002 C 
ATOM     19  C   UNL     1      -6.869  -4.272   0.725  0.00  0.00    +0.022 C 
ENDBRANCH   3  15
BRANCH   3  20
ATOM     20  C   UNL     1      -3.493  -5.213  -0.098  0.00  0.00    +0.203 C 
BRANCH  20  21
ATOM     21  C   UNL     1      -3.291  -5.748   1.296  0.00  0.00    +0.228 C 
ATOM     22  O   UNL     1      -3.960  -5.320   2.213  0.00  0.00    -0.274 OA
ATOM     23  N   UNL     1      -2.368  -6.702   1.525  0.00  0.00    -0.328 N 
ATOM     24  H   UNL     1      -1.833  -7.045   0.792  0.00  0.00    +0.145 HD
ATOM     25  H   UNL     1      -2.238  -7.047   2.422  0.00  0.00    +0.145 HD
ENDBRANCH  20  21
ENDBRANCH   3  20
TORSDOF 4
