REMARK  Name = ZINC20877113
REMARK  14 active torsions:
REMARK  status: ('A' for Active; 'I' for Inactive)
REMARK    1  A    between atoms: C_1  and  C_2
REMARK    2  A    between atoms: C_2  and  C_3
REMARK    3  A    between atoms: C_2  and  C_4
REMARK    4  A    between atoms: C_2  and  N_6
REMARK    5  A    between atoms: C_4  and  O_5
REMARK    6  A    between atoms: N_6  and  C_7
REMARK    7  A    between atoms: C_7  and  C_8
REMARK    8  A    between atoms: C_10  and  O_30
REMARK    9  A    between atoms: C_11  and  O_15
REMARK   10  A    between atoms: O_15  and  C_16
REMARK   11  A    between atoms: C_16  and  C_17
REMARK   12  A    between atoms: C_17  and  C_19
REMARK   13  A    between atoms: C_17  and  O_29
REMARK   14  A    between atoms: O_30  and  C_31
REMARK                            x       y       z     vdW  Elec       q    Type
REMARK                         _______ _______ _______ _____ _____    ______ ____
ROOT
ATOM      1  C   UNL     1      -7.139  -2.471  -5.094  0.00  0.00    -0.060 A 
ATOM      2  C   UNL     1      -7.535  -1.385  -4.334  0.00  0.00    +0.051 A 
ATOM      3  C   UNL     1      -6.947  -1.150  -3.102  0.00  0.00    +0.163 A 
ATOM      4  C   UNL     1      -5.951  -2.003  -2.636  0.00  0.00    +0.176 A 
ATOM      5  C   UNL     1      -5.558  -3.089  -3.402  0.00  0.00    +0.063 A 
ATOM      6  C   UNL     1      -6.153  -3.321  -4.629  0.00  0.00    +0.021 A 
ATOM      7 BR   UNL     1      -4.209  -4.254  -2.770  0.00  0.00    -0.046 Br
ENDROOT
BRANCH   3   8
ATOM      8  O   UNL     1      -7.339  -0.086  -2.352  0.00  0.00    -0.491 OA
ATOM      9  C   UNL     1      -8.367   0.746  -2.894  0.00  0.00    +0.277 C 
ENDBRANCH   3   8
BRANCH   1  10
ATOM     10  C   UNL     1      -7.784  -2.728  -6.432  0.00  0.00    -0.046 C 
BRANCH  10  11
ATOM     11  N   UNL     1      -8.957  -3.593  -6.252  0.00  0.00    +0.387 N 
ATOM     12  H   UNL     1      -9.666  -3.091  -5.578  0.00  0.00    -0.085 HD
ATOM     13  H   UNL     1      -8.630  -4.541  -5.799  0.00  0.00    -0.085 HD
BRANCH  11  15
ATOM     14  C   UNL     1     -10.067  -2.548  -8.168  0.00  0.00    -0.008 C 
ATOM     15  C   UNL     1      -9.612  -3.866  -7.538  0.00  0.00    -0.050 C 
ATOM     16  C   UNL     1      -8.626  -4.565  -8.475  0.00  0.00    -0.008 C 
BRANCH  15  17
ATOM     17  C   UNL     1     -10.826  -4.768  -7.311  0.00  0.00    +0.143 C 
BRANCH  17  18
ATOM     18  O   UNL     1     -11.464  -5.033  -8.562  0.00  0.00    -0.396 OA
ATOM     19  H   UNL     1     -12.361  -5.668  -8.598  0.00  0.00    +0.209 HD
ENDBRANCH  17  18
ENDBRANCH  15  17
ENDBRANCH  11  15
ENDBRANCH  10  11
ENDBRANCH   1  10
BRANCH   4  20
ATOM     20  O   UNL     1      -5.367  -1.774  -1.429  0.00  0.00    -0.484 OA
BRANCH  20  21
ATOM     21  C   UNL     1      -4.203  -0.946  -1.418  0.00  0.00    +0.265 C 
BRANCH  21  22
ATOM     22  C   UNL     1      -3.692  -0.803   0.018  0.00  0.00    +0.182 C 
BRANCH  22  23
ATOM     23  C   UNL     1      -2.397  -0.033   0.016  0.00  0.00    -0.012 A 
ATOM     24  C   UNL     1      -2.415   1.349   0.025  0.00  0.00    +0.010 A 
ATOM     25  C   UNL     1      -1.229   2.059   0.019  0.00  0.00    +0.050 A 
ATOM     26  C   UNL     1      -0.017   1.385   0.010  0.00  0.00    +0.162 A 
ATOM     27  C   UNL     1       0.002  -0.004   0.002  0.00  0.00    +0.162 A 
ATOM     28  C   UNL     1      -1.192  -0.710   0.004  0.00  0.00    +0.055 A 
ATOM     29  O   UNL     1       1.181  -0.685  -0.007  0.00  0.00    -0.485 OA
ATOM     30  C   UNL     1       2.347   0.053  -0.387  0.00  0.00    +0.270 C 
ATOM     31  C   UNL     1       2.334   1.392   0.364  0.00  0.00    +0.270 C 
ATOM     32  O   UNL     1       1.143   2.098   0.002  0.00  0.00    -0.485 OA
ENDBRANCH  22  23
BRANCH  22  33
ATOM     33  O   UNL     1      -4.661  -0.103   0.801  0.00  0.00    -0.384 OA
ATOM     34  H   UNL     1      -4.468   0.095   1.865  0.00  0.00    +0.210 HD
ENDBRANCH  22  33
ENDBRANCH  21  22
ENDBRANCH  20  21
ENDBRANCH   4  20
TORSDOF 11
