REMARK  Name = ZINC44318393
REMARK  12 active torsions:
REMARK  status: ('A' for Active; 'I' for Inactive)
REMARK    1  A    between atoms: C_1  and  C_2
REMARK    2  A    between atoms: C_2  and  C_3
REMARK    3  A    between atoms: C_2  and  C_4
REMARK    4  A    between atoms: C_2  and  O_5
REMARK    5  A    between atoms: O_5  and  C_6
REMARK    6  A    between atoms: N_8  and  CA_9
REMARK    7  A    between atoms: CA_9  and  C_11
REMARK    8  A    between atoms: CA_9  and  C_26
REMARK    9  A    between atoms: C_11  and  C_12
REMARK   10  A    between atoms: C_14  and  C_19
REMARK   11  A    between atoms: C_17  and  O_18
REMARK   12  A    between atoms: C_19  and  C_20
REMARK                            x       y       z     vdW  Elec       q    Type
REMARK                         _______ _______ _______ _____ _____    ______ ____
ROOT
ATOM      1  C   UNL     1       4.824  -2.415  -2.783  0.00  0.00    -0.003 A 
ATOM      2  C   UNL     1       3.931  -3.417  -3.111  0.00  0.00    +0.011 A 
ATOM      3  C   UNL     1       3.990  -4.637  -2.463  0.00  0.00    -0.043 A 
ATOM      4  C   UNL     1       4.943  -4.858  -1.486  0.00  0.00    +0.007 A 
ATOM      5  C   UNL     1       5.839  -3.860  -1.155  0.00  0.00    +0.046 A 
ATOM      6  C   UNL     1       5.785  -2.636  -1.807  0.00  0.00    +0.120 A 
ENDROOT
BRANCH   6   7
ATOM      7  O   UNL     1       6.668  -1.655  -1.487  0.00  0.00    -0.506 OA
ATOM      8  H   UNL     1       6.367  -1.070  -0.778  0.00  0.00    +0.292 HD
ENDBRANCH   6   7
BRANCH   1   9
ATOM      9  C   UNL     1       4.759  -1.086  -3.489  0.00  0.00    +0.072 C 
BRANCH   9  10
ATOM     10  CA  UNL     1       4.035  -0.071  -2.601  0.00  0.00    +0.193 C 
BRANCH  10  13
ATOM     11  C   UNL     1       1.952  -0.085  -1.337  0.00  0.00    +0.401 C 
ATOM     12  O   UNL     1       2.488   0.619  -0.503  0.00  0.00    -0.226 OA
ATOM     13  N   UNL     1       2.641  -0.485  -2.424  0.00  0.00    -0.267 N 
ATOM     14  H   UNL     1       2.213  -1.047  -3.089  0.00  0.00    +0.153 HD
BRANCH  11  15
ATOM     15  O   UNL     1       0.671  -0.465  -1.174  0.00  0.00    -0.445 OA
BRANCH  15  17
ATOM     16  C   UNL     1      -0.019   1.526   0.010  0.00  0.00    +0.055 C 
ATOM     17  C   UNL     1       0.002  -0.004   0.002  0.00  0.00    +0.107 C 
ATOM     18  C   UNL     1       0.742  -0.511   1.242  0.00  0.00    +0.055 C 
ATOM     19  C   UNL     1      -1.433  -0.534   0.013  0.00  0.00    +0.055 C 
ENDBRANCH  15  17
ENDBRANCH  11  15
ENDBRANCH  10  13
BRANCH  10  20
ATOM     20  C   UNL     1       4.077   1.287  -3.253  0.00  0.00    +0.376 C 
ATOM     21  O   UNL     1       5.001   2.047  -3.018  0.00  0.00    -0.244 OA
ATOM     22  OXT UNL     1       3.187   1.625  -4.015  0.00  0.00    -0.244 OA
ENDBRANCH  10  20
ENDBRANCH   9  10
ENDBRANCH   1   9
BRANCH   3  23
ATOM     23  C   UNL     1       3.014  -5.727  -2.821  0.00  0.00    +0.070 C 
BRANCH  23  24
ATOM     24  C   UNL     1       3.589  -6.572  -3.929  0.00  0.00    -0.043 A 
ATOM     25  C   UNL     1       3.351  -6.236  -5.249  0.00  0.00    +0.004 A 
ATOM     26  C   UNL     1       3.879  -7.011  -6.265  0.00  0.00    +0.000 A 
ATOM     27  C   UNL     1       4.644  -8.121  -5.961  0.00  0.00    +0.000 A 
ATOM     28  C   UNL     1       4.882  -8.457  -4.641  0.00  0.00    +0.000 A 
ATOM     29  C   UNL     1       4.358  -7.679  -3.625  0.00  0.00    +0.004 A 
ENDBRANCH  23  24
ENDBRANCH   3  23
TORSDOF 9
