REMARK  Name = ZINC39607174
REMARK  11 active torsions:
REMARK  status: ('A' for Active; 'I' for Inactive)
REMARK    1  A    between atoms: C_1  and  C_2
REMARK    2  A    between atoms: C_5  and  C_9
REMARK    3  A    between atoms: C_6  and  C_8
REMARK    4  A    between atoms: C_9  and  N_10
REMARK    5  A    between atoms: C_11  and  C_13
REMARK    6  A    between atoms: C_24  and  C_26
REMARK    7  A    between atoms: C_28  and  C_35
REMARK    8  A    between atoms: N_30  and  C_31
REMARK    9  A    between atoms: C_31  and  C_32
REMARK   10  A    between atoms: C_31  and  C_33
REMARK   11  A    between atoms: C_31  and  C_34
REMARK                            x       y       z     vdW  Elec       q    Type
REMARK                         _______ _______ _______ _____ _____    ______ ____
ROOT
ATOM      1  C   UNL     1      -2.498  -6.957   0.412  0.00  0.00    +0.100 C 
ATOM      2  C   UNL     1      -3.484  -6.461  -0.669  0.00  0.00    +0.121 C 
ATOM      3  N   UNL     1      -3.644  -7.614  -1.587  0.00  0.00    -0.295 N 
ATOM      4  C   UNL     1      -3.680  -8.795  -0.692  0.00  0.00    +0.115 C 
ATOM      5  C   UNL     1      -2.632  -8.489   0.397  0.00  0.00    -0.004 C 
ATOM      6  C   UNL     1      -3.117  -8.991   1.753  0.00  0.00    -0.010 C 
ATOM      7  C   UNL     1      -3.187 -10.520   1.732  0.00  0.00    -0.082 C 
ATOM      8  N   UNL     1      -1.859 -11.068   1.431  0.00  0.00    +0.379 N 
ATOM      9  C   UNL     1      -1.440 -10.657   0.086  0.00  0.00    -0.082 C 
ATOM     10  C   UNL     1      -1.296  -9.133   0.038  0.00  0.00    -0.010 C 
ATOM     11  C   UNL     1      -3.736  -7.593  -2.931  0.00  0.00    +0.265 C 
ATOM     12  O   UNL     1      -3.856  -8.634  -3.549  0.00  0.00    -0.268 OA
ATOM     13  H   UNL     1      -1.194 -10.726   2.109  0.00  0.00    -0.086 HD
ATOM     14  H   UNL     1      -1.893 -12.076   1.478  0.00  0.00    -0.086 HD
ENDROOT
BRANCH  11  15
ATOM     15  C   UNL     1      -3.692  -6.310  -3.652  0.00  0.00    +0.124 A 
ATOM     16  C   UNL     1      -3.772  -5.044  -3.099  0.00  0.00    +0.057 A 
ATOM     17  C   UNL     1      -3.684  -4.163  -4.180  0.00  0.00    +0.061 A 
ATOM     18  N   UNL     1      -3.563  -4.876  -5.270  0.00  0.00    -0.175 NA
ATOM     19  N   UNL     1      -3.558  -6.131  -4.999  0.00  0.00    -0.254 N 
ATOM     20  C   UNL     1      -3.724  -2.658  -4.103  0.00  0.00    +0.067 C 
BRANCH  19  21
ATOM     21  C   UNL     1      -3.431  -7.207  -5.986  0.00  0.00    +0.056 C 
ATOM     22  C   UNL     1      -4.714  -8.041  -5.998  0.00  0.00    +0.036 C 
ATOM     23  C   UNL     1      -3.202  -6.604  -7.372  0.00  0.00    +0.036 C 
ATOM     24  C   UNL     1      -2.246  -8.101  -5.616  0.00  0.00    +0.036 C 
ENDBRANCH  19  21
ENDBRANCH  11  15
BRANCH   1  26
ATOM     25  N   UNL     1      -0.146  -6.497   1.024  0.00  0.00    -0.311 N 
ATOM     26  C   UNL     1      -1.089  -6.550   0.063  0.00  0.00    +0.218 C 
ATOM     27  O   UNL     1      -0.804  -6.271  -1.082  0.00  0.00    -0.275 OA
ATOM     28  H   UNL     1      -0.388  -6.651   1.951  0.00  0.00    +0.149 HD
BRANCH  25  29
ATOM     29  C   UNL     1       1.246  -6.206   0.670  0.00  0.00    +0.139 C 
BRANCH  29  34
ATOM     30  C   UNL     1       4.488  -6.198   5.453  0.00  0.00    +0.044 C 
ATOM     31  C   UNL     1       3.643  -6.200   4.205  0.00  0.00    -0.050 A 
ATOM     32  C   UNL     1       3.218  -5.005   3.656  0.00  0.00    +0.004 A 
ATOM     33  C   UNL     1       2.442  -5.006   2.512  0.00  0.00    +0.006 A 
ATOM     34  C   UNL     1       2.092  -6.204   1.917  0.00  0.00    -0.027 A 
ATOM     35  C   UNL     1       2.518  -7.399   2.465  0.00  0.00    -0.046 A 
ATOM     36  C   UNL     1       3.297  -7.397   3.607  0.00  0.00    +0.007 A 
ATOM     37  C   UNL     1       2.135  -8.704   1.816  0.00  0.00    +0.044 C 
ENDBRANCH  29  34
ENDBRANCH  25  29
ENDBRANCH   1  26
TORSDOF 5
