REMARK  Name = ZINC00793330
REMARK  9 active torsions:
REMARK  status: ('A' for Active; 'I' for Inactive)
REMARK    1  A    between atoms: C_1  and  C_2
REMARK    2  A    between atoms: C_3  and  C_18
REMARK    3  A    between atoms: C_4  and  C_10
REMARK    4  A    between atoms: C_13  and  S_16
REMARK    5  A    between atoms: S_16  and  C_17
REMARK    6  A    between atoms: C_18  and  O_20
REMARK    7  A    between atoms: O_20  and  C_21
REMARK    8  A    between atoms: C_21  and  C_22
REMARK    9  A    between atoms: C_21  and  C_23
REMARK                            x       y       z     vdW  Elec       q    Type
REMARK                         _______ _______ _______ _____ _____    ______ ____
ROOT
ATOM      1  C   UNL     1      -2.408   2.788   2.503  0.00  0.00    +0.061 C 
ATOM      2  C   UNL     1      -1.746   2.317   1.234  0.00  0.00    +0.021 C 
ATOM      3  C   UNL     1      -0.647   1.537   1.308  0.00  0.00    +0.078 C 
ATOM      4  C   UNL     1      -0.013   1.086   0.008  0.00  0.00    +0.143 C 
ATOM      5  N   UNL     1      -0.653   1.538  -1.238  0.00  0.00    -0.288 N 
ATOM      6  C   UNL     1      -1.750   2.316  -1.151  0.00  0.00    +0.304 C 
ATOM      7  O   UNL     1      -2.286   2.695  -2.174  0.00  0.00    -0.252 OA
ATOM      8  N   UNL     1      -2.269   2.685   0.027  0.00  0.00    -0.273 N 
ATOM      9  H   UNL     1      -0.294   1.282  -2.103  0.00  0.00    +0.151 HD
ATOM     10  H   UNL     1      -3.060   3.246   0.023  0.00  0.00    +0.156 HD
ENDROOT
BRANCH   4  11
ATOM     11  C   UNL     1       1.416   1.566  -0.003  0.00  0.00    -0.022 A 
ATOM     12  C   UNL     1       1.708   2.853  -0.414  0.00  0.00    +0.007 A 
ATOM     13  C   UNL     1       3.015   3.299  -0.420  0.00  0.00    +0.015 A 
ATOM     14  C   UNL     1       4.039   2.447  -0.023  0.00  0.00    +0.008 A 
ATOM     15  C   UNL     1       3.742   1.152   0.384  0.00  0.00    +0.015 A 
ATOM     16  C   UNL     1       2.432   0.716   0.393  0.00  0.00    +0.007 A 
BRANCH  14  17
ATOM     17  S   UNL     1       5.709   3.008  -0.036  0.00  0.00    -0.129 S 
ATOM     18  C   UNL     1       5.593   4.719  -0.628  0.00  0.00    +0.090 C 
ENDBRANCH  14  17
ENDBRANCH   4  11
BRANCH   3  19
ATOM     19  C   UNL     1      -0.106   1.154   2.558  0.00  0.00    +0.339 C 
ATOM     20  O   UNL     1      -0.632   1.528   3.589  0.00  0.00    -0.245 OA
BRANCH  19  21
ATOM     21  O   UNL     1       0.994   0.373   2.606  0.00  0.00    -0.459 OA
BRANCH  21  22
ATOM     22  C   UNL     1       1.485   0.025   3.901  0.00  0.00    +0.171 C 
ATOM     23  C   UNL     1       2.167  -1.344   3.837  0.00  0.00    +0.052 C 
ATOM     24  C   UNL     1       2.496   1.077   4.363  0.00  0.00    +0.052 C 
ENDBRANCH  21  22
ENDBRANCH  19  21
ENDBRANCH   3  19
TORSDOF 5
