REMARK  Name = ZINC39361584
REMARK  8 active torsions:
REMARK  status: ('A' for Active; 'I' for Inactive)
REMARK    1  A    between atoms: C_4  and  N_7
REMARK    2  A    between atoms: C_8  and  C_26
REMARK    3  A    between atoms: C_12  and  S_13
REMARK    4  A    between atoms: S_13  and  C_14
REMARK    5  A    between atoms: C_14  and  C_15
REMARK    6  A    between atoms: N_17  and  C_18
REMARK    7  A    between atoms: C_18  and  C_19
REMARK    8  A    between atoms: C_26  and  C_27
REMARK                            x       y       z     vdW  Elec       q    Type
REMARK                         _______ _______ _______ _____ _____    ______ ____
ROOT
ATOM      1  N   UNL     1       3.620  -0.649  -0.037  0.00  0.00    -0.258 N 
ATOM      2  C   UNL     1       3.817  -2.106   0.050  0.00  0.00    +0.187 C 
ATOM      3  N   UNL     1       5.280  -2.270  -0.013  0.00  0.00    -0.246 N 
ATOM      4  N   UNL     1       5.812  -0.980  -0.127  0.00  0.00    -0.162 NA
ATOM      5  C   UNL     1       4.883  -0.085  -0.145  0.00  0.00    +0.180 C 
ATOM      6  H   UNL     1       5.774  -3.104   0.018  0.00  0.00    +0.170 HD
ENDROOT
BRANCH   1  10
ATOM      7  C   UNL     1      -0.016   1.380   0.011  0.00  0.00    +0.000 A 
ATOM      8  C   UNL     1       0.414   0.708   1.141  0.00  0.00    +0.002 A 
ATOM      9  C   UNL     1       1.620   0.034   1.128  0.00  0.00    +0.023 A 
ATOM     10  C   UNL     1       2.400   0.031  -0.021  0.00  0.00    +0.037 A 
ATOM     11  C   UNL     1       1.964   0.707  -1.154  0.00  0.00    +0.023 A 
ATOM     12  C   UNL     1       0.758   1.379  -1.135  0.00  0.00    +0.002 A 
ENDBRANCH   1  10
BRANCH   5  13
ATOM     13  S   UNL     1       5.183   1.646  -0.284  0.00  0.00    -0.079 S 
BRANCH  13  14
ATOM     14  C   UNL     1       6.989   1.772  -0.389  0.00  0.00    +0.172 C 
BRANCH  14  15
ATOM     15  C   UNL     1       7.386   3.220  -0.513  0.00  0.00    +0.224 C 
ATOM     16  O   UNL     1       6.533   4.083  -0.529  0.00  0.00    -0.275 OA
ATOM     17  N   UNL     1       8.687   3.557  -0.606  0.00  0.00    -0.310 N 
ATOM     18  H   UNL     1       9.369   2.867  -0.594  0.00  0.00    +0.149 HD
BRANCH  17  19
ATOM     19  C   UNL     1       9.073   4.965  -0.727  0.00  0.00    +0.141 C 
BRANCH  19  20
ATOM     20  C   UNL     1      10.573   5.070  -0.815  0.00  0.00    -0.012 A 
ATOM     21  C   UNL     1      11.310   5.403   0.307  0.00  0.00    +0.006 A 
ATOM     22  C   UNL     1      12.686   5.498   0.227  0.00  0.00    +0.000 A 
ATOM     23  C   UNL     1      13.328   5.262  -0.975  0.00  0.00    +0.001 A 
ATOM     24  C   UNL     1      12.593   4.929  -2.096  0.00  0.00    +0.020 A 
ATOM     25  C   UNL     1      11.215   4.827  -2.016  0.00  0.00    +0.046 A 
ATOM     26 CL   UNL     1      10.292   4.403  -3.423  0.00  0.00    -0.083 Cl
ENDBRANCH  19  20
ENDBRANCH  17  19
ENDBRANCH  14  15
ENDBRANCH  13  14
ENDBRANCH   5  13
BRANCH   2  27
ATOM     27  C   UNL     1       3.143  -2.811  -1.129  0.00  0.00    +0.097 C 
BRANCH  27  28
ATOM     28  C   UNL     1       3.253  -4.303  -0.953  0.00  0.00    +0.029 A 
ATOM     29  N   UNL     1       4.379  -4.963  -1.365  0.00  0.00    -0.311 N 
ATOM     30  C   UNL     1       4.487  -6.295  -1.212  0.00  0.00    +0.327 A 
ATOM     31  O   UNL     1       5.496  -6.862  -1.586  0.00  0.00    -0.247 OA
ATOM     32  N   UNL     1       3.494  -7.010  -0.649  0.00  0.00    -0.275 N 
ATOM     33  C   UNL     1       2.369  -6.397  -0.229  0.00  0.00    +0.254 A 
ATOM     34  O   UNL     1       1.471  -7.042   0.280  0.00  0.00    -0.268 OA
ATOM     35  C   UNL     1       2.244  -4.995  -0.381  0.00  0.00    +0.091 A 
ATOM     36  H   UNL     1       3.589  -7.970  -0.546  0.00  0.00    +0.173 HD
ATOM     37  H   UNL     1       5.105  -4.466  -1.773  0.00  0.00    +0.170 HD
ENDBRANCH  27  28
ENDBRANCH   2  27
TORSDOF 8
