REMARK  Name = ZINC16397711
REMARK  8 active torsions:
REMARK  status: ('A' for Active; 'I' for Inactive)
REMARK    1  A    between atoms: C_1  and  C_2
REMARK    2  A    between atoms: C_2  and  N_3
REMARK    3  A    between atoms: C_12  and  S_14
REMARK    4  A    between atoms: S_14  and  C_15
REMARK    5  A    between atoms: C_15  and  C_17
REMARK    6  A    between atoms: C_15  and  C_18
REMARK    7  A    between atoms: C_30  and  C_31
REMARK    8  A    between atoms: C_30  and  C_32
REMARK                            x       y       z     vdW  Elec       q    Type
REMARK                         _______ _______ _______ _____ _____    ______ ____
ROOT
ATOM      1  C   UNL     1      -0.744  -6.534   0.319  0.00  0.00    +0.137 C 
ATOM      2  C   UNL     1      -1.105  -6.824  -1.139  0.00  0.00    +0.029 C 
ENDROOT
BRANCH   1   3
ATOM      3  C   UNL     1       0.549  -7.226   0.664  0.00  0.00    +0.234 C 
ATOM      4  O   UNL     1       1.524  -6.572   0.971  0.00  0.00    -0.274 OA
ATOM      5  N   UNL     1       0.623  -8.571   0.633  0.00  0.00    -0.255 N 
ATOM      6  C   UNL     1       1.855  -9.232   0.758  0.00  0.00    +0.059 A 
ATOM      7  C   UNL     1       3.030  -8.641   0.330  0.00  0.00    +0.025 A 
ATOM      8  C   UNL     1       4.228  -9.319   0.463  0.00  0.00    +0.002 A 
ATOM      9  C   UNL     1       4.252 -10.584   1.021  0.00  0.00    +0.002 A 
ATOM     10  C   UNL     1       3.081 -11.181   1.452  0.00  0.00    +0.025 A 
ATOM     11  C   UNL     1       1.877 -10.508   1.325  0.00  0.00    +0.055 A 
ATOM     12  N   UNL     1       0.682 -11.089   1.764  0.00  0.00    -0.282 N 
ATOM     13  C   UNL     1      -0.508 -10.574   1.401  0.00  0.00    +0.241 C 
ATOM     14  O   UNL     1      -1.530 -11.067   1.829  0.00  0.00    -0.273 OA
ATOM     15  C   UNL     1      -0.586  -9.394   0.472  0.00  0.00    +0.113 C 
ATOM     16  C   UNL     1      -1.822  -8.559   0.810  0.00  0.00    +0.042 C 
ATOM     17  C   UNL     1      -0.680  -9.889  -0.972  0.00  0.00    +0.042 C 
ATOM     18  H   UNL     1       0.712 -11.870   2.338  0.00  0.00    +0.155 HD
ENDBRANCH   1   3
BRANCH   1  19
ATOM     19  S   UNL     1      -0.553  -4.745   0.550  0.00  0.00    -0.073 S 
BRANCH  19  29
ATOM     20  N   UNL     1      -3.731  -0.883   0.242  0.00  0.00    -0.329 N 
ATOM     21  C   UNL     1      -3.547  -2.246   0.140  0.00  0.00    +0.131 A 
ATOM     22  C   UNL     1      -4.627  -3.102  -0.193  0.00  0.00    +0.040 A 
ATOM     23  C   UNL     1      -5.916  -2.612  -0.431  0.00  0.00    +0.013 A 
ATOM     24  C   UNL     1      -6.918  -3.482  -0.748  0.00  0.00    +0.001 A 
ATOM     25  C   UNL     1      -6.676  -4.849  -0.837  0.00  0.00    +0.002 A 
ATOM     26  C   UNL     1      -5.431  -5.358  -0.610  0.00  0.00    +0.028 A 
ATOM     27  C   UNL     1      -4.379  -4.493  -0.283  0.00  0.00    +0.077 A 
ATOM     28  N   UNL     1      -3.137  -4.944  -0.051  0.00  0.00    -0.222 NA
ATOM     29  C   UNL     1      -2.167  -4.102   0.255  0.00  0.00    +0.191 A 
ATOM     30  N   UNL     1      -2.356  -2.788   0.345  0.00  0.00    -0.206 NA
ATOM     31  H   UNL     1      -4.608  -0.500   0.089  0.00  0.00    +0.147 HD
BRANCH  20  33
ATOM     32  C   UNL     1      -3.071   1.440   0.629  0.00  0.00    +0.024 C 
ATOM     33  C   UNL     1      -2.600  -0.015   0.581  0.00  0.00    +0.099 C 
ENDBRANCH  20  33
ENDBRANCH  19  29
ENDBRANCH   1  19
TORSDOF 4
