REMARK  Name = ZINC42791472
REMARK  6 active torsions:
REMARK  status: ('A' for Active; 'I' for Inactive)
REMARK    1  A    between atoms: C_1  and  C_2
REMARK    2  A    between atoms: C_2  and  C_3
REMARK    3  A    between atoms: C_2  and  O_16
REMARK    4  A    between atoms: C_3  and  N_5
REMARK    5  A    between atoms: O_16  and  C_17
REMARK    6  A    between atoms: C_17  and  C_18
REMARK                            x       y       z     vdW  Elec       q    Type
REMARK                         _______ _______ _______ _____ _____    ______ ____
ROOT
ATOM      1  N   UNL     1      -2.214  -0.294  -1.022  0.00  0.00    -0.145 NA
ATOM      2  C   UNL     1      -3.428  -0.837  -1.058  0.00  0.00    +0.199 A 
ATOM      3  N   UNL     1      -3.996  -1.559  -0.057  0.00  0.00    -0.326 N 
ATOM      4  H   UNL     1      -3.588  -1.764   0.799  0.00  0.00    +0.169 HD
ATOM      5  C   UNL     1      -5.265  -1.953  -0.470  0.00  0.00    +0.065 A 
ATOM      6  C   UNL     1      -6.270  -2.694   0.135  0.00  0.00    +0.028 A 
ATOM      7  C   UNL     1      -7.452  -2.928  -0.539  0.00  0.00    +0.002 A 
ATOM      8  C   UNL     1      -7.639  -2.427  -1.816  0.00  0.00    +0.002 A 
ATOM      9  C   UNL     1      -6.644  -1.690  -2.427  0.00  0.00    +0.028 A 
ATOM     10  C   UNL     1      -5.453  -1.448  -1.758  0.00  0.00    +0.065 A 
ATOM     11  N   UNL     1      -4.297  -0.753  -2.099  0.00  0.00    -0.326 N 
ATOM     12  H   UNL     1      -4.138  -0.290  -2.936  0.00  0.00    +0.169 HD
ENDROOT
BRANCH   1  13
ATOM     13  C   UNL     1      -1.407  -0.537   0.006  0.00  0.00    +0.268 C 
ATOM     14  O   UNL     1      -1.810  -1.177   0.958  0.00  0.00    -0.271 OA
BRANCH  13  16
ATOM     15  C   UNL     1      -0.007   1.510   0.013  0.00  0.00    +0.048 C 
ATOM     16  C   UNL     1       0.009  -0.019  -0.008  0.00  0.00    +0.203 C 
BRANCH  16  17
ATOM     17  O   UNL     1       0.705  -0.505   1.141  0.00  0.00    -0.359 OA
BRANCH  17  18
ATOM     18  C   UNL     1       2.109  -0.681   0.939  0.00  0.00    +0.274 C 
BRANCH  18  19
ATOM     19  C   UNL     1       2.748  -1.201   2.228  0.00  0.00    +0.413 C 
ATOM     20  F   UNL     1       2.170  -2.427   2.574  0.00  0.00    -0.168 F 
ATOM     21  F   UNL     1       4.122  -1.374   2.030  0.00  0.00    -0.168 F 
ATOM     22  F   UNL     1       2.538  -0.278   3.258  0.00  0.00    -0.168 F 
ENDBRANCH  18  19
ENDBRANCH  17  18
ENDBRANCH  16  17
ENDBRANCH  13  16
ENDBRANCH   1  13
TORSDOF 5
