REMARK  Name = ZINC42569682
REMARK  8 active torsions:
REMARK  status: ('A' for Active; 'I' for Inactive)
REMARK    1  A    between atoms: C_1  and  C_2
REMARK    2  A    between atoms: C_2  and  C_3
REMARK    3  A    between atoms: C_2  and  C_4
REMARK    4  A    between atoms: C_2  and  C_5
REMARK    5  A    between atoms: C_8  and  S_10
REMARK    6  A    between atoms: S_10  and  C_11
REMARK    7  A    between atoms: C_11  and  C_12
REMARK    8  A    between atoms: N_14  and  N_15
REMARK                            x       y       z     vdW  Elec       q    Type
REMARK                         _______ _______ _______ _____ _____    ______ ____
ROOT
ATOM      1  C   UNL     1       2.694  -3.014  -6.651  0.00  0.00    +0.240 C 
ATOM      2  O   UNL     1       1.704  -3.603  -7.028  0.00  0.00    -0.273 OA
ATOM      3  N   UNL     1       3.821  -3.045  -7.390  0.00  0.00    -0.223 N 
ATOM      4  H   UNL     1       4.613  -2.574  -7.088  0.00  0.00    +0.174 HD
ENDROOT
BRANCH   3   5
ATOM      5  N   UNL     1       3.847  -3.760  -8.595  0.00  0.00    -0.137 N 
ATOM      6  C   UNL     1       4.455  -4.953  -8.756  0.00  0.00    +0.263 C 
ATOM      7  O   UNL     1       5.060  -5.587  -7.918  0.00  0.00    -0.271 OA
ATOM      8  C   UNL     1       4.224  -5.332 -10.201  0.00  0.00    +0.114 C 
ATOM      9  C   UNL     1       3.430  -6.631 -10.289  0.00  0.00    +0.035 C 
ATOM     10  C   UNL     1       3.181  -6.981 -11.758  0.00  0.00    +0.003 C 
ATOM     11  C   UNL     1       4.522  -7.133 -12.480  0.00  0.00    +0.000 C 
ATOM     12  C   UNL     1       5.296  -5.816 -12.403  0.00  0.00    +0.003 C 
ATOM     13  C   UNL     1       5.554  -5.461 -10.936  0.00  0.00    +0.035 C 
ATOM     14  N   UNL     1       3.443  -4.214 -10.743  0.00  0.00    -0.284 N 
ATOM     15  C   UNL     1       3.267  -3.345  -9.729  0.00  0.00    +0.326 C 
ATOM     16  O   UNL     1       2.654  -2.301  -9.831  0.00  0.00    -0.251 OA
ATOM     17  H   UNL     1       3.115  -4.120 -11.651  0.00  0.00    +0.151 HD
ENDBRANCH   3   5
BRANCH   1  18
ATOM     18  C   UNL     1       2.666  -2.245  -5.354  0.00  0.00    +0.176 C 
BRANCH  18  19
ATOM     19  S   UNL     1       1.023  -2.394  -4.600  0.00  0.00    -0.056 S 
BRANCH  19  23
ATOM     20  C   UNL     1       0.707  -0.490  -1.238  0.00  0.00    +0.223 A 
ATOM     21  N   UNL     1       1.940  -0.237  -1.570  0.00  0.00    -0.111 NA
ATOM     22  N   UNL     1       2.210  -0.811  -2.689  0.00  0.00    -0.101 NA
ATOM     23  C   UNL     1       1.150  -1.455  -3.114  0.00  0.00    +0.278 A 
ATOM     24  O   UNL     1       0.178  -1.270  -2.201  0.00  0.00    -0.415 OA
BRANCH  20  26
ATOM     25  C   UNL     1      -0.019   1.526   0.010  0.00  0.00    +0.020 C 
ATOM     26  C   UNL     1       0.002  -0.004   0.002  0.00  0.00    +0.040 C 
ATOM     27  C   UNL     1       0.742  -0.511   1.242  0.00  0.00    +0.020 C 
ATOM     28  C   UNL     1      -1.433  -0.534   0.013  0.00  0.00    +0.020 C 
ENDBRANCH  20  26
ENDBRANCH  19  23
ENDBRANCH  18  19
ENDBRANCH   1  18
TORSDOF 5
