REMARK  Name = ZINC25283326
REMARK  7 active torsions:
REMARK  status: ('A' for Active; 'I' for Inactive)
REMARK    1  A    between atoms: C_4  and  C_7
REMARK    2  A    between atoms: C_7  and  C_8
REMARK    3  A    between atoms: C_8  and  C_10
REMARK    4  A    between atoms: C_8  and  N_16
REMARK    5  A    between atoms: C_17  and  C_19
REMARK    6  A    between atoms: C_22  and  N_28
REMARK    7  A    between atoms: C_23  and  N_25
REMARK                            x       y       z     vdW  Elec       q    Type
REMARK                         _______ _______ _______ _____ _____    ______ ____
ROOT
ATOM      1  N   UNL     1       1.185   0.571   2.028  0.00  0.00    -0.304 N 
ATOM      2  C   UNL     1       1.258   0.486   3.371  0.00  0.00    +0.245 C 
ATOM      3  O   UNL     1       0.252   0.285   4.023  0.00  0.00    -0.270 OA
ATOM      4  H   UNL     1       2.096   0.754   1.438  0.00  0.00    +0.150 HD
ENDROOT
BRANCH   2   5
ATOM      5  C   UNL     1       2.559   0.638   4.050  0.00  0.00    +0.039 A 
ATOM      6  C   UNL     1       3.718   0.865   3.301  0.00  0.00    +0.015 A 
ATOM      7  C   UNL     1       4.929   1.012   3.938  0.00  0.00    +0.026 A 
ATOM      8  C   UNL     1       5.002   0.924   5.326  0.00  0.00    +0.055 A 
ATOM      9  C   UNL     1       3.851   0.693   6.074  0.00  0.00    +0.147 A 
ATOM     10  C   UNL     1       2.636   0.551   5.443  0.00  0.00    +0.047 A 
BRANCH   9  11
ATOM     11  N   UNL     1       3.934   0.601   7.549  0.00  0.00    +0.058 N 
ATOM     12  O   UNL     1       2.950   0.287   8.195  0.00  0.00    -0.126 OA
ATOM     13  O   UNL     1       4.985   0.839   8.116  0.00  0.00    -0.126 OA
ENDBRANCH   9  11
BRANCH   8  14
ATOM     14  N   UNL     1       6.228   1.067   5.966  0.00  0.00    -0.356 N 
ATOM     15  H   UNL     1       6.288   0.999   7.062  0.00  0.00    +0.142 HD
ATOM     16  H   UNL     1       7.139   1.250   5.376  0.00  0.00    +0.142 HD
ENDBRANCH   8  14
ENDBRANCH   2   5
BRANCH   1  17
ATOM     17  C   UNL     1      -0.106   0.420   1.353  0.00  0.00    +0.108 C 
BRANCH  17  18
ATOM     18  C   UNL     1      -0.389  -1.043   1.132  0.00  0.00    -0.027 A 
ATOM     19  C   UNL     1       0.629  -1.893   0.742  0.00  0.00    +0.005 A 
ATOM     20  C   UNL     1       0.370  -3.236   0.543  0.00  0.00    +0.000 A 
ATOM     21  C   UNL     1      -0.909  -3.728   0.725  0.00  0.00    +0.000 A 
ATOM     22  C   UNL     1      -1.928  -2.877   1.110  0.00  0.00    +0.000 A 
ATOM     23  C   UNL     1      -1.669  -1.535   1.313  0.00  0.00    +0.005 A 
ENDBRANCH  17  18
BRANCH  17  24
ATOM     24  C   UNL     1      -0.065   1.141   0.004  0.00  0.00    +0.062 C 
BRANCH  24  28
ATOM     25  C   UNL     1       0.390   5.340   0.647  0.00  0.00    +0.000 A 
ATOM     26  C   UNL     1       1.507   4.536   0.514  0.00  0.00    +0.000 A 
ATOM     27  C   UNL     1       1.360   3.177   0.306  0.00  0.00    +0.004 A 
ATOM     28  C   UNL     1       0.096   2.623   0.232  0.00  0.00    -0.045 A 
ATOM     29  C   UNL     1      -1.021   3.427   0.360  0.00  0.00    +0.004 A 
ATOM     30  C   UNL     1      -0.874   4.785   0.573  0.00  0.00    +0.000 A 
ENDBRANCH  24  28
ENDBRANCH  17  24
ENDBRANCH   1  17
TORSDOF 7
