REMARK  Name = ZINC02328636
REMARK  5 active torsions:
REMARK  status: ('A' for Active; 'I' for Inactive)
REMARK    1  A    between atoms: C_3  and  C_9
REMARK    2  A    between atoms: C_11  and  C_26
REMARK    3  A    between atoms: C_12  and  S_21
REMARK    4  A    between atoms: S_21  and  C_22
REMARK    5  A    between atoms: C_22  and  C_23
REMARK                            x       y       z     vdW  Elec       q    Type
REMARK                         _______ _______ _______ _____ _____    ______ ____
ROOT
ATOM      1  C   UNL     1       3.671   2.186  -0.023  0.00  0.00    +0.098 C 
ATOM      2  C   UNL     1       3.727   3.038  -1.256  0.00  0.00    +0.069 C 
ATOM      3  C   UNL     1       3.477   4.374  -1.198  0.00  0.00    +0.080 C 
ATOM      4  N   UNL     1       3.174   4.967   0.005  0.00  0.00    -0.311 N 
ATOM      5  C   UNL     1       3.499   4.354   1.185  0.00  0.00    +0.016 C 
ATOM      6  C   UNL     1       3.752   3.030   1.224  0.00  0.00    +0.024 C 
ATOM      7  C   UNL     1       4.101   2.397   2.430  0.00  0.00    +0.162 C 
ATOM      8  O   UNL     1       4.317   1.201   2.434  0.00  0.00    -0.292 OA
ATOM      9  C   UNL     1       4.212   3.171   3.715  0.00  0.00    +0.080 C 
ATOM     10  C   UNL     1       4.600   4.618   3.393  0.00  0.00    +0.014 C 
ATOM     11  C   UNL     1       3.560   5.196   2.436  0.00  0.00    +0.051 C 
ATOM     12  H   UNL     1       2.727   5.828   0.018  0.00  0.00    +0.152 HD
ENDROOT
BRANCH   1  15
ATOM     13  C   UNL     1      -0.017   1.378   0.010  0.00  0.00    +0.002 A 
ATOM     14  C   UNL     1       1.171   2.086   0.002  0.00  0.00    +0.006 A 
ATOM     15  C   UNL     1       2.378   1.413  -0.013  0.00  0.00    -0.015 A 
ATOM     16  C   UNL     1       2.398   0.030  -0.021  0.00  0.00    +0.063 A 
ATOM     17  C   UNL     1       1.209  -0.679  -0.013  0.00  0.00    +0.060 A 
ATOM     18  C   UNL     1       0.002  -0.004   0.002  0.00  0.00    +0.021 A 
ATOM     19 CL   UNL     1       1.234  -2.415  -0.023  0.00  0.00    -0.082 Cl
ATOM     20 CL   UNL     1       3.914  -0.816  -0.041  0.00  0.00    -0.082 Cl
ENDBRANCH   1  15
BRANCH   2  21
ATOM     21  C   UNL     1       4.048   2.436  -2.515  0.00  0.00    +0.098 C 
ATOM     22  N   UNL     1       4.303   1.958  -3.514  0.00  0.00    -0.191 NA
ENDBRANCH   2  21
BRANCH   3  23
ATOM     23  S   UNL     1       3.541   5.345  -2.667  0.00  0.00    -0.100 S 
BRANCH  23  24
ATOM     24  C   UNL     1       3.147   7.023  -2.101  0.00  0.00    +0.171 C 
BRANCH  24  25
ATOM     25  C   UNL     1       3.168   7.967  -3.275  0.00  0.00    +0.221 C 
ATOM     26  O   UNL     1       3.424   7.550  -4.385  0.00  0.00    -0.275 OA
ATOM     27  N   UNL     1       2.903   9.276  -3.092  0.00  0.00    -0.329 N 
ATOM     28  H   UNL     1       2.698   9.610  -2.205  0.00  0.00    +0.145 HD
ATOM     29  H   UNL     1       2.917   9.884  -3.848  0.00  0.00    +0.145 HD
ENDBRANCH  24  25
ENDBRANCH  23  24
ENDBRANCH   3  23
TORSDOF 5
