REMARK  Name = ZINC13920648
REMARK  8 active torsions:
REMARK  status: ('A' for Active; 'I' for Inactive)
REMARK    1  A    between atoms: C_1  and  C_2
REMARK    2  A    between atoms: C_2  and  O_3
REMARK    3  A    between atoms: O_3  and  C_4
REMARK    4  A    between atoms: C_6  and  C_12
REMARK    5  A    between atoms: C_9  and  O_10
REMARK    6  A    between atoms: C_14  and  C_21
REMARK    7  A    between atoms: C_15  and  C_20
REMARK    8  A    between atoms: C_21  and  C_23
REMARK                            x       y       z     vdW  Elec       q    Type
REMARK                         _______ _______ _______ _____ _____    ______ ____
ROOT
ATOM      1  C   UNL     1      -1.094   1.501   0.248  0.00  0.00    +0.140 C 
ATOM      2  C   UNL     1      -1.853   1.445  -1.062  0.00  0.00    +0.041 C 
ATOM      3  C   UNL     1      -3.071   0.857  -1.059  0.00  0.00    +0.018 C 
ATOM      4  N   UNL     1      -3.596   0.331   0.086  0.00  0.00    -0.273 N 
ATOM      5  C   UNL     1      -2.969   0.353   1.269  0.00  0.00    +0.304 C 
ATOM      6  O   UNL     1      -3.518  -0.141   2.234  0.00  0.00    -0.252 OA
ATOM      7  N   UNL     1      -1.750   0.905   1.424  0.00  0.00    -0.288 N 
ATOM      8  C   UNL     1      -3.860   0.779  -2.341  0.00  0.00    +0.061 C 
ATOM      9  H   UNL     1      -4.473  -0.081   0.040  0.00  0.00    +0.156 HD
ATOM     10  H   UNL     1      -1.314   0.910   2.291  0.00  0.00    +0.151 HD
ENDROOT
BRANCH   1  13
ATOM     11  C   UNL     1       2.602   0.907  -0.264  0.00  0.00    +0.163 A 
ATOM     12  C   UNL     1       1.386   1.546  -0.076  0.00  0.00    +0.055 A 
ATOM     13  C   UNL     1       0.227   0.804   0.049  0.00  0.00    -0.018 A 
ATOM     14  C   UNL     1       0.276  -0.577  -0.013  0.00  0.00    +0.025 A 
ATOM     15  C   UNL     1       1.485  -1.221  -0.201  0.00  0.00    +0.063 A 
ATOM     16  C   UNL     1       2.651  -0.482  -0.327  0.00  0.00    +0.173 A 
ATOM     17 BR   UNL     1       1.548  -3.109  -0.287  0.00  0.00    -0.046 Br
BRANCH  16  18
ATOM     18  O   UNL     1       3.842  -1.114  -0.512  0.00  0.00    -0.503 OA
ATOM     19  H   UNL     1       4.069  -1.261  -1.441  0.00  0.00    +0.292 HD
ENDBRANCH  16  18
BRANCH  11  20
ATOM     20  O   UNL     1       3.743   1.636  -0.387  0.00  0.00    -0.489 OA
BRANCH  20  22
ATOM     21  C   UNL     1       5.011   3.693  -0.371  0.00  0.00    +0.048 C 
ATOM     22  C   UNL     1       3.636   3.047  -0.188  0.00  0.00    +0.226 C 
ENDBRANCH  20  22
ENDBRANCH  11  20
ENDBRANCH   1  13
BRANCH   2  23
ATOM     23  C   UNL     1      -1.308   1.991  -2.248  0.00  0.00    +0.193 C 
ATOM     24  O   UNL     1      -1.023   1.260  -3.180  0.00  0.00    -0.287 OA
BRANCH  23  25
ATOM     25  C   UNL     1      -1.082   3.449  -2.356  0.00  0.00    +0.022 A 
ATOM     26  C   UNL     1      -1.498   4.301  -1.332  0.00  0.00    +0.012 A 
ATOM     27  C   UNL     1      -1.280   5.659  -1.436  0.00  0.00    +0.001 A 
ATOM     28  C   UNL     1      -0.659   6.178  -2.558  0.00  0.00    +0.000 A 
ATOM     29  C   UNL     1      -0.249   5.340  -3.580  0.00  0.00    +0.001 A 
ATOM     30  C   UNL     1      -0.457   3.980  -3.485  0.00  0.00    +0.012 A 
ENDBRANCH  23  25
ENDBRANCH   2  23
TORSDOF 6
