REMARK  Name = ZINC37936866
REMARK  5 active torsions:
REMARK  status: ('A' for Active; 'I' for Inactive)
REMARK    1  A    between atoms: C_1  and  C_2
REMARK    2  A    between atoms: C_6  and  N_8
REMARK    3  A    between atoms: N_8  and  C_9
REMARK    4  A    between atoms: C_9  and  C_11
REMARK    5  A    between atoms: C_9  and  C_13
REMARK                            x       y       z     vdW  Elec       q    Type
REMARK                         _______ _______ _______ _____ _____    ______ ____
ROOT
ATOM      1  C   UNL     1       0.071  -4.261   2.379  0.00  0.00    +0.205 C 
ENDROOT
BRANCH   1   2
ATOM      2  C   UNL     1      -0.517  -4.781   3.666  0.00  0.00    -0.008 A 
ATOM      3  C   UNL     1      -1.341  -5.891   3.649  0.00  0.00    +0.056 A 
ATOM      4  C   UNL     1      -1.882  -6.371   4.831  0.00  0.00    +0.168 A 
ATOM      5  C   UNL     1      -1.593  -5.734   6.035  0.00  0.00    +0.184 A 
ATOM      6  C   UNL     1      -0.767  -4.621   6.045  0.00  0.00    +0.087 A 
ATOM      7  C   UNL     1      -0.225  -4.151   4.861  0.00  0.00    +0.030 A 
ATOM      8 CL   UNL     1      -0.404  -3.823   7.543  0.00  0.00    -0.080 Cl
ATOM      9  O   UNL     1      -2.239  -6.391   7.042  0.00  0.00    -0.451 OA
ATOM     10  C   UNL     1      -3.250  -7.187   6.396  0.00  0.00    +0.466 C 
ATOM     11  O   UNL     1      -2.708  -7.428   5.084  0.00  0.00    -0.453 OA
ENDBRANCH   1   2
BRANCH   1  12
ATOM     12  N   UNL     1       0.051  -2.796   2.390  0.00  0.00    -0.325 N 
ATOM     13  H   UNL     1       0.049  -2.318   3.234  0.00  0.00    +0.148 HD
BRANCH  12  19
ATOM     14  C   UNL     1      -0.018   1.503   0.010  0.00  0.00    +0.044 C 
ATOM     15  C   UNL     1       0.002  -0.004   0.002  0.00  0.00    -0.049 A 
ATOM     16  C   UNL     1       0.006  -0.688  -1.200  0.00  0.00    +0.003 A 
ATOM     17  C   UNL     1       0.024  -2.071  -1.212  0.00  0.00    +0.002 A 
ATOM     18  C   UNL     1       0.039  -2.773  -0.023  0.00  0.00    +0.023 A 
ATOM     19  C   UNL     1       0.036  -2.089   1.186  0.00  0.00    +0.029 A 
ATOM     20  C   UNL     1       0.023  -0.700   1.194  0.00  0.00    +0.026 A 
ENDBRANCH  12  19
ENDBRANCH   1  12
BRANCH   1  21
ATOM     21  C   UNL     1       1.459  -4.733   2.248  0.00  0.00    +0.090 C 
ATOM     22  N   UNL     1       2.530  -5.097   2.147  0.00  0.00    -0.194 NA
ENDBRANCH   1  21
TORSDOF 4
