REMARK  Name = ZINC39687299
REMARK  6 active torsions:
REMARK  status: ('A' for Active; 'I' for Inactive)
REMARK    1  A    between atoms: C_4  and  C_7
REMARK    2  A    between atoms: C_7  and  C_8
REMARK    3  A    between atoms: C_8  and  C_10
REMARK    4  A    between atoms: C_8  and  N_18
REMARK    5  A    between atoms: C_19  and  C_21
REMARK    6  A    between atoms: C_32  and  C_34
REMARK                            x       y       z     vdW  Elec       q    Type
REMARK                         _______ _______ _______ _____ _____    ______ ____
ROOT
ATOM      1  N   UNL     1       2.550   0.022   2.719  0.00  0.00    -0.303 N 
ATOM      2  C   UNL     1       2.688   1.150   1.995  0.00  0.00    +0.219 C 
ATOM      3  O   UNL     1       2.605   1.108   0.786  0.00  0.00    -0.275 OA
ATOM      4  H   UNL     1       2.558   0.064   3.688  0.00  0.00    +0.149 HD
ENDROOT
BRANCH   2   5
ATOM      5  C   UNL     1       2.947   2.463   2.688  0.00  0.00    +0.100 C 
ATOM      6  C   UNL     1       3.571   3.477   1.703  0.00  0.00    +0.121 C 
ATOM      7  N   UNL     1       2.420   4.258   1.191  0.00  0.00    -0.300 N 
ATOM      8  C   UNL     1       1.548   4.448   2.374  0.00  0.00    +0.115 C 
ATOM      9  C   UNL     1       1.621   3.106   3.129  0.00  0.00    -0.004 C 
ATOM     10  C   UNL     1       1.626   3.346   4.635  0.00  0.00    -0.010 C 
ATOM     11  C   UNL     1       0.275   3.931   5.059  0.00  0.00    -0.082 C 
ATOM     12  N   UNL     1      -0.799   3.000   4.695  0.00  0.00    +0.379 N 
ATOM     13  C   UNL     1      -0.857   2.846   3.236  0.00  0.00    -0.082 C 
ATOM     14  C   UNL     1       0.446   2.215   2.736  0.00  0.00    -0.010 C 
ATOM     15  C   UNL     1       2.214   4.698  -0.067  0.00  0.00    +0.219 C 
ATOM     16  O   UNL     1       1.259   5.403  -0.313  0.00  0.00    -0.275 OA
ATOM     17  H   UNL     1      -0.622   2.102   5.120  0.00  0.00    -0.086 HD
ATOM     18  H   UNL     1      -1.681   3.359   5.029  0.00  0.00    -0.086 HD
BRANCH  15  19
ATOM     19  C   UNL     1       3.170   4.312  -1.166  0.00  0.00    +0.079 C 
ATOM     20  C   UNL     1       2.657   4.849  -2.508  0.00  0.00    +0.017 C 
ATOM     21  C   UNL     1       3.546   4.295  -3.623  0.00  0.00    +0.027 C 
ATOM     22  C   UNL     1       4.992   4.508  -3.285  0.00  0.00    -0.031 C 
ATOM     23  C   UNL     1       5.427   4.779  -2.096  0.00  0.00    -0.030 C 
ATOM     24  C   UNL     1       4.545   4.924  -0.889  0.00  0.00    +0.039 C 
ENDBRANCH  15  19
ENDBRANCH   2   5
BRANCH   1  25
ATOM     25  C   UNL     1       2.386  -1.268   2.043  0.00  0.00    +0.163 C 
BRANCH  25  26
ATOM     26  C   UNL     1       1.482  -2.153   2.861  0.00  0.00    +0.236 C 
ATOM     27  O   UNL     1       1.157  -1.819   3.981  0.00  0.00    -0.274 OA
ATOM     28  N   UNL     1       1.033  -3.316   2.349  0.00  0.00    -0.300 N 
ATOM     29  C   UNL     1       1.494  -3.781   1.033  0.00  0.00    +0.108 C 
ATOM     30  C   UNL     1       2.041  -5.205   1.177  0.00  0.00    +0.019 C 
ATOM     31  C   UNL     1       0.975  -6.094   1.820  0.00  0.00    +0.003 C 
ATOM     32  C   UNL     1       0.638  -5.562   3.216  0.00  0.00    +0.019 C 
ATOM     33  C   UNL     1       0.080  -4.146   3.097  0.00  0.00    +0.108 C 
ENDBRANCH  25  26
BRANCH  25  34
ATOM     34  C   UNL     1       3.752  -1.939   1.887  0.00  0.00    +0.067 C 
BRANCH  34  38
ATOM     35  C   UNL     1       6.185   0.374  -0.755  0.00  0.00    +0.000 A 
ATOM     36  C   UNL     1       6.228   0.608   0.607  0.00  0.00    +0.000 A 
ATOM     37  C   UNL     1       5.441  -0.141   1.462  0.00  0.00    +0.004 A 
ATOM     38  C   UNL     1       4.610  -1.122   0.955  0.00  0.00    -0.045 A 
ATOM     39  C   UNL     1       4.566  -1.355  -0.407  0.00  0.00    +0.004 A 
ATOM     40  C   UNL     1       5.354  -0.607  -1.262  0.00  0.00    +0.000 A 
ENDBRANCH  34  38
ENDBRANCH  25  34
ENDBRANCH   1  25
TORSDOF 6
