REMARK  Name = ZINC16009743
REMARK  4 active torsions:
REMARK  status: ('A' for Active; 'I' for Inactive)
REMARK    1  A    between atoms: C_1  and  C_2
REMARK    2  A    between atoms: C_2  and  C_3
REMARK    3  A    between atoms: N_25  and  C_28
REMARK    4  A    between atoms: C_31  and  C_34
REMARK                            x       y       z     vdW  Elec       q    Type
REMARK                         _______ _______ _______ _____ _____    ______ ____
ROOT
ATOM      1  C   UNL     1      -1.441  -0.294   0.030  0.00  0.00    -0.026 A 
ATOM      2  C   UNL     1      -2.039  -0.611   1.233  0.00  0.00    +0.005 A 
ATOM      3  C   UNL     1      -3.320  -1.129   1.261  0.00  0.00    +0.001 A 
ATOM      4  C   UNL     1      -4.008  -1.331   0.076  0.00  0.00    +0.008 A 
ATOM      5  C   UNL     1      -3.415  -1.016  -1.126  0.00  0.00    +0.004 A 
ATOM      6  C   UNL     1      -2.128  -0.489  -1.166  0.00  0.00    +0.042 A 
ATOM      7  N   UNL     1      -1.747  -0.245  -2.487  0.00  0.00    -0.283 N 
ATOM      8  C   UNL     1      -2.715  -0.574  -3.364  0.00  0.00    +0.243 C 
ATOM      9  O   UNL     1      -2.664  -0.471  -4.571  0.00  0.00    -0.273 OA
ATOM     10  C   UNL     1      -3.867  -1.108  -2.556  0.00  0.00    +0.138 C 
ATOM     11  C   UNL     1      -5.132  -0.278  -2.799  0.00  0.00    +0.123 C 
ATOM     12  C   UNL     1      -5.951  -1.100  -3.831  0.00  0.00    +0.107 C 
ATOM     13  C   UNL     1      -5.096  -2.346  -4.124  0.00  0.00    +0.071 C 
ATOM     14  N   UNL     1      -4.205  -2.494  -2.926  0.00  0.00    -0.281 NA
ATOM     15  C   UNL     1      -5.060  -3.099  -1.878  0.00  0.00    +0.086 C 
ATOM     16  C   UNL     1      -5.966  -4.100  -2.623  0.00  0.00    +0.017 C 
ATOM     17  C   UNL     1      -5.996  -3.595  -4.119  0.00  0.00    +0.021 C 
ATOM     18  C   UNL     1      -7.190  -1.495  -3.059  0.00  0.00    +0.232 C 
ATOM     19  O   UNL     1      -8.107  -2.156  -3.497  0.00  0.00    -0.274 OA
ATOM     20  N   UNL     1      -7.116  -1.002  -1.817  0.00  0.00    -0.210 N 
ATOM     21  C   UNL     1      -5.996  -0.288  -1.558  0.00  0.00    +0.233 C 
ATOM     22  O   UNL     1      -5.721   0.253  -0.508  0.00  0.00    -0.274 OA
ATOM     23  H   UNL     1      -0.886   0.120  -2.744  0.00  0.00    +0.155 HD
ENDROOT
BRANCH  20  24
ATOM     24  C   UNL     1      -8.121  -1.202  -0.861  0.00  0.00    +0.044 A 
ATOM     25  C   UNL     1      -9.370  -0.620  -1.032  0.00  0.00    +0.024 A 
ATOM     26  C   UNL     1     -10.358  -0.819  -0.088  0.00  0.00    +0.005 A 
ATOM     27  C   UNL     1     -10.104  -1.596   1.027  0.00  0.00    -0.050 A 
ATOM     28  C   UNL     1      -8.861  -2.176   1.201  0.00  0.00    +0.005 A 
ATOM     29  C   UNL     1      -7.871  -1.986   0.257  0.00  0.00    +0.024 A 
ATOM     30  C   UNL     1     -11.185  -1.811   2.056  0.00  0.00    +0.044 C 
ENDBRANCH  20  24
BRANCH   1  32
ATOM     31  C   UNL     1      -0.111   1.797  -0.030  0.00  0.00    +0.009 C 
ATOM     32  C   UNL     1      -0.044   0.269   0.011  0.00  0.00    +0.033 C 
ENDBRANCH   1  32
TORSDOF 2
