REMARK  Name = ZINC28060485
REMARK  6 active torsions:
REMARK  status: ('A' for Active; 'I' for Inactive)
REMARK    1  A    between atoms: C_1  and  O_2
REMARK    2  A    between atoms: O_2  and  C_3
REMARK    3  A    between atoms: C_6  and  O_33
REMARK    4  A    between atoms: C_7  and  C_9
REMARK    5  A    between atoms: C_26  and  C_28
REMARK    6  A    between atoms: O_33  and  C_34
REMARK                            x       y       z     vdW  Elec       q    Type
REMARK                         _______ _______ _______ _____ _____    ______ ____
ROOT
ATOM      1  C   UNL     1       0.977  -2.187   0.091  0.00  0.00    +0.238 C 
ATOM      2  C   UNL     1       0.968  -2.707  -1.329  0.00  0.00    +0.026 C 
ATOM      3  C   UNL     1       2.130  -2.940  -1.943  0.00  0.00    +0.050 C 
ATOM      4  C   UNL     1       3.385  -2.700  -1.193  0.00  0.00    +0.038 A 
ATOM      5  C   UNL     1       4.609  -2.587  -1.841  0.00  0.00    +0.013 A 
ATOM      6  C   UNL     1       5.754  -2.365  -1.099  0.00  0.00    +0.001 A 
ATOM      7  C   UNL     1       5.684  -2.255   0.279  0.00  0.00    +0.004 A 
ATOM      8  C   UNL     1       4.469  -2.365   0.931  0.00  0.00    +0.046 A 
ATOM      9  C   UNL     1       3.316  -2.586   0.202  0.00  0.00    +0.131 A 
ATOM     10  O   UNL     1       2.104  -2.695   0.803  0.00  0.00    -0.479 OA
ATOM     11  N   UNL     1       2.198  -3.415  -3.259  0.00  0.00    -0.282 N 
ATOM     12  C   UNL     1       1.030  -3.907  -3.817  0.00  0.00    +0.240 A 
ATOM     13  N   UNL     1       0.822  -4.608  -4.894  0.00  0.00    -0.092 NA
ATOM     14  N   UNL     1      -0.435  -4.860  -5.027  0.00  0.00    -0.021 NA
ATOM     15  N   UNL     1      -1.105  -4.338  -4.051  0.00  0.00    -0.042 NA
ATOM     16  N   UNL     1      -0.178  -3.696  -3.232  0.00  0.00    -0.201 N 
ATOM     17  C   UNL     1      -0.362  -2.937  -2.002  0.00  0.00    +0.181 C 
ATOM     18  H   UNL     1       3.153  -3.387  -3.805  0.00  0.00    +0.155 HD
ENDROOT
BRANCH   1  23
ATOM     19  C   UNL     1       2.297   1.341  -0.213  0.00  0.00    +0.121 A 
ATOM     20  C   UNL     1       1.152   2.087   0.026  0.00  0.00    +0.049 A 
ATOM     21  C   UNL     1      -0.045   1.450   0.287  0.00  0.00    +0.049 A 
ATOM     22  C   UNL     1      -0.104   0.065   0.308  0.00  0.00    +0.127 A 
ATOM     23  C   UNL     1       1.040  -0.681   0.068  0.00  0.00    +0.042 A 
ATOM     24  C   UNL     1       2.239  -0.044  -0.192  0.00  0.00    +0.056 A 
BRANCH  19  26
ATOM     25  C   UNL     1       3.463   3.397  -0.475  0.00  0.00    +0.277 C 
ATOM     26  O   UNL     1       3.476   1.968  -0.469  0.00  0.00    -0.495 OA
ENDBRANCH  19  26
BRANCH  22  27
ATOM     27  O   UNL     1      -1.283  -0.562   0.565  0.00  0.00    -0.495 OA
ATOM     28  C   UNL     1      -2.390   0.263   0.930  0.00  0.00    +0.277 C 
ENDBRANCH  22  27
ENDBRANCH   1  23
BRANCH  17  29
ATOM     29  C   UNL     1      -0.995  -1.609  -2.326  0.00  0.00    +0.019 A 
ATOM     30  C   UNL     1      -2.208  -1.129  -1.958  0.00  0.00    +0.013 A 
ATOM     31  C   UNL     1      -2.585   0.134  -2.375  0.00  0.00    +0.008 A 
ATOM     32  C   UNL     1      -1.730   0.856  -3.140  0.00  0.00    +0.045 A 
ATOM     33  S   UNL     1      -0.339  -0.254  -3.286  0.00  0.00    -0.099 S 
ENDBRANCH  17  29
TORSDOF 4
