REMARK  Name = ZINC14981187
REMARK  4 active torsions:
REMARK  status: ('A' for Active; 'I' for Inactive)
REMARK    1  A    between atoms: C_11  and  C_26
REMARK    2  A    between atoms: C_16  and  C_18
REMARK    3  A    between atoms: C_18  and  S_19
REMARK    4  A    between atoms: S_19  and  C_20
REMARK                            x       y       z     vdW  Elec       q    Type
REMARK                         _______ _______ _______ _____ _____    ______ ____
ROOT
ATOM      1  C   UNL     1      -3.633   3.456  -4.229  0.00  0.00    +0.001 A 
ATOM      2  C   UNL     1      -2.606   3.089  -5.082  0.00  0.00    +0.002 A 
ATOM      3  C   UNL     1      -1.455   2.468  -4.629  0.00  0.00    +0.026 A 
ATOM      4  C   UNL     1      -1.369   2.221  -3.260  0.00  0.00    +0.047 A 
ATOM      5  C   UNL     1      -2.424   2.599  -2.391  0.00  0.00    +0.003 A 
ATOM      6  C   UNL     1      -3.575   3.226  -2.876  0.00  0.00    +0.010 A 
ATOM      7  C   UNL     1      -2.009   2.202  -1.061  0.00  0.00    -0.016 A 
ATOM      8  C   UNL     1      -0.791   1.631  -1.182  0.00  0.00    +0.041 A 
ATOM      9  N   UNL     1      -0.400   1.640  -2.494  0.00  0.00    -0.356 N 
ATOM     10  H   UNL     1       0.440   1.287  -2.829  0.00  0.00    +0.166 HD
ATOM     11  C   UNL     1      -0.010   1.076  -0.011  0.00  0.00    +0.126 C 
ATOM     12  N   UNL     1      -0.681   1.521   1.222  0.00  0.00    -0.292 N 
ATOM     13  C   UNL     1      -2.149   1.429   1.287  0.00  0.00    +0.113 C 
ATOM     14  C   UNL     1      -2.754   2.371   0.239  0.00  0.00    +0.056 C 
ATOM     15  C   UNL     1       0.030   1.999   2.262  0.00  0.00    +0.226 C 
ATOM     16  O   UNL     1       1.228   2.157   2.156  0.00  0.00    -0.275 OA
ENDROOT
BRANCH  11  17
ATOM     17  C   UNL     1       1.424   1.609  -0.044  0.00  0.00    +0.015 C 
ATOM     18  C   UNL     1       1.398   3.135  -0.150  0.00  0.00    +0.006 C 
ATOM     19  C   UNL     1       2.832   3.668  -0.182  0.00  0.00    +0.000 C 
ATOM     20  C   UNL     1       3.566   3.085  -1.392  0.00  0.00    +0.000 C 
ATOM     21  C   UNL     1       3.591   1.559  -1.286  0.00  0.00    +0.000 C 
ATOM     22  C   UNL     1       2.157   1.026  -1.253  0.00  0.00    +0.006 C 
ENDBRANCH  11  17
BRANCH  15  23
ATOM     23  C   UNL     1      -0.663   2.338   3.556  0.00  0.00    +0.172 C 
BRANCH  23  24
ATOM     24  S   UNL     1       0.555   2.953   4.752  0.00  0.00    -0.088 S 
BRANCH  24  25
ATOM     25  C   UNL     1      -0.399   3.300   6.192  0.00  0.00    +0.160 A 
ATOM     26  N   UNL     1      -1.696   3.163   6.388  0.00  0.00    -0.133 NA
ATOM     27  N   UNL     1      -2.242   3.493   7.607  0.00  0.00    -0.125 NA
ATOM     28  C   UNL     1      -1.468   3.955   8.570  0.00  0.00    +0.180 A 
ATOM     29  S   UNL     1       0.131   3.938   7.774  0.00  0.00    -0.025 S 
ATOM     30  N   UNL     1      -1.806   4.350   9.859  0.00  0.00    -0.336 N 
ATOM     31  H   UNL     1      -1.119   4.673  10.463  0.00  0.00    +0.144 HD
ATOM     32  H   UNL     1      -2.729   4.303  10.155  0.00  0.00    +0.144 HD
ENDBRANCH  24  25
ENDBRANCH  23  24
ENDBRANCH  15  23
TORSDOF 4
