REMARK  Name = ZINC00253972
REMARK  5 active torsions:
REMARK  status: ('A' for Active; 'I' for Inactive)
REMARK    1  A    between atoms: C_6  and  C_7
REMARK    2  A    between atoms: N_9  and  N_10
REMARK    3  A    between atoms: C_11  and  C_12
REMARK    4  A    between atoms: C_15  and  O_19
REMARK    5  A    between atoms: C_17  and  O_18
REMARK                            x       y       z     vdW  Elec       q    Type
REMARK                         _______ _______ _______ _____ _____    ______ ____
ROOT
ATOM      1  N   UNL     1      -2.446  -2.829   0.011  0.00  0.00    -0.187 NA
ATOM      2  C   UNL     1      -2.426  -4.128   0.004  0.00  0.00    +0.142 C 
ENDROOT
BRANCH   2   3
ATOM      3  C   UNL     1      -3.690  -4.884   0.013  0.00  0.00    +0.036 A 
ATOM      4  C   UNL     1      -3.671  -6.282   0.011  0.00  0.00    +0.016 A 
ATOM      5  C   UNL     1      -4.855  -6.985   0.018  0.00  0.00    +0.046 A 
ATOM      6  C   UNL     1      -6.070  -6.310   0.028  0.00  0.00    +0.120 A 
ATOM      7  C   UNL     1      -6.099  -4.923   0.030  0.00  0.00    +0.091 A 
ATOM      8  C   UNL     1      -4.916  -4.205   0.028  0.00  0.00    +0.129 A 
BRANCH   8   9
ATOM      9  O   UNL     1      -4.943  -2.847   0.036  0.00  0.00    -0.506 OA
ATOM     10  H   UNL     1      -4.960  -2.449  -0.845  0.00  0.00    +0.292 HD
ENDBRANCH   8   9
BRANCH   6  11
ATOM     11  O   UNL     1      -7.234  -7.011   0.036  0.00  0.00    -0.507 OA
ATOM     12  H   UNL     1      -7.564  -7.215   0.922  0.00  0.00    +0.292 HD
ENDBRANCH   6  11
ENDBRANCH   2   3
BRANCH   1  15
ATOM     13  C   UNL     1      -1.265  -0.762   0.011  0.00  0.00    +0.263 C 
ATOM     14  O   UNL     1      -2.328  -0.171   0.024  0.00  0.00    -0.268 OA
ATOM     15  N   UNL     1      -1.244  -2.110   0.003  0.00  0.00    -0.203 N 
ATOM     16  H   UNL     1      -0.397  -2.582  -0.008  0.00  0.00    +0.178 HD
BRANCH  13  22
ATOM     17  C   UNL     1      -0.017   1.393   0.010  0.00  0.00    +0.016 A 
ATOM     18  C   UNL     1       1.169   2.095   0.002  0.00  0.00    +0.039 A 
ATOM     19  C   UNL     1       2.379   1.418  -0.013  0.00  0.00    +0.123 A 
ATOM     20  C   UNL     1       2.404   0.032  -0.021  0.00  0.00    +0.039 A 
ATOM     21  C   UNL     1       1.224  -0.681  -0.013  0.00  0.00    +0.016 A 
ATOM     22  C   UNL     1       0.002  -0.004   0.002  0.00  0.00    +0.039 A 
ATOM     23  F   UNL     1       3.538   2.112  -0.021  0.00  0.00    -0.205 F 
ENDBRANCH  13  22
ENDBRANCH   1  15
TORSDOF 5
