REMARK  Name = ZINC06857626
REMARK  4 active torsions:
REMARK  status: ('A' for Active; 'I' for Inactive)
REMARK    1  A    between atoms: C_1  and  N_40
REMARK    2  A    between atoms: C_9  and  O_24
REMARK    3  A    between atoms: C_11  and  C_14
REMARK    4  A    between atoms: C_18  and  N_20
REMARK                            x       y       z     vdW  Elec       q    Type
REMARK                         _______ _______ _______ _____ _____    ______ ____
ROOT
ATOM      1  C   UNL     1      -3.201  -0.314  -8.321  0.00  0.00    -0.096 C 
ATOM      2  C   UNL     1      -3.394   1.285  -6.512  0.00  0.00    -0.074 C 
ATOM      3  C   UNL     1      -3.953   1.466  -5.098  0.00  0.00    +0.018 C 
ATOM      4  C   UNL     1      -3.195   0.530  -4.163  0.00  0.00    -0.027 A 
ATOM      5  C   UNL     1      -2.485  -0.504  -4.672  0.00  0.00    -0.021 A 
ATOM      6  S   UNL     1      -1.780  -1.311  -3.260  0.00  0.00    -0.080 S 
ATOM      7  C   UNL     1      -2.417  -0.302  -2.033  0.00  0.00    +0.080 A 
ATOM      8  C   UNL     1      -3.168   0.661  -2.719  0.00  0.00    +0.067 A 
ATOM      9  C   UNL     1      -3.847   1.702  -1.903  0.00  0.00    +0.220 C 
ATOM     10  N   UNL     1      -3.543   1.775  -0.638  0.00  0.00    -0.223 NA
ATOM     11  C   UNL     1      -2.514   0.979   0.019  0.00  0.00    +0.224 C 
ATOM     12  N   UNL     1      -2.306  -0.311  -0.663  0.00  0.00    -0.313 N 
ATOM     13  C   UNL     1      -2.347  -0.864  -6.117  0.00  0.00    -0.036 C 
ATOM     14  H   UNL     1      -2.101  -1.122  -0.172  0.00  0.00    +0.149 HD
ATOM     15  N   UNL     1      -3.409  -0.149  -6.866  0.00  0.00    +0.381 N 
ATOM     16  H   UNL     1      -4.322  -0.546  -6.612  0.00  0.00    -0.082 HD
ENDROOT
BRANCH  11  17
ATOM     17  C   UNL     1      -1.219   1.751   0.017  0.00  0.00    -0.003 A 
ATOM     18  C   UNL     1      -0.013   1.076   0.008  0.00  0.00    +0.009 A 
ATOM     19  C   UNL     1       1.175   1.783   0.000  0.00  0.00    +0.022 A 
ATOM     20  C   UNL     1       1.156   3.166   0.008  0.00  0.00    +0.071 A 
ATOM     21  C   UNL     1      -0.052   3.841   0.022  0.00  0.00    +0.145 A 
ATOM     22  C   UNL     1      -1.239   3.133   0.030  0.00  0.00    +0.041 A 
ATOM     23 CL   UNL     1       2.647   4.055  -0.001  0.00  0.00    -0.081 Cl
BRANCH  21  24
ATOM     24  N   UNL     1      -0.073   5.321   0.029  0.00  0.00    +0.058 N 
ATOM     25  O   UNL     1      -1.136   5.915   0.042  0.00  0.00    -0.126 OA
ATOM     26  O   UNL     1       0.973   5.945   0.022  0.00  0.00    -0.126 OA
ENDBRANCH  21  24
ENDBRANCH  11  17
BRANCH   9  27
ATOM     27  O   UNL     1      -4.750   2.544  -2.456  0.00  0.00    -0.492 OA
ATOM     28  H   UNL     1      -5.128   3.180  -1.833  0.00  0.00    +0.294 HD
ENDBRANCH   9  27
TORSDOF 3
