REMARK  Name = ZINC03918293
REMARK  18 active torsions:
REMARK  status: ('A' for Active; 'I' for Inactive)
REMARK    1  A    between atoms: C_1  and  C_2
REMARK    2  A    between atoms: C_2  and  C_3
REMARK    3  A    between atoms: C_3  and  C_4
REMARK    4  A    between atoms: C_4  and  O_5
REMARK    5  A    between atoms: O_5  and  C_6
REMARK    6  A    between atoms: N_8  and  S_9
REMARK    7  A    between atoms: S_9  and  C_12
REMARK    8  A    between atoms: C_13  and  C_21
REMARK    9  A    between atoms: C_15  and  C_17
REMARK   10  A    between atoms: C_17  and  C_18
REMARK   11  A    between atoms: C_18  and  C_19
REMARK   12  A    between atoms: C_18  and  C_20
REMARK   13  A    between atoms: C_24  and  C_27
REMARK   14  A    between atoms: C_27  and  N_28
REMARK   15  A    between atoms: C_29  and  C_39
REMARK   16  A    between atoms: C_34  and  C_38
REMARK   17  A    between atoms: C_36  and  C_37
REMARK   18  A    between atoms: C_39  and  C_40
REMARK                            x       y       z     vdW  Elec       q    Type
REMARK                         _______ _______ _______ _____ _____    ______ ____
ROOT
ATOM      1  C   UNL     1       0.890  -4.685  -1.206  0.00  0.00    +0.154 A 
ATOM      2  C   UNL     1      -0.191  -4.154  -1.852  0.00  0.00    +0.016 A 
ATOM      3  C   UNL     1      -0.316  -2.769  -1.909  0.00  0.00    +0.021 A 
ATOM      4  C   UNL     1       0.632  -2.000  -1.327  0.00  0.00    -0.007 A 
ATOM      5  S   UNL     1       1.758  -3.219  -0.672  0.00  0.00    -0.073 S 
ENDROOT
BRANCH   2   6
ATOM      6  C   UNL     1      -1.209  -5.035  -2.476  0.00  0.00    -0.015 A 
ATOM      7  C   UNL     1      -0.815  -6.060  -3.334  0.00  0.00    +0.009 A 
ATOM      8  C   UNL     1      -1.766  -6.879  -3.908  0.00  0.00    +0.006 A 
ATOM      9  C   UNL     1      -3.108  -6.677  -3.642  0.00  0.00    -0.028 A 
ATOM     10  C   UNL     1      -3.505  -5.657  -2.796  0.00  0.00    +0.006 A 
ATOM     11  C   UNL     1      -2.563  -4.836  -2.212  0.00  0.00    +0.009 A 
BRANCH   9  12
ATOM     12  C   UNL     1      -4.142  -7.572  -4.275  0.00  0.00    +0.160 C 
BRANCH  12  13
ATOM     13  N   UNL     1      -4.562  -7.002  -5.558  0.00  0.00    -0.308 N 
ATOM     14  C   UNL     1      -3.997  -7.247  -6.772  0.00  0.00    +0.112 A 
ATOM     15  N   UNL     1      -4.617  -6.575  -7.697  0.00  0.00    -0.230 NA
ATOM     16  C   UNL     1      -5.622  -5.855  -7.138  0.00  0.00    +0.111 A 
ATOM     17  C   UNL     1      -5.605  -6.123  -5.757  0.00  0.00    +0.161 A 
ATOM     18  N   UNL     1      -6.481  -5.543  -4.952  0.00  0.00    -0.233 NA
ATOM     19  C   UNL     1      -7.396  -4.715  -5.412  0.00  0.00    +0.041 A 
ATOM     20  C   UNL     1      -7.479  -4.407  -6.760  0.00  0.00    +0.028 A 
ATOM     21  C   UNL     1      -6.585  -4.979  -7.646  0.00  0.00    -0.020 A 
ATOM     22  C   UNL     1      -6.647  -4.665  -9.119  0.00  0.00    +0.046 C 
ATOM     23  C   UNL     1      -8.373  -4.088  -4.450  0.00  0.00    +0.065 C 
BRANCH  14  24
ATOM     24  C   UNL     1      -2.823  -8.162  -7.009  0.00  0.00    +0.071 C 
ATOM     25  C   UNL     1      -3.329  -9.579  -7.286  0.00  0.00    +0.012 C 
ENDBRANCH  14  24
ENDBRANCH  12  13
ENDBRANCH   9  12
ENDBRANCH   2   6
BRANCH   1  26
ATOM     26  S   UNL     1       1.320  -6.377  -0.969  0.00  0.00    +0.084 S 
ATOM     27  O   UNL     1       2.157  -6.426   0.179  0.00  0.00    -0.149 OA
ATOM     28  O   UNL     1       0.113  -7.120  -1.063  0.00  0.00    -0.149 OA
BRANCH  26  31
ATOM     29  C   UNL     1       3.466  -6.266  -2.442  0.00  0.00    +0.420 C 
ATOM     30  O   UNL     1       3.870  -5.424  -1.664  0.00  0.00    -0.225 OA
ATOM     31  N   UNL     1       2.257  -6.830  -2.257  0.00  0.00    -0.150 N 
ATOM     32  H   UNL     1       1.935  -7.501  -2.879  0.00  0.00    +0.180 HD
BRANCH  29  33
ATOM     33  O   UNL     1       4.228  -6.634  -3.490  0.00  0.00    -0.449 OA
BRANCH  33  34
ATOM     34  C   UNL     1       5.519  -5.984  -3.627  0.00  0.00    +0.234 C 
BRANCH  34  35
ATOM     35  C   UNL     1       6.234  -6.527  -4.865  0.00  0.00    +0.041 C 
BRANCH  35  37
ATOM     36  C   UNL     1       8.311  -6.386  -6.248  0.00  0.00    +0.004 C 
ATOM     37  C   UNL     1       7.595  -5.843  -5.010  0.00  0.00    -0.000 C 
ENDBRANCH  35  37
ENDBRANCH  34  35
ENDBRANCH  33  34
ENDBRANCH  29  33
ENDBRANCH  26  31
ENDBRANCH   1  26
BRANCH   4  38
ATOM     38  C   UNL     1       0.718  -0.497  -1.257  0.00  0.00    +0.045 C 
BRANCH  38  39
ATOM     39  C   UNL     1       0.002  -0.004   0.002  0.00  0.00    -0.012 C 
ATOM     40  C   UNL     1      -0.019   1.526   0.010  0.00  0.00    +0.007 C 
ATOM     41  C   UNL     1       0.742  -0.511   1.242  0.00  0.00    +0.007 C 
ENDBRANCH  38  39
ENDBRANCH   4  38
TORSDOF 12
