REMARK  Name = ZINC16032934
REMARK  7 active torsions:
REMARK  status: ('A' for Active; 'I' for Inactive)
REMARK    1  A    between atoms: C_1  and  C_2
REMARK    2  A    between atoms: C_16  and  C_19
REMARK    3  A    between atoms: C_19  and  C_20
REMARK    4  A    between atoms: C_20  and  C_21
REMARK    5  A    between atoms: N_26  and  C_29
REMARK    6  A    between atoms: C_29  and  C_30
REMARK    7  A    between atoms: C_30  and  C_31
REMARK                            x       y       z     vdW  Elec       q    Type
REMARK                         _______ _______ _______ _____ _____    ______ ____
ROOT
ATOM      1  C   UNL     1       3.806   0.785   0.050  0.00  0.00    +0.045 C 
ATOM      2  C   UNL     1       3.165  -0.579   0.021  0.00  0.00    -0.029 A 
ATOM      3  C   UNL     1       3.229  -1.344  -1.125  0.00  0.00    +0.005 A 
ATOM      4  C   UNL     1       2.644  -2.596  -1.161  0.00  0.00    +0.001 A 
ATOM      5  C   UNL     1       1.992  -3.085  -0.043  0.00  0.00    +0.008 A 
ATOM      6  C   UNL     1       1.927  -2.325   1.104  0.00  0.00    +0.004 A 
ATOM      7  C   UNL     1       2.516  -1.065   1.153  0.00  0.00    +0.042 A 
ATOM      8  N   UNL     1       2.324  -0.491   2.412  0.00  0.00    -0.283 N 
ATOM      9  C   UNL     1       1.635  -1.300   3.239  0.00  0.00    +0.243 C 
ATOM     10  O   UNL     1       1.321  -1.065   4.387  0.00  0.00    -0.273 OA
ATOM     11  C   UNL     1       1.317  -2.546   2.458  0.00  0.00    +0.136 C 
ATOM     12  C   UNL     1      -0.194  -2.793   2.364  0.00  0.00    +0.122 C 
ATOM     13  C   UNL     1      -0.491  -3.823   3.490  0.00  0.00    +0.107 C 
ATOM     14  C   UNL     1       0.872  -4.074   4.168  0.00  0.00    +0.068 C 
ATOM     15  N   UNL     1       1.881  -3.737   3.120  0.00  0.00    -0.295 NA
ATOM     16  C   UNL     1      -0.923  -5.056   2.730  0.00  0.00    +0.227 C 
ATOM     17  O   UNL     1      -1.243  -6.112   3.232  0.00  0.00    -0.275 OA
ATOM     18  N   UNL     1      -0.897  -4.801   1.417  0.00  0.00    -0.241 N 
ATOM     19  C   UNL     1      -0.507  -3.547   1.091  0.00  0.00    +0.228 C 
ATOM     20  O   UNL     1      -0.418  -3.095  -0.030  0.00  0.00    -0.275 OA
ATOM     21  H   UNL     1       2.650   0.388   2.661  0.00  0.00    +0.155 HD
ATOM     22  H   UNL     1       2.000  -4.493   2.463  0.00  0.00    +0.123 HD
ENDROOT
BRANCH  14  23
ATOM     23  C   UNL     1       1.027  -3.179   5.399  0.00  0.00    +0.028 C 
BRANCH  23  24
ATOM     24  C   UNL     1       0.532  -3.927   6.639  0.00  0.00    +0.097 C 
BRANCH  24  25
ATOM     25  C   UNL     1       0.685  -3.046   7.852  0.00  0.00    +0.211 C 
ATOM     26  O   UNL     1       1.144  -1.929   7.736  0.00  0.00    -0.276 OA
ATOM     27  N   UNL     1       0.312  -3.498   9.065  0.00  0.00    -0.329 N 
ATOM     28  H   UNL     1      -0.056  -4.391   9.158  0.00  0.00    +0.145 HD
ATOM     29  H   UNL     1       0.410  -2.931   9.846  0.00  0.00    +0.145 HD
ENDBRANCH  24  25
ENDBRANCH  23  24
ENDBRANCH  14  23
BRANCH  18  30
ATOM     30  C   UNL     1      -1.267  -5.798   0.409  0.00  0.00    +0.121 C 
BRANCH  30  31
ATOM     31  C   UNL     1      -2.765  -5.696   0.117  0.00  0.00    +0.054 C 
BRANCH  31  32
ATOM     32  C   UNL     1      -3.146  -6.721  -0.920  0.00  0.00    -0.046 A 
ATOM     33  C   UNL     1      -3.092  -6.399  -2.263  0.00  0.00    +0.004 A 
ATOM     34  C   UNL     1      -3.442  -7.339  -3.214  0.00  0.00    +0.000 A 
ATOM     35  C   UNL     1      -3.844  -8.602  -2.822  0.00  0.00    +0.000 A 
ATOM     36  C   UNL     1      -3.897  -8.925  -1.479  0.00  0.00    +0.000 A 
ATOM     37  C   UNL     1      -3.543  -7.986  -0.528  0.00  0.00    +0.004 A 
ENDBRANCH  31  32
ENDBRANCH  30  31
ENDBRANCH  18  30
TORSDOF 6
