REMARK  Name = ZINC09238909
REMARK  8 active torsions:
REMARK  status: ('A' for Active; 'I' for Inactive)
REMARK    1  A    between atoms: C_1  and  C_2
REMARK    2  A    between atoms: C_2  and  O_3
REMARK    3  A    between atoms: O_3  and  C_4
REMARK    4  A    between atoms: C_7  and  C_10
REMARK    5  A    between atoms: C_12  and  C_22
REMARK    6  A    between atoms: C_18  and  C_21
REMARK    7  A    between atoms: N_24  and  C_25
REMARK    8  A    between atoms: C_28  and  C_32
REMARK                            x       y       z     vdW  Elec       q    Type
REMARK                         _______ _______ _______ _____ _____    ______ ____
ROOT
ATOM      1  C   UNL     1      -1.071   3.542   0.597  0.00  0.00    +0.140 C 
ATOM      2  C   UNL     1       0.058   4.114  -0.271  0.00  0.00    +0.166 C 
ATOM      3  S   UNL     1       1.586   3.220   0.142  0.00  0.00    -0.069 S 
ATOM      4  C   UNL     1       0.914   1.587   0.164  0.00  0.00    +0.209 A 
ATOM      5  N   UNL     1       1.556   0.452   0.185  0.00  0.00    -0.121 NA
ATOM      6  N   UNL     1       0.709  -0.518   0.212  0.00  0.00    -0.132 NA
ATOM      7  C   UNL     1      -0.510  -0.052   0.207  0.00  0.00    +0.148 A 
ATOM      8  N   UNL     1      -0.423   1.310   0.170  0.00  0.00    -0.225 N 
ATOM      9  N   UNL     1      -1.444   2.205   0.134  0.00  0.00    -0.272 N 
ATOM     10  C   UNL     1      -1.778  -0.866   0.238  0.00  0.00    +0.090 C 
ATOM     11  H   UNL     1      -1.860   2.243  -0.784  0.00  0.00    +0.167 HD
ENDROOT
BRANCH   1  15
ATOM     12  C   UNL     1      -4.473   6.118   0.366  0.00  0.00    +0.121 A 
ATOM     13  C   UNL     1      -3.622   6.187   1.460  0.00  0.00    +0.046 A 
ATOM     14  C   UNL     1      -2.523   5.353   1.532  0.00  0.00    +0.009 A 
ATOM     15  C   UNL     1      -2.271   4.451   0.515  0.00  0.00    -0.024 A 
ATOM     16  C   UNL     1      -3.114   4.384  -0.578  0.00  0.00    +0.009 A 
ATOM     17  C   UNL     1      -4.217   5.212  -0.653  0.00  0.00    +0.046 A 
BRANCH  12  18
ATOM     18  O   UNL     1      -5.554   6.938   0.292  0.00  0.00    -0.492 OA
BRANCH  18  20
ATOM     19  C   UNL     1      -7.543   7.809  -0.769  0.00  0.00    +0.048 C 
ATOM     20  C   UNL     1      -6.386   6.812  -0.863  0.00  0.00    +0.225 C 
ENDBRANCH  18  20
ENDBRANCH  12  18
ENDBRANCH   1  15
BRANCH   2  21
ATOM     21  C   UNL     1      -0.270   3.917  -1.728  0.00  0.00    +0.233 C 
ATOM     22  O   UNL     1       0.111   2.921  -2.307  0.00  0.00    -0.274 OA
ATOM     23  N   UNL     1      -0.986   4.848  -2.390  0.00  0.00    -0.284 N 
ATOM     24  H   UNL     1      -1.233   5.675  -1.946  0.00  0.00    +0.155 HD
BRANCH  23  25
ATOM     25  C   UNL     1      -1.371   4.623  -3.716  0.00  0.00    +0.035 A 
ATOM     26  C   UNL     1      -0.519   3.953  -4.584  0.00  0.00    +0.023 A 
ATOM     27  C   UNL     1      -0.904   3.728  -5.891  0.00  0.00    +0.006 A 
ATOM     28  C   UNL     1      -2.133   4.176  -6.339  0.00  0.00    -0.032 A 
ATOM     29  C   UNL     1      -2.983   4.849  -5.478  0.00  0.00    +0.046 A 
ATOM     30  C   UNL     1      -2.605   5.073  -4.167  0.00  0.00    +0.043 A 
ATOM     31 CL   UNL     1      -4.524   5.411  -6.045  0.00  0.00    -0.083 Cl
ATOM     32  C   UNL     1      -2.548   3.933  -7.767  0.00  0.00    +0.045 C 
ENDBRANCH  23  25
ENDBRANCH   2  21
TORSDOF 5
