REMARK  Name = ZINC00891532
REMARK  11 active torsions:
REMARK  status: ('A' for Active; 'I' for Inactive)
REMARK    1  A    between atoms: C_1  and  C_2
REMARK    2  A    between atoms: C_6  and  N_8
REMARK    3  A    between atoms: N_8  and  C_9
REMARK    4  A    between atoms: C_9  and  N_11
REMARK    5  A    between atoms: N_11  and  C_12
REMARK    6  A    between atoms: N_11  and  C_16
REMARK    7  A    between atoms: C_12  and  C_13
REMARK    8  A    between atoms: C_13  and  N_60
REMARK    9  A    between atoms: C_14  and  N_60
REMARK   10  A    between atoms: C_15  and  N_60
REMARK   11  A    between atoms: C_16  and  C_17
REMARK                            x       y       z     vdW  Elec       q    Type
REMARK                         _______ _______ _______ _____ _____    ______ ____
ROOT
ATOM      1  N   UNL     1       0.989   7.408   0.238  0.00  0.00    -0.310 N 
ENDROOT
BRANCH   1   2
ATOM      2  C   UNL     1       0.872   6.071   0.122  0.00  0.00    +0.137 C 
ATOM      3  S   UNL     1       2.274   5.088   0.091  0.00  0.00    -0.018 S 
BRANCH   2   4
ATOM      4  N   UNL     1      -0.348   5.506   0.030  0.00  0.00    -0.297 N 
ATOM      5  H   UNL     1      -1.138   6.066  -0.031  0.00  0.00    +0.154 HD
BRANCH   4  11
ATOM      6  C   UNL     1      -2.466   1.460  -1.789  0.00  0.00    +0.044 C 
ATOM      7  C   UNL     1      -1.496   2.125  -0.848  0.00  0.00    -0.049 A 
ATOM      8  C   UNL     1      -0.730   1.358   0.011  0.00  0.00    +0.003 A 
ATOM      9  C   UNL     1       0.166   1.965   0.873  0.00  0.00    +0.002 A 
ATOM     10  C   UNL     1       0.295   3.340   0.881  0.00  0.00    +0.023 A 
ATOM     11  C   UNL     1      -0.476   4.113   0.024  0.00  0.00    +0.033 A 
ATOM     12  C   UNL     1      -1.375   3.501  -0.840  0.00  0.00    +0.026 A 
ENDBRANCH   4  11
ENDBRANCH   2   4
ENDBRANCH   1   2
BRANCH   1  13
ATOM     13  C   UNL     1      -0.209   8.239   0.375  0.00  0.00    +0.088 C 
BRANCH  13  14
ATOM     14  C   UNL     1      -0.553   8.398   1.858  0.00  0.00    -0.060 C 
BRANCH  14  17
ATOM     15  C   UNL     1      -2.253   9.212   3.377  0.00  0.00    -0.097 C 
ATOM     16  C   UNL     1      -1.496  10.606   1.548  0.00  0.00    -0.097 C 
ATOM     17  N   UNL     1      -1.775   9.220   1.979  0.00  0.00    +0.377 N 
ATOM     18  H   UNL     1      -2.505   8.823   1.375  0.00  0.00    -0.083 HD
ENDBRANCH  14  17
ENDBRANCH  13  14
ENDBRANCH   1  13
BRANCH   1  19
ATOM     19  C   UNL     1       2.315   8.031   0.227  0.00  0.00    +0.147 C 
BRANCH  19  20
ATOM     20  C   UNL     1       2.732   8.299  -1.197  0.00  0.00    +0.035 A 
ATOM     21  C   UNL     1       3.528   7.411  -1.846  0.00  0.00    +0.020 A 
ATOM     22  C   UNL     1       3.911   7.697  -3.228  0.00  0.00    +0.003 A 
ATOM     23  C   UNL     1       4.727   6.816  -3.948  0.00  0.00    +0.059 A 
ATOM     24  C   UNL     1       5.076   7.113  -5.249  0.00  0.00    +0.163 A 
ATOM     25  C   UNL     1       4.618   8.290  -5.848  0.00  0.00    +0.164 A 
ATOM     26  C   UNL     1       3.812   9.167  -5.144  0.00  0.00    +0.075 A 
ATOM     27  C   UNL     1       3.452   8.883  -3.833  0.00  0.00    +0.053 A 
ATOM     28  N   UNL     1       2.650   9.746  -3.115  0.00  0.00    -0.322 N 
ATOM     29  H   UNL     1       2.324  10.589  -3.545  0.00  0.00    +0.169 HD
ATOM     30  C   UNL     1       2.299   9.472  -1.847  0.00  0.00    +0.254 A 
ATOM     31  O   UNL     1       1.589  10.258  -1.243  0.00  0.00    -0.268 OA
ATOM     32  O   UNL     1       4.954   8.589  -7.133  0.00  0.00    -0.485 OA
ATOM     33  C   UNL     1       6.066   7.880  -7.689  0.00  0.00    +0.270 C 
ATOM     34  C   UNL     1       5.900   6.391  -7.359  0.00  0.00    +0.270 C 
ATOM     35  O   UNL     1       5.872   6.247  -5.935  0.00  0.00    -0.485 OA
ENDBRANCH  19  20
ENDBRANCH   1  19
TORSDOF 8
