REMARK  Name = ZINC01241284
REMARK  5 active torsions:
REMARK  status: ('A' for Active; 'I' for Inactive)
REMARK    1  A    between atoms: C_1  and  C_2
REMARK    2  A    between atoms: C_5  and  C_8
REMARK    3  A    between atoms: N_14  and  N_15
REMARK    4  A    between atoms: C_16  and  C_17
REMARK    5  A    between atoms: C_20  and  O_23
REMARK                            x       y       z     vdW  Elec       q    Type
REMARK                         _______ _______ _______ _____ _____    ______ ____
ROOT
ATOM      1  C   UNL     1      -5.528   0.513   1.151  0.00  0.00    +0.184 A 
ATOM      2  N   UNL     1      -6.602  -0.118   0.763  0.00  0.00    -0.152 NA
ATOM      3  N   UNL     1      -6.623  -0.119  -0.638  0.00  0.00    -0.253 N 
ATOM      4  H   UNL     1      -7.305  -0.517  -1.201  0.00  0.00    +0.191 HD
ATOM      5  C   UNL     1      -5.525   0.540  -1.061  0.00  0.00    +0.197 A 
ATOM      6  S   UNL     1      -5.082   0.825  -2.690  0.00  0.00    -0.010 S 
ATOM      7  N   UNL     1      -4.837   0.931   0.030  0.00  0.00    -0.188 N 
ENDROOT
BRANCH   1  12
ATOM      8  C   UNL     1      -3.939   1.407   6.610  0.00  0.00    +0.044 C 
ATOM      9  C   UNL     1      -4.355   1.172   5.181  0.00  0.00    -0.050 A 
ATOM     10  C   UNL     1      -5.648   0.770   4.897  0.00  0.00    +0.004 A 
ATOM     11  C   UNL     1      -6.035   0.555   3.590  0.00  0.00    +0.012 A 
ATOM     12  C   UNL     1      -5.120   0.742   2.554  0.00  0.00    +0.021 A 
ATOM     13  C   UNL     1      -3.816   1.142   2.848  0.00  0.00    +0.012 A 
ATOM     14  C   UNL     1      -3.442   1.360   4.158  0.00  0.00    +0.004 A 
ENDBRANCH   1  12
BRANCH   7  15
ATOM     15  N   UNL     1      -3.631   1.645   0.028  0.00  0.00    -0.171 NA
ATOM     16  C   UNL     1      -2.500   1.008   0.019  0.00  0.00    +0.141 C 
BRANCH  16  17
ATOM     17  C   UNL     1      -1.232   1.759   0.017  0.00  0.00    -0.005 A 
ATOM     18  C   UNL     1      -0.013   1.076   0.008  0.00  0.00    +0.013 A 
ATOM     19  C   UNL     1       1.171   1.782   0.001  0.00  0.00    +0.046 A 
ATOM     20  C   UNL     1       1.153   3.171   0.008  0.00  0.00    +0.117 A 
ATOM     21  C   UNL     1      -0.056   3.854   0.022  0.00  0.00    +0.046 A 
ATOM     22  C   UNL     1      -1.244   3.157   0.030  0.00  0.00    +0.013 A 
BRANCH  20  23
ATOM     23  O   UNL     1       2.322   3.863  -0.000  0.00  0.00    -0.507 OA
ATOM     24  H   UNL     1       2.652   4.068  -0.886  0.00  0.00    +0.292 HD
ENDBRANCH  20  23
ENDBRANCH  16  17
ENDBRANCH   7  15
TORSDOF 4
