REMARK  Name = ZINC63261204
REMARK  9 active torsions:
REMARK  status: ('A' for Active; 'I' for Inactive)
REMARK    1  A    between atoms: C_1  and  C_2
REMARK    2  A    between atoms: C_2  and  C_3
REMARK    3  A    between atoms: C_3  and  C_24
REMARK    4  A    between atoms: N_6  and  C_10
REMARK    5  A    between atoms: C_10  and  C_11
REMARK    6  A    between atoms: N_13  and  C_14
REMARK    7  A    between atoms: C_17  and  C_20
REMARK    8  A    between atoms: N_22  and  C_23
REMARK    9  A    between atoms: C_24  and  C_25
REMARK                            x       y       z     vdW  Elec       q    Type
REMARK                         _______ _______ _______ _____ _____    ______ ____
ROOT
ATOM      1  C   UNL     1       0.403   2.967  -4.021  0.00  0.00    +0.231 C 
ATOM      2  O   UNL     1       0.243   3.305  -2.867  0.00  0.00    -0.274 OA
ATOM      3  N   UNL     1       0.169   3.843  -5.018  0.00  0.00    -0.311 N 
ATOM      4  H   UNL     1       0.296   3.573  -5.941  0.00  0.00    +0.149 HD
ENDROOT
BRANCH   3   5
ATOM      5  C   UNL     1      -0.280   5.203  -4.708  0.00  0.00    +0.073 C 
ATOM      6  C   UNL     1      -1.800   5.213  -4.539  0.00  0.00    +0.023 C 
ATOM      7  C   UNL     1      -2.460   4.742  -5.837  0.00  0.00    +0.014 C 
ATOM      8  C   UNL     1      -2.068   5.681  -6.979  0.00  0.00    +0.075 C 
ATOM      9  C   UNL     1      -0.547   5.671  -7.148  0.00  0.00    +0.014 C 
ATOM     10  C   UNL     1       0.113   6.142  -5.851  0.00  0.00    +0.023 C 
BRANCH   8  11
ATOM     11  C   UNL     1      -2.718   5.216  -8.257  0.00  0.00    +0.216 C 
ATOM     12  O   UNL     1      -3.426   4.231  -8.254  0.00  0.00    -0.276 OA
ATOM     13  N   UNL     1      -2.514   5.896  -9.402  0.00  0.00    -0.318 N 
ATOM     14  C   UNL     1      -3.146   5.445 -10.645  0.00  0.00    +0.128 C 
ATOM     15  H   UNL     1      -1.948   6.684  -9.405  0.00  0.00    +0.148 HD
ENDBRANCH   8  11
ENDBRANCH   3   5
BRANCH   1  16
ATOM     16  C   UNL     1       0.864   1.569  -4.340  0.00  0.00    +0.213 C 
BRANCH  16  20
ATOM     17  C   UNL     1       0.718  -0.497  -1.257  0.00  0.00    +0.112 C 
ATOM     18  C   UNL     1       0.081   0.093  -2.499  0.00  0.00    +0.247 C 
ATOM     19  O   UNL     1      -1.061  -0.057  -2.878  0.00  0.00    -0.273 OA
ATOM     20  N   UNL     1       1.047   0.819  -3.095  0.00  0.00    -0.215 N 
ATOM     21  C   UNL     1       2.195   0.770  -2.408  0.00  0.00    +0.310 C 
ATOM     22  O   UNL     1       3.210   1.345  -2.748  0.00  0.00    -0.252 OA
ATOM     23  N   UNL     1       2.099   0.013  -1.301  0.00  0.00    -0.285 N 
ATOM     24  H   UNL     1       2.803  -0.163  -0.657  0.00  0.00    +0.151 HD
BRANCH  17  26
ATOM     25  C   UNL     1      -0.019   1.526   0.010  0.00  0.00    +0.006 C 
ATOM     26  C   UNL     1       0.002  -0.004   0.002  0.00  0.00    +0.032 C 
ENDBRANCH  17  26
BRANCH  17  27
ATOM     27  C   UNL     1       0.707  -2.026  -1.316  0.00  0.00    +0.032 C 
ATOM     28  C   UNL     1       1.534  -2.496  -2.515  0.00  0.00    +0.006 C 
ENDBRANCH  17  27
ENDBRANCH  16  20
ENDBRANCH   1  16
TORSDOF 6
