REMARK  Name = ZINC02807220
REMARK  8 active torsions:
REMARK  status: ('A' for Active; 'I' for Inactive)
REMARK    1  A    between atoms: C_1  and  C_2
REMARK    2  A    between atoms: C_3  and  C_20
REMARK    3  A    between atoms: C_14  and  C_18
REMARK    4  A    between atoms: C_15  and  N_17
REMARK    5  A    between atoms: C_20  and  O_22
REMARK    6  A    between atoms: O_22  and  C_23
REMARK    7  A    between atoms: C_23  and  C_24
REMARK    8  A    between atoms: C_23  and  C_25
REMARK                            x       y       z     vdW  Elec       q    Type
REMARK                         _______ _______ _______ _____ _____    ______ ____
ROOT
ATOM      1  C   UNL     1      -0.019   1.058   0.015  0.00  0.00    +0.087 C 
ATOM      2  C   UNL     1      -0.721   1.559   1.251  0.00  0.00    +0.116 C 
ATOM      3  C   UNL     1      -0.019   1.695   2.386  0.00  0.00    +0.099 C 
ATOM      4  C   UNL     1      -0.679   2.189   3.642  0.00  0.00    +0.146 C 
ATOM      5  C   UNL     1      -0.248   3.602   3.945  0.00  0.00    -0.001 A 
ATOM      6  C   UNL     1      -0.378   4.792   3.265  0.00  0.00    +0.007 A 
ATOM      7  C   UNL     1       0.132   5.958   3.809  0.00  0.00    +0.000 A 
ATOM      8  C   UNL     1       0.770   5.923   5.036  0.00  0.00    +0.002 A 
ATOM      9  C   UNL     1       0.902   4.733   5.720  0.00  0.00    +0.023 A 
ATOM     10  C   UNL     1       0.391   3.555   5.179  0.00  0.00    +0.038 A 
ATOM     11  N   UNL     1       0.398   2.248   5.669  0.00  0.00    -0.284 N 
ATOM     12  C   UNL     1      -0.207   1.387   4.832  0.00  0.00    +0.238 C 
ATOM     13  O   UNL     1      -0.348   0.194   5.001  0.00  0.00    -0.274 OA
ATOM     14  C   UNL     1      -2.173   2.109   3.517  0.00  0.00    +0.083 C 
ATOM     15  C   UNL     1      -2.752   1.946   2.312  0.00  0.00    +0.197 C 
ATOM     16  O   UNL     1      -2.026   1.858   1.180  0.00  0.00    -0.445 OA
ATOM     17  H   UNL     1       0.794   1.990   6.516  0.00  0.00    +0.155 HD
ENDROOT
BRANCH  15  18
ATOM     18  N   UNL     1      -4.129   1.870   2.234  0.00  0.00    -0.328 N 
ATOM     19  H   UNL     1      -4.665   1.935   3.040  0.00  0.00    +0.145 HD
ATOM     20  H   UNL     1      -4.561   1.753   1.373  0.00  0.00    +0.145 HD
ENDBRANCH  15  18
BRANCH  14  21
ATOM     21  C   UNL     1      -2.989   2.208   4.690  0.00  0.00    -0.067 C 
ATOM     22  C   UNL     1      -3.658   2.289   5.651  0.00  0.00    +0.009 C 
ENDBRANCH  14  21
BRANCH   3  23
ATOM     23  C   UNL     1       1.359   1.370   2.401  0.00  0.00    +0.340 C 
ATOM     24  O   UNL     1       1.924   1.070   1.366  0.00  0.00    -0.245 OA
BRANCH  23  25
ATOM     25  O   UNL     1       2.046   1.394   3.562  0.00  0.00    -0.459 OA
BRANCH  25  26
ATOM     26  C   UNL     1       3.433   1.056   3.502  0.00  0.00    +0.171 C 
ATOM     27  C   UNL     1       4.256   2.321   3.258  0.00  0.00    +0.052 C 
ATOM     28  C   UNL     1       3.859   0.417   4.826  0.00  0.00    +0.052 C 
ENDBRANCH  25  26
ENDBRANCH  23  25
ENDBRANCH   3  23
TORSDOF 5
