REMARK  Name = ZINC55881643
REMARK  8 active torsions:
REMARK  status: ('A' for Active; 'I' for Inactive)
REMARK    1  A    between atoms: C_1  and  C_2
REMARK    2  A    between atoms: C_2  and  N_3
REMARK    3  A    between atoms: C_4  and  C_6
REMARK    4  A    between atoms: C_9  and  N_13
REMARK    5  A    between atoms: C_10  and  C_12
REMARK    6  A    between atoms: N_13  and  C_14
REMARK    7  A    between atoms: C_14  and  C_15
REMARK    8  A    between atoms: C_28  and  C_30
REMARK                            x       y       z     vdW  Elec       q    Type
REMARK                         _______ _______ _______ _____ _____    ______ ____
ROOT
ATOM      1  C   UNL     1       4.127  -2.727   6.928  0.00  0.00    +0.198 C 
ENDROOT
BRANCH   1   2
ATOM      2  C   UNL     1       4.802  -3.477   8.047  0.00  0.00    +0.237 C 
ATOM      3  O   UNL     1       4.823  -4.690   8.038  0.00  0.00    -0.274 OA
ATOM      4  N   UNL     1       5.382  -2.801   9.059  0.00  0.00    -0.265 N 
ATOM      5  C   UNL     1       5.360  -1.400   9.085  0.00  0.00    +0.058 A 
ATOM      6  C   UNL     1       6.136  -0.664   8.205  0.00  0.00    +0.025 A 
ATOM      7  C   UNL     1       6.119   0.717   8.261  0.00  0.00    +0.002 A 
ATOM      8  C   UNL     1       5.331   1.367   9.194  0.00  0.00    +0.002 A 
ATOM      9  C   UNL     1       4.546   0.640  10.071  0.00  0.00    +0.025 A 
ATOM     10  C   UNL     1       4.550  -0.744  10.013  0.00  0.00    +0.055 A 
ATOM     11  N   UNL     1       3.722  -1.499  10.852  0.00  0.00    -0.284 N 
ATOM     12  C   UNL     1       4.219  -2.553  11.536  0.00  0.00    +0.219 C 
ATOM     13  O   UNL     1       3.475  -3.249  12.194  0.00  0.00    -0.275 OA
ATOM     14  C   UNL     1       5.691  -2.868  11.488  0.00  0.00    +0.118 C 
ATOM     15  C   UNL     1       6.041  -3.517  10.153  0.00  0.00    +0.087 C 
ATOM     16  C   UNL     1       7.557  -3.469   9.951  0.00  0.00    +0.029 C 
ATOM     17  H   UNL     1       2.785  -1.264  10.943  0.00  0.00    +0.155 HD
ENDBRANCH   1   2
BRANCH   1  18
ATOM     18  N   UNL     1       3.580  -3.681   5.961  0.00  0.00    -0.335 N 
ATOM     19  H   UNL     1       3.686  -4.634   6.106  0.00  0.00    +0.147 HD
BRANCH  18  23
ATOM     20  C   UNL     1       1.567  -2.303   2.589  0.00  0.00    +0.037 A 
ATOM     21  C   UNL     1       2.091  -1.393   3.513  0.00  0.00    +0.015 A 
ATOM     22  C   UNL     1       2.755  -1.852   4.627  0.00  0.00    +0.024 A 
ATOM     23  C   UNL     1       2.907  -3.220   4.834  0.00  0.00    +0.030 A 
ATOM     24  C   UNL     1       2.388  -4.128   3.916  0.00  0.00    -0.029 A 
ATOM     25  C   UNL     1       1.716  -3.676   2.803  0.00  0.00    +0.018 A 
ATOM     26  C   UNL     1       2.555  -5.609   4.144  0.00  0.00    +0.045 C 
BRANCH  20  28
ATOM     27  N   UNL     1       0.711  -0.489   1.189  0.00  0.00    -0.312 N 
ATOM     28  C   UNL     1       0.854  -1.814   1.394  0.00  0.00    +0.244 C 
ATOM     29  O   UNL     1       0.395  -2.606   0.593  0.00  0.00    -0.270 OA
ATOM     30  H   UNL     1       1.077   0.142   1.827  0.00  0.00    +0.149 HD
BRANCH  27  32
ATOM     31  C   UNL     1      -0.019   1.526   0.010  0.00  0.00    +0.024 C 
ATOM     32  C   UNL     1       0.002  -0.004   0.002  0.00  0.00    +0.101 C 
ENDBRANCH  27  32
ENDBRANCH  20  28
ENDBRANCH  18  23
ENDBRANCH   1  18
TORSDOF 5
