REMARK  Name = ZINC14480129
REMARK  7 active torsions:
REMARK  status: ('A' for Active; 'I' for Inactive)
REMARK    1  A    between atoms: C_1  and  C_2
REMARK    2  A    between atoms: C_2  and  O_3
REMARK    3  A    between atoms: O_3  and  C_4
REMARK    4  A    between atoms: C_7  and  N_10
REMARK    5  A    between atoms: C_11  and  C_13
REMARK    6  A    between atoms: C_20  and  C_29
REMARK    7  A    between atoms: C_33  and  C_35
REMARK                            x       y       z     vdW  Elec       q    Type
REMARK                         _______ _______ _______ _____ _____    ______ ____
ROOT
ATOM      1  C   UNL     1      -1.276   2.016   0.037  0.00  0.00    +0.058 A 
ATOM      2  C   UNL     1      -1.364   3.407   0.067  0.00  0.00    +0.015 A 
ATOM      3  C   UNL     1      -0.219   4.172   0.079  0.00  0.00    +0.001 A 
ATOM      4  C   UNL     1       1.022   3.556   0.053  0.00  0.00    +0.006 A 
ATOM      5  C   UNL     1       1.128   2.183   0.015  0.00  0.00    -0.019 A 
ATOM      6  C   UNL     1      -0.017   1.381   0.014  0.00  0.00    +0.044 A 
ATOM      7  N   UNL     1       0.002  -0.004  -0.004  0.00  0.00    -0.336 N 
ATOM      8  C   UNL     1       1.320  -0.650  -0.108  0.00  0.00    +0.105 C 
ATOM      9  C   UNL     1       2.281   0.160   0.737  0.00  0.00    +0.029 C 
ATOM     10  C   UNL     1       2.443   1.507  -0.035  0.00  0.00    +0.049 C 
ATOM     11  C   UNL     1       3.667   2.091   0.565  0.00  0.00    -0.023 C 
ATOM     12  C   UNL     1       4.443   1.101   0.992  0.00  0.00    -0.030 C 
ATOM     13  C   UNL     1       3.760  -0.245   0.735  0.00  0.00    +0.033 C 
ATOM     14  H   UNL     1      -0.634  -0.365  -0.698  0.00  0.00    +0.147 HD
ENDROOT
BRANCH   8  15
ATOM     15  C   UNL     1       1.242  -2.062   0.413  0.00  0.00    -0.027 A 
ATOM     16  C   UNL     1       0.499  -2.341   1.545  0.00  0.00    +0.005 A 
ATOM     17  C   UNL     1       0.423  -3.637   2.020  0.00  0.00    +0.001 A 
ATOM     18  C   UNL     1       1.100  -4.652   1.369  0.00  0.00    +0.003 A 
ATOM     19  C   UNL     1       1.847  -4.372   0.241  0.00  0.00    -0.050 A 
ATOM     20  C   UNL     1       1.919  -3.077  -0.237  0.00  0.00    +0.008 A 
ATOM     21  C   UNL     1       2.585  -5.479  -0.468  0.00  0.00    +0.044 C 
ENDBRANCH   8  15
BRANCH   1  23
ATOM     22  N   UNL     1      -3.711   1.806   0.050  0.00  0.00    -0.281 N 
ATOM     23  C   UNL     1      -2.506   1.204   0.028  0.00  0.00    +0.250 C 
ATOM     24  O   UNL     1      -2.433  -0.010  -0.000  0.00  0.00    -0.270 OA
ATOM     25  H   UNL     1      -3.770   2.771   0.141  0.00  0.00    +0.155 HD
BRANCH  22  29
ATOM     26  C   UNL     1      -7.188  -0.473  -0.268  0.00  0.00    +0.121 A 
ATOM     27  C   UNL     1      -6.087  -0.978   0.410  0.00  0.00    +0.047 A 
ATOM     28  C   UNL     1      -4.936  -0.223   0.516  0.00  0.00    +0.027 A 
ATOM     29  C   UNL     1      -4.879   1.041  -0.057  0.00  0.00    +0.034 A 
ATOM     30  C   UNL     1      -5.982   1.547  -0.730  0.00  0.00    +0.027 A 
ATOM     31  C   UNL     1      -7.132   0.789  -0.840  0.00  0.00    +0.047 A 
BRANCH  26  32
ATOM     32  O   UNL     1      -8.322  -1.216  -0.371  0.00  0.00    -0.492 OA
BRANCH  32  34
ATOM     33  C   UNL     1     -10.594  -1.611  -1.093  0.00  0.00    +0.048 C 
ATOM     34  C   UNL     1      -9.416  -0.635  -1.082  0.00  0.00    +0.225 C 
ENDBRANCH  32  34
ENDBRANCH  26  32
ENDBRANCH  22  29
ENDBRANCH   1  23
TORSDOF 5
