REMARK  Name = ZINC55475912
REMARK  8 active torsions:
REMARK  status: ('A' for Active; 'I' for Inactive)
REMARK    1  A    between atoms: C_1  and  C_2
REMARK    2  A    between atoms: C_3  and  C_24
REMARK    3  A    between atoms: C_4  and  C_23
REMARK    4  A    between atoms: C_7  and  C_8
REMARK    5  A    between atoms: N_10  and  C_11
REMARK    6  A    between atoms: N_18  and  C_20
REMARK    7  A    between atoms: C_24  and  O_26
REMARK    8  A    between atoms: O_26  and  C_27
REMARK                            x       y       z     vdW  Elec       q    Type
REMARK                         _______ _______ _______ _____ _____    ______ ____
ROOT
ATOM      1  C   UNL     1       0.032  -0.383   2.495  0.00  0.00    +0.261 C 
ATOM      2  O   UNL     1       0.019   0.804   2.761  0.00  0.00    -0.269 OA
ATOM      3  N   UNL     1       0.054  -1.296   3.486  0.00  0.00    -0.307 N 
ATOM      4  H   UNL     1       0.065  -2.242   3.273  0.00  0.00    +0.149 HD
ENDROOT
BRANCH   3   5
ATOM      5  C   UNL     1       0.063  -0.860   4.881  0.00  0.00    +0.076 C 
ATOM      6  C   UNL     1       1.495  -0.595   5.351  0.00  0.00    -0.007 C 
ATOM      7  C   UNL     1       2.341  -1.849   5.163  0.00  0.00    +0.003 C 
ATOM      8  C   UNL     1       1.765  -3.050   5.900  0.00  0.00    +0.001 C 
ATOM      9  C   UNL     1       0.277  -3.238   5.649  0.00  0.00    +0.003 C 
ATOM     10  C   UNL     1      -0.520  -1.949   5.784  0.00  0.00    -0.007 C 
ATOM     11  C   UNL     1      -0.535  -1.446   7.224  0.00  0.00    -0.073 C 
ATOM     12  N   UNL     1       0.787  -1.050   7.699  0.00  0.00    +0.382 N 
ATOM     13  C   UNL     1       1.482  -0.133   6.801  0.00  0.00    -0.073 C 
ATOM     14  H   UNL     1       1.352  -1.864   7.879  0.00  0.00    -0.081 HD
BRANCH  12  15
ATOM     15  C   UNL     1       0.619  -0.374   8.993  0.00  0.00    -0.069 C 
ATOM     16  C   UNL     1       1.475  -0.864  10.162  0.00  0.00    -0.017 C 
ATOM     17  C   UNL     1      -0.023  -1.174  10.129  0.00  0.00    -0.017 C 
ENDBRANCH  12  15
ENDBRANCH   3   5
BRANCH   1  24
ATOM     18  C   UNL     1      -0.018   1.503   0.010  0.00  0.00    +0.047 C 
ATOM     19  C   UNL     1       0.002  -0.004   0.002  0.00  0.00    -0.006 A 
ATOM     20  C   UNL     1       0.008  -0.839  -1.139  0.00  0.00    +0.083 A 
ATOM     21  C   UNL     1       0.028  -2.145  -0.686  0.00  0.00    +0.028 A 
ATOM     22  N   UNL     1       0.034  -2.127   0.656  0.00  0.00    -0.354 N 
ATOM     23  H   UNL     1       0.047  -2.911   1.228  0.00  0.00    +0.166 HD
ATOM     24  C   UNL     1       0.024  -0.821   1.093  0.00  0.00    +0.106 A 
ATOM     25  C   UNL     1       0.041  -3.378  -1.552  0.00  0.00    +0.064 C 
BRANCH  20  26
ATOM     26  C   UNL     1      -0.005  -0.400  -2.544  0.00  0.00    +0.341 C 
ATOM     27  O   UNL     1       1.042  -0.204  -3.130  0.00  0.00    -0.245 OA
BRANCH  26  28
ATOM     28  O   UNL     1      -1.178  -0.215  -3.182  0.00  0.00    -0.464 OA
ATOM     29  C   UNL     1      -1.115   0.211  -4.545  0.00  0.00    +0.280 C 
ENDBRANCH  26  28
ENDBRANCH  20  26
ENDBRANCH   1  24
TORSDOF 5
