REMARK  Name = ZINC16856704
REMARK  6 active torsions:
REMARK  status: ('A' for Active; 'I' for Inactive)
REMARK    1  A    between atoms: C_1  and  C_2
REMARK    2  A    between atoms: C_4  and  O_23
REMARK    3  A    between atoms: C_10  and  C_11
REMARK    4  A    between atoms: N_13  and  N_14
REMARK    5  A    between atoms: C_15  and  C_16
REMARK    6  A    between atoms: C_21  and  O_22
REMARK                            x       y       z     vdW  Elec       q    Type
REMARK                         _______ _______ _______ _____ _____    ______ ____
ROOT
ATOM      1  C   UNL     1      -1.156  -0.694   0.009  0.00  0.00    +0.270 C 
ATOM      2  O   UNL     1      -2.218  -0.100   0.023  0.00  0.00    -0.268 OA
ATOM      3  N   UNL     1       0.002  -0.004   0.002  0.00  0.00    -0.203 N 
ATOM      4  H   UNL     1       0.849  -0.478  -0.009  0.00  0.00    +0.178 HD
ENDROOT
BRANCH   1  14
ATOM      5  C   UNL     1      -3.599  -2.494   0.036  0.00  0.00    +0.046 C 
ATOM      6  C   UNL     1      -2.189  -3.024   0.012  0.00  0.00    -0.017 A 
ATOM      7  C   UNL     1      -1.958  -4.407  -0.003  0.00  0.00    +0.073 A 
ATOM      8  C   UNL     1      -2.897  -5.478  -0.000  0.00  0.00    +0.224 A 
ATOM      9  N   UNL     1      -2.455  -6.723  -0.011  0.00  0.00    -0.201 NA
ATOM     10  C   UNL     1      -1.167  -7.015  -0.024  0.00  0.00    +0.226 A 
ATOM     11  N   UNL     1      -0.247  -6.070  -0.028  0.00  0.00    -0.228 NA
ATOM     12  C   UNL     1      -0.596  -4.800  -0.018  0.00  0.00    +0.116 A 
ATOM     13  S   UNL     1       0.275  -3.255  -0.017  0.00  0.00    -0.064 S 
ATOM     14  C   UNL     1      -1.136  -2.162   0.001  0.00  0.00    +0.081 A 
BRANCH   8  15
ATOM     15  O   UNL     1      -4.226  -5.223   0.013  0.00  0.00    -0.492 OA
ATOM     16  H   UNL     1      -4.605  -5.154   0.900  0.00  0.00    +0.294 HD
ENDBRANCH   8  15
ENDBRANCH   1  14
BRANCH   3  17
ATOM     17  N   UNL     1      -0.017   1.397   0.010  0.00  0.00    -0.187 NA
ATOM     18  C   UNL     1       1.099   2.061   0.003  0.00  0.00    +0.142 C 
BRANCH  18  19
ATOM     19  C   UNL     1       1.079   3.535   0.011  0.00  0.00    +0.036 A 
ATOM     20  C   UNL     1       2.276   4.253   0.009  0.00  0.00    +0.013 A 
ATOM     21  C   UNL     1       2.250   5.632   0.010  0.00  0.00    +0.001 A 
ATOM     22  C   UNL     1       1.042   6.308   0.026  0.00  0.00    +0.004 A 
ATOM     23  C   UNL     1      -0.150   5.608   0.034  0.00  0.00    +0.046 A 
ATOM     24  C   UNL     1      -0.142   4.223   0.026  0.00  0.00    +0.125 A 
BRANCH  24  25
ATOM     25  O   UNL     1      -1.313   3.534   0.033  0.00  0.00    -0.506 OA
ATOM     26  H   UNL     1      -1.644   3.330   0.919  0.00  0.00    +0.292 HD
ENDBRANCH  24  25
ENDBRANCH  18  19
ENDBRANCH   3  17
TORSDOF 5
