REMARK  Name = ZINC21510819
REMARK  4 active torsions:
REMARK  status: ('A' for Active; 'I' for Inactive)
REMARK    1  A    between atoms: C_3  and  O_20
REMARK    2  A    between atoms: C_6  and  C_7
REMARK    3  A    between atoms: C_9  and  C_12
REMARK    4  A    between atoms: C_17  and  N_18
REMARK                            x       y       z     vdW  Elec       q    Type
REMARK                         _______ _______ _______ _____ _____    ______ ____
ROOT
ATOM      1  C   UNL     1      -3.554   2.091  -0.089  0.00  0.00    +0.202 A 
ATOM      2  N   UNL     1      -2.581   1.157  -0.132  0.00  0.00    -0.187 NA
ATOM      3  C   UNL     1      -1.446   1.823  -0.019  0.00  0.00    +0.261 A 
ATOM      4  O   UNL     1      -1.767   3.123   0.078  0.00  0.00    -0.332 OA
ATOM      5  N   UNL     1      -2.971   3.256   0.037  0.00  0.00    -0.056 NA
ENDROOT
BRANCH   3   6
ATOM      6  C   UNL     1      -0.087   1.250  -0.009  0.00  0.00    +0.061 A 
ATOM      7  C   UNL     1       0.091  -0.136  -0.006  0.00  0.00    +0.035 A 
ATOM      8  C   UNL     1       1.364  -0.666  -0.002  0.00  0.00    +0.042 A 
ATOM      9  C   UNL     1       2.470   0.170  -0.001  0.00  0.00    +0.022 A 
ATOM     10  C   UNL     1       2.309   1.541  -0.005  0.00  0.00    +0.025 A 
ATOM     11  C   UNL     1       1.034   2.092  -0.009  0.00  0.00    +0.037 A 
ATOM     12 CL   UNL     1       1.583  -2.388   0.003  0.00  0.00    -0.084 Cl
BRANCH  11  13
ATOM     13  N   UNL     1       0.870   3.474  -0.012  0.00  0.00    -0.357 N 
ATOM     14  H   UNL     1       1.751   4.133  -0.012  0.00  0.00    +0.142 HD
ATOM     15  H   UNL     1      -0.141   3.908  -0.016  0.00  0.00    +0.142 HD
ENDBRANCH  11  13
ENDBRANCH   3   6
BRANCH   1  21
ATOM     16  C   UNL     1      -5.495   0.543  -0.314  0.00  0.00    +0.015 A 
ATOM     17  C   UNL     1      -6.853   0.315  -0.390  0.00  0.00    +0.046 A 
ATOM     18  C   UNL     1      -7.741   1.382  -0.337  0.00  0.00    +0.117 A 
ATOM     19  C   UNL     1      -7.264   2.679  -0.203  0.00  0.00    +0.046 A 
ATOM     20  C   UNL     1      -5.908   2.912  -0.122  0.00  0.00    +0.015 A 
ATOM     21  C   UNL     1      -5.014   1.843  -0.175  0.00  0.00    +0.023 A 
BRANCH  18  22
ATOM     22  O   UNL     1      -9.078   1.155  -0.416  0.00  0.00    -0.507 OA
ATOM     23  H   UNL     1      -9.782   1.999  -0.375  0.00  0.00    +0.292 HD
ENDBRANCH  18  22
ENDBRANCH   1  21
TORSDOF 4
