REMARK  Name = ZINC37381162
REMARK  6 active torsions:
REMARK  status: ('A' for Active; 'I' for Inactive)
REMARK    1  A    between atoms: C_1  and  C_2
REMARK    2  A    between atoms: C_2  and  C_4
REMARK    3  A    between atoms: C_2  and  S_15
REMARK    4  A    between atoms: N_6  and  C_7
REMARK    5  A    between atoms: C_11  and  N_13
REMARK    6  A    between atoms: S_15  and  C_16
REMARK                            x       y       z     vdW  Elec       q    Type
REMARK                         _______ _______ _______ _____ _____    ______ ____
ROOT
ATOM      1  C   UNL     1       0.624  -0.277  -1.270  0.00  0.00    +0.230 C 
ATOM      2  O   UNL     1      -0.073  -0.605  -2.207  0.00  0.00    -0.274 OA
ATOM      3  N   UNL     1       1.965  -0.259  -1.401  0.00  0.00    -0.285 N 
ATOM      4  H   UNL     1       2.525  -0.061  -0.634  0.00  0.00    +0.155 HD
ENDROOT
BRANCH   3   5
ATOM      5  C   UNL     1       2.551  -0.527  -2.644  0.00  0.00    +0.035 A 
ATOM      6  C   UNL     1       3.713   0.133  -3.021  0.00  0.00    +0.026 A 
ATOM      7  C   UNL     1       4.292  -0.130  -4.248  0.00  0.00    +0.042 A 
ATOM      8  C   UNL     1       3.716  -1.050  -5.105  0.00  0.00    +0.144 A 
ATOM      9  C   UNL     1       2.551  -1.714  -4.732  0.00  0.00    +0.062 A 
ATOM     10  C   UNL     1       1.973  -1.456  -3.498  0.00  0.00    +0.049 A 
ATOM     11  F   UNL     1       4.284  -1.304  -6.304  0.00  0.00    -0.204 F 
BRANCH   9  12
ATOM     12  N   UNL     1       1.968  -2.644  -5.598  0.00  0.00    -0.356 N 
ATOM     13  H   UNL     1       2.375  -2.826  -6.460  0.00  0.00    +0.142 HD
ATOM     14  H   UNL     1       1.156  -3.106  -5.338  0.00  0.00    +0.142 HD
ENDBRANCH   9  12
ENDBRANCH   3   5
BRANCH   1  16
ATOM     15  C   UNL     1      -0.171   1.631   0.100  0.00  0.00    +0.029 C 
ATOM     16  C   UNL     1      -0.010   0.110   0.041  0.00  0.00    +0.134 C 
BRANCH  16  17
ATOM     17  S   UNL     1      -1.639  -0.676   0.181  0.00  0.00    -0.112 S 
BRANCH  17  18
ATOM     18  C   UNL     1      -1.270  -2.386   0.389  0.00  0.00    +0.023 A 
ATOM     19  C   UNL     1       0.049  -2.803   0.523  0.00  0.00    +0.016 A 
ATOM     20  C   UNL     1       0.335  -4.144   0.686  0.00  0.00    +0.001 A 
ATOM     21  C   UNL     1      -0.690  -5.073   0.715  0.00  0.00    +0.001 A 
ATOM     22  C   UNL     1      -2.004  -4.663   0.582  0.00  0.00    +0.016 A 
ATOM     23  C   UNL     1      -2.298  -3.322   0.424  0.00  0.00    +0.031 A 
ATOM     24 BR   UNL     1      -4.095  -2.761   0.249  0.00  0.00    -0.049 Br
ENDBRANCH  17  18
ENDBRANCH  16  17
ENDBRANCH   1  16
TORSDOF 5
