REMARK  Name = ZINC44137426
REMARK  10 active torsions:
REMARK  status: ('A' for Active; 'I' for Inactive)
REMARK    1  A    between atoms: C_1  and  C_2
REMARK    2  A    between atoms: C_4  and  C_30
REMARK    3  A    between atoms: C_5  and  S_9
REMARK    4  A    between atoms: C_6  and  C_8
REMARK    5  A    between atoms: S_9  and  N_12
REMARK    6  A    between atoms: N_12  and  C_13
REMARK    7  A    between atoms: C_13  and  C_15
REMARK    8  A    between atoms: C_13  and  C_21
REMARK    9  A    between atoms: C_21  and  C_23
REMARK   10  A    between atoms: C_21  and  N_29
REMARK                            x       y       z     vdW  Elec       q    Type
REMARK                         _______ _______ _______ _____ _____    ______ ____
ROOT
ATOM      1  C   UNL     1       1.541  -5.579   1.452  0.00  0.00    +0.096 C 
ENDROOT
BRANCH   1   2
ATOM      2  C   UNL     1       2.602  -4.635   0.949  0.00  0.00    -0.030 A 
ATOM      3  C   UNL     1       3.013  -4.694  -0.369  0.00  0.00    +0.005 A 
ATOM      4  C   UNL     1       3.986  -3.828  -0.830  0.00  0.00    +0.000 A 
ATOM      5  C   UNL     1       4.550  -2.902   0.028  0.00  0.00    +0.000 A 
ATOM      6  C   UNL     1       4.139  -2.841   1.346  0.00  0.00    +0.000 A 
ATOM      7  C   UNL     1       3.162  -3.705   1.806  0.00  0.00    +0.005 A 
ENDBRANCH   1   2
BRANCH   1   8
ATOM      8  N   UNL     1       0.505  -5.738   0.428  0.00  0.00    -0.184 NA
ATOM      9  H   UNL     1       0.662  -6.316  -0.335  0.00  0.00    +0.149 HD
BRANCH   8  10
ATOM     10  S   UNL     1      -0.934  -4.932   0.574  0.00  0.00    +0.059 S 
ATOM     11  O   UNL     1      -1.395  -5.160   1.899  0.00  0.00    -0.153 OA
ATOM     12  O   UNL     1      -1.707  -5.269  -0.570  0.00  0.00    -0.153 OA
BRANCH  10  17
ATOM     13  C   UNL     1       0.278   0.964   0.159  0.00  0.00    +0.044 C 
ATOM     14  C   UNL     1      -0.025  -0.508   0.263  0.00  0.00    -0.050 A 
ATOM     15  C   UNL     1      -0.133  -1.106   1.505  0.00  0.00    +0.008 A 
ATOM     16  C   UNL     1      -0.411  -2.457   1.600  0.00  0.00    -0.024 A 
ATOM     17  C   UNL     1      -0.581  -3.210   0.453  0.00  0.00    +0.111 A 
ATOM     18  C   UNL     1      -0.473  -2.612  -0.789  0.00  0.00    -0.024 A 
ATOM     19  C   UNL     1      -0.200  -1.260  -0.884  0.00  0.00    +0.008 A 
ATOM     20  C   UNL     1      -0.658  -3.433  -2.039  0.00  0.00    +0.046 C 
ATOM     21  C   UNL     1      -0.529  -3.108   2.954  0.00  0.00    +0.046 C 
ENDBRANCH  10  17
ENDBRANCH   8  10
ENDBRANCH   1   8
BRANCH   1  22
ATOM     22  C   UNL     1       2.171  -6.940   1.756  0.00  0.00    -0.021 C 
BRANCH  22  23
ATOM     23  C   UNL     1       3.149  -6.798   2.893  0.00  0.00    -0.060 A 
ATOM     24  C   UNL     1       2.692  -6.763   4.197  0.00  0.00    +0.002 A 
ATOM     25  C   UNL     1       3.589  -6.632   5.241  0.00  0.00    +0.000 A 
ATOM     26  C   UNL     1       4.944  -6.537   4.980  0.00  0.00    +0.000 A 
ATOM     27  C   UNL     1       5.401  -6.573   3.676  0.00  0.00    +0.000 A 
ATOM     28  C   UNL     1       4.504  -6.708   2.633  0.00  0.00    +0.002 A 
ENDBRANCH  22  23
BRANCH  22  29
ATOM     29  N   UNL     1       1.119  -7.894   2.131  0.00  0.00    +0.384 N 
ATOM     30  H   UNL     1       0.464  -7.989   1.369  0.00  0.00    -0.089 HD
ATOM     31  H   UNL     1       1.535  -8.791   2.331  0.00  0.00    -0.089 HD
ATOM     32  H   UNL     1       0.636  -7.557   2.950  0.00  0.00    -0.089 HD
ENDBRANCH  22  29
ENDBRANCH   1  22
TORSDOF 7
