REMARK  Name = ZINC67019952
REMARK  7 active torsions:
REMARK  status: ('A' for Active; 'I' for Inactive)
REMARK    1  A    between atoms: C_1  and  C_2
REMARK    2  A    between atoms: C_3  and  C_14
REMARK    3  A    between atoms: C_4  and  C_13
REMARK    4  A    between atoms: C_14  and  C_15
REMARK    5  A    between atoms: N_17  and  C_18
REMARK    6  A    between atoms: C_23  and  C_24
REMARK    7  A    between atoms: C_24  and  N_25
REMARK                            x       y       z     vdW  Elec       q    Type
REMARK                         _______ _______ _______ _____ _____    ______ ____
ROOT
ATOM      1  C   UNL     1      -2.893   0.353   1.435  0.00  0.00    +0.222 C 
ATOM      2  O   UNL     1      -2.157   0.041   2.346  0.00  0.00    -0.275 OA
ATOM      3  N   UNL     1      -4.038   1.016   1.690  0.00  0.00    -0.285 N 
ATOM      4  H   UNL     1      -4.587   1.337   0.957  0.00  0.00    +0.155 HD
ENDROOT
BRANCH   3   5
ATOM      5  C   UNL     1      -4.435   1.243   3.012  0.00  0.00    +0.038 A 
ATOM      6  C   UNL     1      -3.994   0.402   4.025  0.00  0.00    +0.023 A 
ATOM      7  C   UNL     1      -4.388   0.628   5.329  0.00  0.00    +0.002 A 
ATOM      8  C   UNL     1      -5.221   1.691   5.627  0.00  0.00    +0.000 A 
ATOM      9  C   UNL     1      -5.662   2.531   4.620  0.00  0.00    +0.007 A 
ATOM     10  C   UNL     1      -5.267   2.313   3.315  0.00  0.00    -0.005 A 
BRANCH  10  11
ATOM     11  C   UNL     1      -5.742   3.233   2.220  0.00  0.00    +0.180 C 
BRANCH  11  12
ATOM     12  N   UNL     1      -6.936   2.665   1.590  0.00  0.00    -0.267 N 
ATOM     13  C   UNL     1      -8.127   3.284   1.444  0.00  0.00    +0.108 A 
ATOM     14  C   UNL     1      -8.963   2.425   0.815  0.00  0.00    +0.041 A 
ATOM     15  C   UNL     1      -8.260   1.242   0.568  0.00  0.00    +0.134 A 
ATOM     16  N   UNL     1      -7.043   1.387   1.027  0.00  0.00    -0.179 NA
ENDBRANCH  11  12
ENDBRANCH  10  11
ENDBRANCH   3   5
BRANCH   1  17
ATOM     17  C   UNL     1      -2.527  -0.000   0.016  0.00  0.00    +0.134 C 
BRANCH  17  20
ATOM     18  C   UNL     1      -0.025   1.486  -0.009  0.00  0.00    +0.066 C 
ATOM     19  C   UNL     1      -0.006  -0.021  -0.007  0.00  0.00    +0.046 A 
ATOM     20  C   UNL     1      -1.210  -0.733   0.005  0.00  0.00    +0.003 A 
ATOM     21  C   UNL     1      -1.181  -2.092   0.006  0.00  0.00    +0.045 A 
ATOM     22  N   UNL     1       0.019  -2.730  -0.004  0.00  0.00    -0.238 N 
ATOM     23  C   UNL     1       1.181  -2.000  -0.015  0.00  0.00    +0.158 A 
ATOM     24  N   UNL     1       1.142  -0.662  -0.022  0.00  0.00    -0.233 NA
ATOM     25  C   UNL     1       2.242  -2.903  -0.024  0.00  0.00    +0.119 A 
ATOM     26  C   UNL     1       1.704  -4.189  -0.017  0.00  0.00    +0.267 A 
ATOM     27  O   UNL     1       2.342  -5.230  -0.022  0.00  0.00    -0.266 OA
ATOM     28  N   UNL     1       0.361  -4.088  -0.006  0.00  0.00    -0.258 N 
ATOM     29  H   UNL     1      -0.263  -4.830   0.001  0.00  0.00    +0.191 HD
ATOM     30  C   UNL     1      -2.465  -2.882   0.019  0.00  0.00    +0.066 C 
ENDBRANCH  17  20
ENDBRANCH   1  17
TORSDOF 5
