REMARK  Name = ZINC00152450
REMARK  4 active torsions:
REMARK  status: ('A' for Active; 'I' for Inactive)
REMARK    1  A    between atoms: C_1  and  C_2
REMARK    2  A    between atoms: C_5  and  C_8
REMARK    3  A    between atoms: C_13  and  N_17
REMARK    4  A    between atoms: N_17  and  N_18
REMARK                            x       y       z     vdW  Elec       q    Type
REMARK                         _______ _______ _______ _____ _____    ______ ____
ROOT
ATOM      1  C   UNL     1       2.265   0.867  -0.433  0.00  0.00    +0.002 A 
ATOM      2  C   UNL     1       1.728   2.105  -0.338  0.00  0.00    +0.056 A 
ATOM      3  S   UNL     1      -0.028   1.796  -0.300  0.00  0.00    -0.076 S 
ATOM      4  C   UNL     1      -0.003   0.026  -0.413  0.00  0.00    +0.114 A 
ATOM      5  C   UNL     1       1.371  -0.285  -0.477  0.00  0.00    +0.056 A 
ATOM      6  C   UNL     1       1.679  -1.668  -0.575  0.00  0.00    +0.144 A 
ATOM      7  N   UNL     1       0.692  -2.550  -0.599  0.00  0.00    -0.219 NA
ATOM      8  C   UNL     1      -0.577  -2.186  -0.535  0.00  0.00    +0.224 A 
ATOM      9  N   UNL     1      -0.924  -0.917  -0.443  0.00  0.00    -0.228 NA
ENDROOT
BRANCH   1  14
ATOM     10  C   UNL     1       7.974   0.158  -0.665  0.00  0.00    +0.044 C 
ATOM     11  C   UNL     1       6.480   0.343  -0.604  0.00  0.00    -0.050 A 
ATOM     12  C   UNL     1       5.845   1.132  -1.546  0.00  0.00    +0.004 A 
ATOM     13  C   UNL     1       4.477   1.306  -1.496  0.00  0.00    +0.009 A 
ATOM     14  C   UNL     1       3.735   0.684  -0.493  0.00  0.00    -0.017 A 
ATOM     15  C   UNL     1       4.381  -0.106   0.457  0.00  0.00    +0.009 A 
ATOM     16  C   UNL     1       5.749  -0.277   0.393  0.00  0.00    +0.004 A 
ENDBRANCH   1  14
BRANCH   6  17
ATOM     17  N   UNL     1       2.995  -2.089  -0.645  0.00  0.00    -0.267 N 
ATOM     18  H   UNL     1       3.676  -1.494  -0.993  0.00  0.00    +0.167 HD
BRANCH  17  19
ATOM     19  N   UNL     1       3.334  -3.344  -0.224  0.00  0.00    -0.255 NA
ATOM     20  H   UNL     1       4.323  -3.507  -0.335  0.00  0.00    +0.140 HD
ATOM     21  H   UNL     1       3.048  -3.494   0.732  0.00  0.00    +0.140 HD
ENDBRANCH  17  19
ENDBRANCH   6  17
TORSDOF 3
