REMARK  Name = ZINC37409793
REMARK  7 active torsions:
REMARK  status: ('A' for Active; 'I' for Inactive)
REMARK    1  A    between atoms: C_1  and  C_2
REMARK    2  A    between atoms: C_8  and  N_10
REMARK    3  A    between atoms: C_11  and  C_13
REMARK    4  A    between atoms: C_13  and  C_35
REMARK    5  A    between atoms: N_25  and  C_26
REMARK    6  A    between atoms: C_26  and  C_27
REMARK    7  A    between atoms: C_27  and  N_28
REMARK                            x       y       z     vdW  Elec       q    Type
REMARK                         _______ _______ _______ _____ _____    ______ ____
ROOT
ATOM      1  C   UNL     1       4.136   0.597   2.445  0.00  0.00    +0.128 C 
ATOM      2  C   UNL     1       4.097   2.118   2.590  0.00  0.00    +0.157 C 
ATOM      3  N   UNL     1       3.740   2.715   1.299  0.00  0.00    -0.331 N 
ATOM      4  C   UNL     1       3.087   3.878   1.023  0.00  0.00    +0.088 A 
ATOM      5  C   UNL     1       2.445   5.020   1.560  0.00  0.00    +0.067 A 
ATOM      6  C   UNL     1       2.028   5.768   0.524  0.00  0.00    +0.198 A 
ATOM      7  O   UNL     1       2.369   5.166  -0.628  0.00  0.00    -0.461 OA
ATOM      8  C   UNL     1       3.013   4.010  -0.364  0.00  0.00    +0.153 A 
ATOM      9  C   UNL     1       3.635   2.887  -0.931  0.00  0.00    +0.079 A 
ATOM     10  C   UNL     1       4.070   2.099   0.094  0.00  0.00    +0.109 A 
ATOM     11  C   UNL     1       4.761   0.804   0.076  0.00  0.00    +0.264 C 
ATOM     12  O   UNL     1       5.210   0.332  -0.952  0.00  0.00    -0.268 OA
ATOM     13  N   UNL     1       4.873   0.165   1.264  0.00  0.00    -0.282 N 
ATOM     14  C   UNL     1       4.801   0.001   3.688  0.00  0.00    +0.043 C 
ENDROOT
BRANCH   1  16
ATOM     15  N   UNL     1       2.112  -0.004   1.156  0.00  0.00    -0.310 N 
ATOM     16  C   UNL     1       2.723   0.080   2.354  0.00  0.00    +0.238 C 
ATOM     17  O   UNL     1       2.136  -0.261   3.360  0.00  0.00    -0.273 OA
ATOM     18  H   UNL     1       2.581   0.268   0.352  0.00  0.00    +0.149 HD
BRANCH  15  25
ATOM     19  C   UNL     1       0.052   1.579  -0.123  0.00  0.00    +0.009 C 
ATOM     20  C   UNL     1       0.072   0.051  -0.191  0.00  0.00    +0.006 C 
ATOM     21  C   UNL     1       0.858  -0.395  -1.425  0.00  0.00    +0.005 C 
ATOM     22  C   UNL     1       0.878  -1.924  -1.493  0.00  0.00    +0.000 C 
ATOM     23  C   UNL     1       1.545  -2.481  -0.234  0.00  0.00    +0.002 C 
ATOM     24  C   UNL     1       0.759  -2.035   1.000  0.00  0.00    +0.022 C 
ATOM     25  C   UNL     1       0.739  -0.507   1.068  0.00  0.00    +0.076 C 
ENDBRANCH  15  25
ENDBRANCH   1  16
BRANCH  13  26
ATOM     26  C   UNL     1       5.760  -0.997   1.365  0.00  0.00    +0.091 C 
BRANCH  26  27
ATOM     27  C   UNL     1       4.976  -2.268   1.035  0.00  0.00    -0.060 C 
BRANCH  27  28
ATOM     28  N   UNL     1       5.892  -3.416   1.012  0.00  0.00    +0.381 N 
ATOM     29  C   UNL     1       5.175  -4.583   0.462  0.00  0.00    -0.079 C 
ATOM     30  C   UNL     1       6.191  -5.534  -0.119  0.00  0.00    -0.019 C 
ATOM     31  C   UNL     1       6.567  -6.639   0.885  0.00  0.00    -0.002 C 
ATOM     32  C   UNL     1       6.716  -6.087   2.317  0.00  0.00    -0.002 C 
ATOM     33  C   UNL     1       7.427  -4.758   2.348  0.00  0.00    -0.019 C 
ATOM     34  C   UNL     1       6.381  -3.625   2.303  0.00  0.00    -0.079 C 
ATOM     35  H   UNL     1       6.667  -3.199   0.404  0.00  0.00    -0.082 HD
ENDBRANCH  27  28
ENDBRANCH  26  27
ENDBRANCH  13  26
TORSDOF 5
