REMARK  Name = ZINC67172771
REMARK  2 active torsions:
REMARK  status: ('A' for Active; 'I' for Inactive)
REMARK    1  A    between atoms: C_14  and  C_17
REMARK    2  A    between atoms: C_17  and  N_18
REMARK                            x       y       z     vdW  Elec       q    Type
REMARK                         _______ _______ _______ _____ _____    ______ ____
ROOT
ATOM      1  C   UNL     1      -0.016   1.305   0.009  0.00  0.00    +0.227 A 
ATOM      2  N   UNL     1       1.074   2.051   0.003  0.00  0.00    -0.197 NA
ATOM      3  C   UNL     1       2.276   1.472  -0.012  0.00  0.00    +0.289 A 
ATOM      4  O   UNL     1       3.407   2.220  -0.018  0.00  0.00    -0.265 OA
ATOM      5  C   UNL     1       2.338   0.099  -0.020  0.00  0.00    +0.126 A 
ATOM      6  C   UNL     1       1.167  -0.694  -0.013  0.00  0.00    +0.176 A 
ATOM      7  N   UNL     1       0.002  -0.004   0.002  0.00  0.00    -0.215 NA
ATOM      8  N   UNL     1       1.358  -2.018  -0.021  0.00  0.00    -0.205 NA
ATOM      9  C   UNL     1       2.558  -2.562  -0.035  0.00  0.00    +0.164 A 
ATOM     10  S   UNL     1       3.623  -1.125  -0.038  0.00  0.00    -0.045 S 
ATOM     11  N   UNL     1       2.904  -3.895  -0.045  0.00  0.00    -0.310 N 
ATOM     12  C   UNL     1       4.316  -4.303  -0.054  0.00  0.00    +0.107 C 
ATOM     13  C   UNL     1       4.556  -5.274   1.106  0.00  0.00    +0.020 C 
ATOM     14  C   UNL     1       3.566  -6.436   1.006  0.00  0.00    -0.026 C 
ATOM     15  C   UNL     1       2.136  -5.902   1.112  0.00  0.00    +0.020 C 
ATOM     16  C   UNL     1       1.869  -4.938  -0.042  0.00  0.00    +0.107 C 
ENDROOT
BRANCH  14  17
ATOM     17  C   UNL     1       3.825  -7.426   2.143  0.00  0.00    -0.083 C 
BRANCH  17  18
ATOM     18  N   UNL     1       2.957  -8.600   1.979  0.00  0.00    +0.378 N 
ATOM     19  H   UNL     1       1.991  -8.309   2.000  0.00  0.00    -0.090 HD
ATOM     20  H   UNL     1       3.155  -9.044   1.095  0.00  0.00    -0.090 HD
ATOM     21  H   UNL     1       3.128  -9.252   2.729  0.00  0.00    -0.090 HD
ENDBRANCH  17  18
ENDBRANCH  14  17
TORSDOF 2
