REMARK  Name = ZINC21166110
REMARK  12 active torsions:
REMARK  status: ('A' for Active; 'I' for Inactive)
REMARK    1  A    between atoms: C_1  and  C_2
REMARK    2  A    between atoms: C_4  and  C_29
REMARK    3  A    between atoms: C_6  and  N_8
REMARK    4  A    between atoms: N_8  and  C_9
REMARK    5  A    between atoms: C_9  and  C_10
REMARK    6  A    between atoms: C_10  and  C_11
REMARK    7  A    between atoms: C_13  and  C_15
REMARK    8  A    between atoms: C_15  and  S_16
REMARK    9  A    between atoms: S_16  and  C_17
REMARK   10  A    between atoms: C_20  and  C_23
REMARK   11  A    between atoms: N_21  and  N_22
REMARK   12  A    between atoms: C_27  and  C_28
REMARK                            x       y       z     vdW  Elec       q    Type
REMARK                         _______ _______ _______ _____ _____    ______ ____
ROOT
ATOM      1  C   UNL     1      -1.318   1.931  -0.243  0.00  0.00    +0.173 C 
ENDROOT
BRANCH   1   3
ATOM      2  N   UNL     1       1.143   1.898   0.001  0.00  0.00    -0.270 N 
ATOM      3  C   UNL     1       0.008   1.216  -0.247  0.00  0.00    +0.230 C 
ATOM      4  O   UNL     1       0.055   0.026  -0.480  0.00  0.00    -0.274 OA
BRANCH   2  10
ATOM      5  C   UNL     1       4.059  -1.266   2.380  0.00  0.00    +0.044 C 
ATOM      6  C   UNL     1       3.803  -0.321   1.234  0.00  0.00    -0.048 A 
ATOM      7  C   UNL     1       4.775  -0.126   0.270  0.00  0.00    +0.006 A 
ATOM      8  C   UNL     1       4.544   0.741  -0.783  0.00  0.00    -0.048 A 
ATOM      9  C   UNL     1       3.341   1.413  -0.875  0.00  0.00    +0.027 A 
ATOM     10  C   UNL     1       2.363   1.219   0.092  0.00  0.00    +0.037 A 
ATOM     11  C   UNL     1       2.601   0.353   1.151  0.00  0.00    +0.027 A 
ATOM     12  C   UNL     1       5.606   0.951  -1.831  0.00  0.00    +0.044 C 
ENDBRANCH   2  10
BRANCH   2  13
ATOM     13  C   UNL     1       1.100   3.352   0.177  0.00  0.00    +0.128 C 
BRANCH  13  14
ATOM     14  C   UNL     1       0.881   3.681   1.655  0.00  0.00    +0.138 C 
BRANCH  14  15
ATOM     15  C   UNL     1       0.838   5.142   1.832  0.00  0.00    +0.064 C 
ATOM     16  N   UNL     1       0.804   6.269   1.968  0.00  0.00    -0.197 NA
ENDBRANCH  14  15
ENDBRANCH  13  14
ENDBRANCH   2  13
ENDBRANCH   1   3
BRANCH   1  17
ATOM     17  S   UNL     1      -2.640   0.753  -0.616  0.00  0.00    -0.075 S 
BRANCH  17  18
ATOM     18  C   UNL     1      -4.035   1.827  -0.547  0.00  0.00    +0.209 A 
ATOM     19  N   UNL     1      -4.015   3.115  -0.288  0.00  0.00    -0.121 NA
ATOM     20  N   UNL     1      -5.209   3.590  -0.318  0.00  0.00    -0.127 NA
ATOM     21  C   UNL     1      -6.065   2.635  -0.597  0.00  0.00    +0.185 A 
ATOM     22  N   UNL     1      -5.340   1.477  -0.758  0.00  0.00    -0.224 N 
BRANCH  21  23
ATOM     23  C   UNL     1      -7.532   2.778  -0.721  0.00  0.00    +0.061 A 
ATOM     24  C   UNL     1      -8.503   1.721  -1.032  0.00  0.00    +0.053 A 
ATOM     25  C   UNL     1      -9.708   2.314  -1.038  0.00  0.00    +0.196 A 
ATOM     26  O   UNL     1      -9.555   3.618  -0.762  0.00  0.00    -0.467 OA
ATOM     27  C   UNL     1      -8.262   3.915  -0.564  0.00  0.00    +0.112 A 
ATOM     28  C   UNL     1      -7.712   5.277  -0.229  0.00  0.00    +0.087 C 
ENDBRANCH  21  23
BRANCH  22  29
ATOM     29  N   UNL     1      -5.823   0.236  -1.062  0.00  0.00    -0.295 N 
ATOM     30  H   UNL     1      -6.903   0.087  -1.209  0.00  0.00    +0.163 HD
ATOM     31  H   UNL     1      -5.132  -0.614  -1.161  0.00  0.00    +0.163 HD
ENDBRANCH  22  29
ENDBRANCH  17  18
ENDBRANCH   1  17
TORSDOF 9
