REMARK  Name = ZINC37945808
REMARK  3 active torsions:
REMARK  status: ('A' for Active; 'I' for Inactive)
REMARK    1  A    between atoms: C_2  and  C_11
REMARK    2  A    between atoms: C_11  and  C_13
REMARK    3  A    between atoms: C_11  and  N_16
REMARK                            x       y       z     vdW  Elec       q    Type
REMARK                         _______ _______ _______ _____ _____    ______ ____
ROOT
ATOM      1  C   UNL     1       1.147   3.597   0.010  0.00  0.00    +0.174 C 
ENDROOT
BRANCH   1   3
ATOM      2  C   UNL     1      -0.017   1.381   0.010  0.00  0.00    +0.055 A 
ATOM      3  C   UNL     1       1.171   2.090   0.002  0.00  0.00    -0.016 A 
ATOM      4  C   UNL     1       2.379   1.419  -0.013  0.00  0.00    +0.029 A 
ATOM      5  C   UNL     1       2.406   0.036  -0.021  0.00  0.00    +0.087 A 
ATOM      6  C   UNL     1       1.219  -0.680  -0.014  0.00  0.00    +0.184 A 
ATOM      7  C   UNL     1       0.002  -0.004   0.002  0.00  0.00    +0.168 A 
ATOM      8  O   UNL     1      -1.007  -0.923   0.006  0.00  0.00    -0.453 OA
ATOM      9  C   UNL     1      -0.404  -2.159  -0.419  0.00  0.00    +0.466 C 
ATOM     10  O   UNL     1       0.973  -2.023  -0.020  0.00  0.00    -0.451 OA
ATOM     11 CL   UNL     1       3.926  -0.802  -0.041  0.00  0.00    -0.080 Cl
ENDBRANCH   1   3
BRANCH   1  12
ATOM     12  N   UNL     1       2.191   4.108  -0.887  0.00  0.00    -0.291 NA
ATOM     13  C   UNL     1       2.028   3.570  -2.245  0.00  0.00    +0.066 C 
ATOM     14  C   UNL     1       3.167   4.078  -3.132  0.00  0.00    -0.067 C 
ATOM     15  N   UNL     1       3.147   5.547  -3.162  0.00  0.00    +0.381 N 
ATOM     16  C   UNL     1       3.336   6.069  -1.802  0.00  0.00    -0.067 C 
ATOM     17  C   UNL     1       2.198   5.577  -0.905  0.00  0.00    +0.066 C 
ATOM     18  H   UNL     1       3.890   5.881  -3.757  0.00  0.00    -0.086 HD
ATOM     19  H   UNL     1       2.260   5.863  -3.524  0.00  0.00    -0.086 HD
ENDBRANCH   1  12
BRANCH   1  20
ATOM     20  C   UNL     1       1.399   4.095   1.410  0.00  0.00    +0.232 C 
ATOM     21  O   UNL     1       2.354   4.807   1.637  0.00  0.00    -0.274 OA
ATOM     22  N   UNL     1       0.562   3.751   2.409  0.00  0.00    -0.328 N 
ATOM     23  H   UNL     1      -0.202   3.182   2.227  0.00  0.00    +0.145 HD
ATOM     24  H   UNL     1       0.724   4.072   3.310  0.00  0.00    +0.145 HD
ENDBRANCH   1  20
TORSDOF 3
