REMARK  Name = ZINC20206562
REMARK  4 active torsions:
REMARK  status: ('A' for Active; 'I' for Inactive)
REMARK    1  A    between atoms: C_1  and  C_2
REMARK    2  A    between atoms: C_2  and  S_3
REMARK    3  A    between atoms: S_3  and  C_6
REMARK    4  A    between atoms: C_14  and  C_15
REMARK                            x       y       z     vdW  Elec       q    Type
REMARK                         _______ _______ _______ _____ _____    ______ ____
ROOT
ATOM      1  C   UNL     1      -1.017  -2.684   0.563  0.00  0.00    +0.257 C 
ATOM      2  N   UNL     1      -0.989  -3.399   1.645  0.00  0.00    -0.174 NA
ATOM      3  S   UNL     1      -1.174  -4.974   1.103  0.00  0.00    +0.049 S 
ATOM      4  C   UNL     1      -1.233  -4.691  -0.539  0.00  0.00    +0.183 C 
ATOM      5  N   UNL     1      -1.318  -5.535  -1.542  0.00  0.00    -0.152 NA
ATOM      6  C   UNL     1      -1.284  -5.070  -2.805  0.00  0.00    +0.273 C 
ATOM      7  O   UNL     1      -1.492  -5.812  -3.751  0.00  0.00    -0.268 OA
ATOM      8  C   UNL     1      -0.987  -3.631  -3.018  0.00  0.00    +0.078 C 
ATOM      9  C   UNL     1      -0.435  -3.169  -4.193  0.00  0.00    +0.025 C 
ATOM     10  C   UNL     1      -1.321  -2.715  -1.890  0.00  0.00    +0.117 C 
ATOM     11  N   UNL     1      -1.709  -1.479  -2.059  0.00  0.00    -0.386 N 
ATOM     12  N   UNL     1      -1.182  -3.315  -0.623  0.00  0.00    -0.203 N 
ATOM     13  H   UNL     1      -1.699  -1.085  -2.945  0.00  0.00    +0.157 HD
ATOM     14  H   UNL     1      -2.006  -0.956  -1.299  0.00  0.00    +0.157 HD
ENDROOT
BRANCH   9  15
ATOM     15  C   UNL     1       0.050  -4.116  -5.195  0.00  0.00    -0.016 A 
ATOM     16  C   UNL     1       0.732  -5.272  -4.814  0.00  0.00    +0.008 A 
ATOM     17  C   UNL     1       1.189  -6.166  -5.768  0.00  0.00    +0.001 A 
ATOM     18  C   UNL     1       0.996  -5.959  -7.101  0.00  0.00    +0.008 A 
ATOM     19  C   UNL     1       0.317  -4.817  -7.559  0.00  0.00    -0.017 A 
ATOM     20  C   UNL     1      -0.175  -3.876  -6.622  0.00  0.00    -0.011 A 
ATOM     21  C   UNL     1      -0.855  -2.740  -7.074  0.00  0.00    +0.009 A 
ATOM     22  C   UNL     1      -1.043  -2.555  -8.412  0.00  0.00    +0.001 A 
ATOM     23  C   UNL     1      -0.566  -3.481  -9.336  0.00  0.00    +0.001 A 
ATOM     24  C   UNL     1       0.111  -4.591  -8.931  0.00  0.00    +0.008 A 
ENDBRANCH   9  15
BRANCH   1  25
ATOM     25  S   UNL     1      -0.851  -0.931   0.636  0.00  0.00    +0.029 S 
ATOM     26  O   UNL     1      -0.252  -0.572  -0.601  0.00  0.00    -0.167 OA
ATOM     27  O   UNL     1      -0.182  -0.682   1.865  0.00  0.00    -0.167 OA
BRANCH  25  29
ATOM     28  C   UNL     1      -2.536   1.223   0.631  0.00  0.00    +0.028 C 
ATOM     29  C   UNL     1      -2.551  -0.305   0.712  0.00  0.00    +0.172 C 
ENDBRANCH  25  29
ENDBRANCH   1  25
TORSDOF 3
