REMARK  Name = ZINC15240623
REMARK  9 active torsions:
REMARK  status: ('A' for Active; 'I' for Inactive)
REMARK    1  A    between atoms: C_1  and  C_2
REMARK    2  A    between atoms: C_4  and  O_32
REMARK    3  A    between atoms: C_6  and  O_31
REMARK    4  A    between atoms: C_8  and  O_30
REMARK    5  A    between atoms: C_10  and  N_13
REMARK    6  A    between atoms: N_13  and  C_14
REMARK    7  A    between atoms: C_16  and  N_27
REMARK    8  A    between atoms: C_18  and  S_20
REMARK    9  A    between atoms: S_20  and  C_21
REMARK                            x       y       z     vdW  Elec       q    Type
REMARK                         _______ _______ _______ _____ _____    ______ ____
ROOT
ATOM      1  C   UNL     1       3.344  -0.971   0.686  0.00  0.00    +0.032 A 
ATOM      2  C   UNL     1       4.416  -0.237   0.192  0.00  0.00    +0.055 A 
ATOM      3  C   UNL     1       5.552  -0.885  -0.254  0.00  0.00    +0.129 A 
ATOM      4  C   UNL     1       5.622  -2.265  -0.219  0.00  0.00    +0.048 A 
ATOM      5  C   UNL     1       4.551  -3.005   0.269  0.00  0.00    +0.017 A 
ATOM      6  C   UNL     1       3.410  -2.356   0.723  0.00  0.00    +0.038 A 
ENDROOT
BRANCH   3   7
ATOM      7  N   UNL     1       6.693  -0.101  -0.775  0.00  0.00    +0.057 N 
ATOM      8  O   UNL     1       7.693  -0.671  -1.173  0.00  0.00    -0.126 OA
ATOM      9  O   UNL     1       6.633   1.115  -0.806  0.00  0.00    -0.126 OA
ENDBRANCH   3   7
BRANCH   1  10
ATOM     10  N   UNL     1       2.198  -0.314   1.141  0.00  0.00    -0.317 N 
ATOM     11  H   UNL     1       2.187   0.654   1.205  0.00  0.00    +0.149 HD
BRANCH  10  17
ATOM     12  C   UNL     1       1.169  -0.605   5.217  0.00  0.00    +0.041 C 
ATOM     13  C   UNL     1       1.101  -0.192   3.745  0.00  0.00    +0.149 C 
ATOM     14  C   UNL     1      -0.157   0.649   3.508  0.00  0.00    +0.174 C 
ATOM     15  C   UNL     1      -0.249   1.008   2.022  0.00  0.00    +0.178 C 
ATOM     16  C   UNL     1      -0.248  -0.282   1.196  0.00  0.00    +0.192 C 
ATOM     17  C   UNL     1       1.013  -1.087   1.522  0.00  0.00    +0.235 C 
ATOM     18  O   UNL     1       1.053  -1.360   2.924  0.00  0.00    -0.351 OA
BRANCH  16  19
ATOM     19  O   UNL     1      -1.405  -1.056   1.518  0.00  0.00    -0.385 OA
ATOM     20  H   UNL     1      -1.467  -1.891   1.034  0.00  0.00    +0.210 HD
ENDBRANCH  16  19
BRANCH  15  21
ATOM     21  O   UNL     1      -1.457   1.731   1.777  0.00  0.00    -0.386 OA
ATOM     22  H   UNL     1      -1.583   1.985   0.853  0.00  0.00    +0.210 HD
ENDBRANCH  15  21
BRANCH  14  23
ATOM     23  O   UNL     1      -0.084   1.846   4.285  0.00  0.00    -0.387 OA
ATOM     24  H   UNL     1      -0.018   1.694   5.237  0.00  0.00    +0.210 HD
ENDBRANCH  14  23
ENDBRANCH  10  17
ENDBRANCH   1  10
BRANCH   5  25
ATOM     25  S   UNL     1       4.641  -4.764   0.312  0.00  0.00    -0.089 S 
BRANCH  25  26
ATOM     26  C   UNL     1       6.310  -5.116  -0.131  0.00  0.00    +0.013 A 
ATOM     27  C   UNL     1       6.638  -5.383  -1.455  0.00  0.00    +0.015 A 
ATOM     28  C   UNL     1       7.947  -5.654  -1.799  0.00  0.00    +0.001 A 
ATOM     29  C   UNL     1       8.931  -5.669  -0.827  0.00  0.00    +0.000 A 
ATOM     30  C   UNL     1       8.607  -5.409   0.492  0.00  0.00    +0.001 A 
ATOM     31  C   UNL     1       7.301  -5.133   0.843  0.00  0.00    +0.015 A 
ENDBRANCH  25  26
ENDBRANCH   5  25
TORSDOF 8
