REMARK  Name = ZINC62833719
REMARK  5 active torsions:
REMARK  status: ('A' for Active; 'I' for Inactive)
REMARK    1  A    between atoms: C_1  and  C_2
REMARK    2  A    between atoms: C_2  and  C_4
REMARK    3  A    between atoms: C_2  and  N_10
REMARK    4  A    between atoms: C_11  and  C_13
REMARK    5  A    between atoms: C_19  and  N_23
REMARK                            x       y       z     vdW  Elec       q    Type
REMARK                         _______ _______ _______ _____ _____    ______ ____
ROOT
ATOM      1  C   UNL     1       2.719  -1.061  -2.425  0.00  0.00    +0.103 A 
ATOM      2  C   UNL     1       4.063  -1.220  -2.557  0.00  0.00    +0.041 A 
ATOM      3  C   UNL     1       4.315  -1.693  -3.867  0.00  0.00    +0.002 A 
ATOM      4  C   UNL     1       5.487  -2.030  -4.559  0.00  0.00    +0.010 A 
ATOM      5  C   UNL     1       5.415  -2.468  -5.849  0.00  0.00    +0.002 A 
ATOM      6  C   UNL     1       4.188  -2.585  -6.490  0.00  0.00    +0.025 A 
ATOM      7  C   UNL     1       3.017  -2.259  -5.831  0.00  0.00    +0.049 A 
ATOM      8  C   UNL     1       3.069  -1.809  -4.508  0.00  0.00    +0.068 A 
ATOM      9  N   UNL     1       2.104  -1.423  -3.607  0.00  0.00    -0.349 N 
ATOM     10  H   UNL     1       1.149  -1.405  -3.775  0.00  0.00    +0.166 HD
ENDROOT
BRANCH   1  12
ATOM     11  N   UNL     1       0.688  -0.476  -1.203  0.00  0.00    -0.302 N 
ATOM     12  C   UNL     1       2.031  -0.587  -1.215  0.00  0.00    +0.261 C 
ATOM     13  O   UNL     1       2.674  -0.294  -0.225  0.00  0.00    -0.269 OA
ATOM     14  H   UNL     1       0.175  -0.710  -1.993  0.00  0.00    +0.150 HD
BRANCH  11  16
ATOM     15  C   UNL     1      -0.019   1.526   0.010  0.00  0.00    +0.034 C 
ATOM     16  C   UNL     1       0.002  -0.004   0.002  0.00  0.00    +0.119 C 
BRANCH  16  17
ATOM     17  C   UNL     1      -1.412  -0.526   0.013  0.00  0.00    +0.061 A 
ATOM     18  C   UNL     1      -2.079  -0.665   1.215  0.00  0.00    +0.025 A 
ATOM     19  C   UNL     1      -3.380  -1.146   1.214  0.00  0.00    +0.003 A 
ATOM     20  C   UNL     1      -3.962  -1.470  -0.002  0.00  0.00    +0.020 A 
ATOM     21  C   UNL     1      -3.233  -1.304  -1.164  0.00  0.00    +0.111 A 
ATOM     22  N   UNL     1      -1.999  -0.839  -1.125  0.00  0.00    -0.258 NA
ENDBRANCH  16  17
ENDBRANCH  11  16
ENDBRANCH   1  12
BRANCH   7  23
ATOM     23  N   UNL     1       1.787  -2.380  -6.485  0.00  0.00    -0.356 N 
ATOM     24  H   UNL     1       1.753  -2.692  -7.403  0.00  0.00    +0.142 HD
ATOM     25  H   UNL     1       0.966  -2.151  -6.021  0.00  0.00    +0.142 HD
ENDBRANCH   7  23
TORSDOF 4
