REMARK  Name = ZINC31025262
REMARK  7 active torsions:
REMARK  status: ('A' for Active; 'I' for Inactive)
REMARK    1  A    between atoms: C_1  and  C_2
REMARK    2  A    between atoms: C_6  and  O_8
REMARK    3  A    between atoms: O_8  and  C_9
REMARK    4  A    between atoms: C_9  and  C_10
REMARK    5  A    between atoms: N_12  and  N_13
REMARK    6  A    between atoms: N_16  and  C_17
REMARK    7  A    between atoms: C_17  and  C_18
REMARK                            x       y       z     vdW  Elec       q    Type
REMARK                         _______ _______ _______ _____ _____    ______ ____
ROOT
ATOM      1  N   UNL     1       1.833   9.580   0.038  0.00  0.00    -0.218 N 
ATOM      2  C   UNL     1       2.891  10.415   0.033  0.00  0.00    +0.316 C 
ATOM      3  O   UNL     1       2.715  11.618   0.042  0.00  0.00    -0.251 OA
ATOM      4  N   UNL     1       4.143   9.917   0.019  0.00  0.00    -0.295 N 
ATOM      5  H   UNL     1       0.811   9.986   0.050  0.00  0.00    +0.174 HD
ATOM      6  H   UNL     1       4.302   8.829   0.011  0.00  0.00    +0.150 HD
ENDROOT
BRANCH   1   9
ATOM      7  C   UNL     1       0.978   7.358   0.034  0.00  0.00    +0.267 C 
ATOM      8  O   UNL     1      -0.149   7.806   0.047  0.00  0.00    -0.271 OA
ATOM      9  N   UNL     1       2.036   8.193   0.029  0.00  0.00    -0.230 N 
ATOM     10  H   UNL     1       3.058   7.787   0.017  0.00  0.00    +0.173 HD
BRANCH   7  11
ATOM     11  C   UNL     1       1.196   5.867   0.023  0.00  0.00    +0.326 C 
BRANCH  11  12
ATOM     12  O   UNL     1      -0.069   5.201   0.031  0.00  0.00    -0.483 OA
BRANCH  12  18
ATOM     13  C   UNL     1      -2.514   0.977   0.019  0.00  0.00    +0.044 C 
ATOM     14  C   UNL     1      -1.220   1.750   0.017  0.00  0.00    -0.047 A 
ATOM     15  C   UNL     1      -0.013   1.076   0.008  0.00  0.00    +0.003 A 
ATOM     16  C   UNL     1       1.176   1.782   0.000  0.00  0.00    +0.004 A 
ATOM     17  C   UNL     1       1.160   3.164   0.008  0.00  0.00    +0.045 A 
ATOM     18  C   UNL     1      -0.050   3.842   0.023  0.00  0.00    +0.121 A 
ATOM     19  C   UNL     1      -1.242   3.131   0.031  0.00  0.00    +0.049 A 
ENDBRANCH  12  18
ENDBRANCH  11  12
ENDBRANCH   7  11
ENDBRANCH   1   9
BRANCH   4  20
ATOM     20  C   UNL     1       5.293  10.825   0.013  0.00  0.00    +0.153 C 
BRANCH  20  21
ATOM     21  C   UNL     1       6.587  10.009  -0.004  0.00  0.00    +0.228 C 
ATOM     22  C   UNL     1       7.795  10.955   0.021  0.00  0.00    +0.275 C 
ATOM     23  O   UNL     1       8.986  10.161   0.018  0.00  0.00    -0.485 OA
ATOM     24  C   UNL     1       9.021   9.108   0.880  0.00  0.00    +0.162 A 
ATOM     25  C   UNL     1      10.240   8.525   1.192  0.00  0.00    +0.049 A 
ATOM     26  C   UNL     1      10.292   7.453   2.063  0.00  0.00    +0.004 A 
ATOM     27  C   UNL     1       9.129   6.960   2.626  0.00  0.00    +0.004 A 
ATOM     28  C   UNL     1       7.912   7.538   2.320  0.00  0.00    +0.049 A 
ATOM     29  C   UNL     1       7.853   8.614   1.447  0.00  0.00    +0.163 A 
ATOM     30  O   UNL     1       6.647   9.175   1.158  0.00  0.00    -0.480 OA
ENDBRANCH  20  21
ENDBRANCH   4  20
TORSDOF 6
