REMARK  Name = ZINC21353869
REMARK  14 active torsions:
REMARK  status: ('A' for Active; 'I' for Inactive)
REMARK    1  A    between atoms: C_1  and  C_2
REMARK    2  A    between atoms: C_2  and  C_3
REMARK    3  A    between atoms: C_3  and  C_4
REMARK    4  A    between atoms: C_4  and  N_5
REMARK    5  A    between atoms: C_6  and  N_36
REMARK    6  A    between atoms: C_7  and  N_14
REMARK    7  A    between atoms: N_14  and  C_15
REMARK    8  A    between atoms: C_15  and  C_16
REMARK    9  A    between atoms: C_16  and  C_17
REMARK   10  A    between atoms: C_16  and  C_18
REMARK   11  A    between atoms: C_19  and  C_21
REMARK   12  A    between atoms: C_24  and  C_35
REMARK   13  A    between atoms: C_25  and  N_27
REMARK   14  A    between atoms: C_28  and  C_30
REMARK                            x       y       z     vdW  Elec       q    Type
REMARK                         _______ _______ _______ _____ _____    ______ ____
ROOT
ATOM      1  N   UNL     1       0.596  -4.976   0.943  0.00  0.00    -0.260 N 
ATOM      2  C   UNL     1       0.533  -4.107  -0.086  0.00  0.00    +0.251 C 
ATOM      3  O   UNL     1       0.533  -2.910   0.129  0.00  0.00    -0.270 OA
ENDROOT
BRANCH   1   6
ATOM      4  N   UNL     1       1.338  -8.382  -0.218  0.00  0.00    -0.280 N 
ATOM      5  C   UNL     1       1.469  -7.029  -0.004  0.00  0.00    +0.127 A 
ATOM      6  C   UNL     1       0.489  -6.361   0.703  0.00  0.00    +0.140 A 
ATOM      7  C   UNL     1      -0.622  -7.086   1.174  0.00  0.00    +0.277 A 
ATOM      8  O   UNL     1      -1.505  -6.520   1.797  0.00  0.00    -0.266 OA
ATOM      9  N   UNL     1      -0.704  -8.409   0.933  0.00  0.00    -0.273 N 
ATOM     10  H   UNL     1      -1.569  -8.982   1.298  0.00  0.00    +0.173 HD
ATOM     11  C   UNL     1       0.263  -9.044   0.247  0.00  0.00    +0.331 A 
ATOM     12  O   UNL     1       0.164 -10.239   0.043  0.00  0.00    -0.246 OA
BRANCH   5  13
ATOM     13  N   UNL     1       2.564  -6.352  -0.483  0.00  0.00    -0.343 N 
ATOM     14  H   UNL     1       2.662  -5.270  -0.308  0.00  0.00    +0.144 HD
ATOM     15  H   UNL     1       3.343  -6.891  -1.042  0.00  0.00    +0.144 HD
ENDBRANCH   5  13
BRANCH   4  16
ATOM     16  C   UNL     1       2.373  -9.104  -0.962  0.00  0.00    +0.128 C 
BRANCH  16  17
ATOM     17  C   UNL     1       2.034  -9.087  -2.454  0.00  0.00    +0.021 C 
BRANCH  17  19
ATOM     18  C   UNL     1       2.776  -9.824  -4.723  0.00  0.00    +0.004 C 
ATOM     19  C   UNL     1       3.115  -9.841  -3.231  0.00  0.00    -0.002 C 
ENDBRANCH  17  19
ENDBRANCH  16  17
ENDBRANCH   4  16
ENDBRANCH   1   6
BRANCH   2  20
ATOM     20  C   UNL     1       0.466  -4.609  -1.475  0.00  0.00    +0.039 A 
ATOM     21  C   UNL     1      -0.126  -5.845  -1.745  0.00  0.00    +0.013 A 
ATOM     22  C   UNL     1      -0.189  -6.311  -3.042  0.00  0.00    +0.006 A 
ATOM     23  C   UNL     1       0.334  -5.559  -4.078  0.00  0.00    -0.029 A 
ATOM     24  C   UNL     1       0.930  -4.330  -3.819  0.00  0.00    +0.037 A 
ATOM     25  C   UNL     1       0.992  -3.850  -2.520  0.00  0.00    +0.036 A 
ATOM     26  C   UNL     1       0.263  -6.076  -5.492  0.00  0.00    +0.045 C 
BRANCH  24  27
ATOM     27  N   UNL     1       1.462  -3.576  -4.870  0.00  0.00    -0.279 N 
ATOM     28  C   UNL     1       2.482  -2.725  -4.639  0.00  0.00    +0.284 C 
ATOM     29  O   UNL     1       3.009  -2.689  -3.543  0.00  0.00    -0.266 OA
ATOM     30  H   UNL     1       1.048  -3.677  -5.884  0.00  0.00    +0.155 HD
BRANCH  28  31
ATOM     31  C   UNL     1       2.957  -1.843  -5.710  0.00  0.00    +0.189 A 
ATOM     32  C   UNL     1       3.975  -0.939  -5.612  0.00  0.00    +0.054 A 
ATOM     33  C   UNL     1       4.087  -0.320  -6.867  0.00  0.00    +0.042 A 
ATOM     34  C   UNL     1       3.143  -0.866  -7.665  0.00  0.00    +0.196 A 
ATOM     35  O   UNL     1       2.468  -1.787  -6.966  0.00  0.00    -0.458 OA
ENDBRANCH  28  31
ENDBRANCH  24  27
ENDBRANCH   2  20
BRANCH   1  36
ATOM     36  C   UNL     1       0.775  -4.481   2.310  0.00  0.00    +0.117 C 
BRANCH  36  37
ATOM     37  C   UNL     1      -0.590  -4.142   2.912  0.00  0.00    +0.001 C 
ATOM     38  C   UNL     1      -0.399  -3.579   4.322  0.00  0.00    +0.009 C 
ATOM     39  C   UNL     1      -1.289  -3.100   2.038  0.00  0.00    +0.009 C 
ENDBRANCH  36  37
ENDBRANCH   1  36
TORSDOF 10
