REMARK  Name = ZINC16420244
REMARK  8 active torsions:
REMARK  status: ('A' for Active; 'I' for Inactive)
REMARK    1  A    between atoms: C_1  and  C_2
REMARK    2  A    between atoms: C_2  and  C_4
REMARK    3  A    between atoms: C_2  and  N_13
REMARK    4  A    between atoms: C_8  and  N_10
REMARK    5  A    between atoms: N_13  and  C_14
REMARK    6  A    between atoms: N_13  and  C_15
REMARK    7  A    between atoms: C_15  and  C_16
REMARK    8  A    between atoms: N_21  and  C_22
REMARK                            x       y       z     vdW  Elec       q    Type
REMARK                         _______ _______ _______ _____ _____    ______ ____
ROOT
ATOM      1  C   UNL     1       0.441  -0.227  -3.870  0.00  0.00    +0.234 C 
ATOM      2  O   UNL     1       1.321  -1.060  -3.895  0.00  0.00    -0.274 OA
ATOM      3  N   UNL     1      -0.081   0.238  -5.023  0.00  0.00    -0.239 N 
ATOM      4  C   UNL     1       0.376  -0.224  -6.204  0.00  0.00    +0.306 C 
ATOM      5  O   UNL     1       1.258  -1.060  -6.229  0.00  0.00    -0.252 OA
ATOM      6  N   UNL     1      -0.146   0.240  -7.356  0.00  0.00    -0.295 N 
ATOM      7  H   UNL     1      -0.785   0.905  -5.003  0.00  0.00    +0.159 HD
ATOM      8  H   UNL     1      -0.850   0.907  -7.336  0.00  0.00    +0.151 HD
ENDROOT
BRANCH   6   9
ATOM      9  C   UNL     1       0.351  -0.262  -8.640  0.00  0.00    +0.097 C 
ATOM     10  C   UNL     1       1.579   0.554  -9.077  0.00  0.00    +0.046 C 
ATOM     11  C   UNL     1       1.912   0.252 -10.558  0.00  0.00    +0.168 C 
ATOM     12  S   UNL     1       0.272  -0.200 -11.258  0.00  0.00    -0.029 S 
ATOM     13  O   UNL     1       0.315  -1.549 -11.700  0.00  0.00    -0.174 OA
ATOM     14  O   UNL     1      -0.143   0.818 -12.158  0.00  0.00    -0.174 OA
ATOM     15  C   UNL     1      -0.749  -0.102  -9.728  0.00  0.00    +0.188 C 
ENDBRANCH   6   9
BRANCH   1  16
ATOM     16  C   UNL     1      -0.070   0.290  -2.550  0.00  0.00    +0.181 C 
BRANCH  16  17
ATOM     17  N   UNL     1       0.654  -0.367  -1.454  0.00  0.00    -0.290 NA
ATOM     18  C   UNL     1       2.072   0.017  -1.454  0.00  0.00    +0.106 C 
BRANCH  17  20
ATOM     19  C   UNL     1       0.860  -0.697   0.964  0.00  0.00    +0.029 C 
ATOM     20  C   UNL     1       0.029  -0.071  -0.158  0.00  0.00    +0.084 C 
BRANCH  20  21
ATOM     21  C   UNL     1      -1.365  -0.643  -0.130  0.00  0.00    -0.028 A 
ATOM     22  C   UNL     1      -1.594  -1.927  -0.587  0.00  0.00    +0.005 A 
ATOM     23  C   UNL     1      -2.873  -2.452  -0.561  0.00  0.00    +0.003 A 
ATOM     24  C   UNL     1      -3.922  -1.693  -0.078  0.00  0.00    +0.033 A 
ATOM     25  C   UNL     1      -3.692  -0.409   0.381  0.00  0.00    +0.127 A 
ATOM     26  C   UNL     1      -2.413   0.114   0.359  0.00  0.00    +0.038 A 
BRANCH  25  27
ATOM     27  N   UNL     1      -4.816   0.404   0.898  0.00  0.00    +0.056 N 
ATOM     28  O   UNL     1      -5.934  -0.055   0.920  0.00  0.00    -0.126 OA
ATOM     29  O   UNL     1      -4.615   1.527   1.299  0.00  0.00    -0.126 OA
ENDBRANCH  25  27
ENDBRANCH  20  21
ENDBRANCH  17  20
ENDBRANCH  16  17
ENDBRANCH   1  16
TORSDOF 6
