REMARK  Name = ZINC08545461
REMARK  6 active torsions:
REMARK  status: ('A' for Active; 'I' for Inactive)
REMARK    1  A    between atoms: C_1  and  C_2
REMARK    2  A    between atoms: C_10  and  C_11
REMARK    3  A    between atoms: C_11  and  O_13
REMARK    4  A    between atoms: O_13  and  C_14
REMARK    5  A    between atoms: C_14  and  C_15
REMARK    6  A    between atoms: C_28  and  C_30
REMARK                            x       y       z     vdW  Elec       q    Type
REMARK                         _______ _______ _______ _____ _____    ______ ____
ROOT
ATOM      1  C   UNL     1      -0.014   1.209   0.009  0.00  0.00    +0.258 C 
ATOM      2  O   UNL     1       0.002  -0.004   0.002  0.00  0.00    -0.271 OA
ATOM      3  N   UNL     1       1.143   1.898   0.001  0.00  0.00    -0.264 N 
ATOM      4  C   UNL     1       1.139   3.300   0.009  0.00  0.00    +0.058 A 
ATOM      5  C   UNL     1       0.758   4.012  -1.117  0.00  0.00    +0.025 A 
ATOM      6  C   UNL     1       0.782   5.394  -1.098  0.00  0.00    +0.002 A 
ATOM      7  C   UNL     1       1.187   6.069   0.039  0.00  0.00    +0.002 A 
ATOM      8  C   UNL     1       1.561   5.366   1.170  0.00  0.00    +0.025 A 
ATOM      9  C   UNL     1       1.529   3.982   1.163  0.00  0.00    +0.055 A 
ATOM     10  N   UNL     1       1.849   3.250   2.312  0.00  0.00    -0.284 N 
ATOM     11  C   UNL     1       2.702   2.205   2.244  0.00  0.00    +0.219 C 
ATOM     12  O   UNL     1       2.906   1.528   3.229  0.00  0.00    -0.275 OA
ATOM     13  C   UNL     1       3.402   1.875   0.952  0.00  0.00    +0.118 C 
ATOM     14  C   UNL     1       2.429   1.197  -0.009  0.00  0.00    +0.087 C 
ATOM     15  C   UNL     1       3.013   1.227  -1.422  0.00  0.00    +0.029 C 
ATOM     16  H   UNL     1       1.455   3.495   3.164  0.00  0.00    +0.155 HD
ENDROOT
BRANCH   1  17
ATOM     17  C   UNL     1      -1.330   1.944   0.019  0.00  0.00    +0.328 C 
BRANCH  17  18
ATOM     18  O   UNL     1      -2.420   0.986   0.019  0.00  0.00    -0.450 OA
BRANCH  18  19
ATOM     19  C   UNL     1      -3.673   1.484   0.028  0.00  0.00    +0.376 C 
ATOM     20  O   UNL     1      -3.849   2.687   0.035  0.00  0.00    -0.241 OA
BRANCH  19  30
ATOM     21  C   UNL     1      -6.654   2.374   0.046  0.00  0.00    +0.048 C 
ATOM     22  C   UNL     1      -6.128   0.961   0.036  0.00  0.00    +0.010 A 
ATOM     23  C   UNL     1      -6.916  -0.270   0.033  0.00  0.00    +0.027 A 
ATOM     24  C   UNL     1      -8.286  -0.550   0.038  0.00  0.00    +0.012 A 
ATOM     25  C   UNL     1      -8.713  -1.847   0.032  0.00  0.00    +0.004 A 
ATOM     26  C   UNL     1      -7.796  -2.890   0.022  0.00  0.00    +0.042 A 
ATOM     27  C   UNL     1      -6.440  -2.636   0.017  0.00  0.00    +0.166 A 
ATOM     28  C   UNL     1      -5.982  -1.321   0.022  0.00  0.00    +0.171 A 
ATOM     29  O   UNL     1      -4.751  -0.773   0.015  0.00  0.00    -0.445 OA
ATOM     30  C   UNL     1      -4.825   0.574   0.028  0.00  0.00    +0.216 A 
ATOM     31  F   UNL     1      -5.559  -3.660   0.007  0.00  0.00    -0.202 F 
ENDBRANCH  19  30
ENDBRANCH  18  19
ENDBRANCH  17  18
ENDBRANCH   1  17
TORSDOF 4
