REMARK  Name = ZINC66230732
REMARK  7 active torsions:
REMARK  status: ('A' for Active; 'I' for Inactive)
REMARK    1  A    between atoms: C_1  and  C_2
REMARK    2  A    between atoms: C_2  and  C_4
REMARK    3  A    between atoms: C_2  and  N_18
REMARK    4  A    between atoms: C_6  and  C_7
REMARK    5  A    between atoms: C_6  and  C_9
REMARK    6  A    between atoms: N_11  and  C_12
REMARK    7  A    between atoms: C_19  and  C_21
REMARK                            x       y       z     vdW  Elec       q    Type
REMARK                         _______ _______ _______ _____ _____    ______ ____
ROOT
ATOM      1  C   UNL     1      -1.405  -0.551   0.023  0.00  0.00    +0.198 C 
ATOM      2  O   UNL     1      -2.218  -0.191   1.031  0.00  0.00    -0.289 OA
ATOM      3  C   UNL     1      -1.922  -1.135  -1.095  0.00  0.00    +0.157 C 
ENDROOT
BRANCH   3   4
ATOM      4  C   UNL     1      -1.061  -1.381  -2.261  0.00  0.00    +0.258 C 
ATOM      5  O   UNL     1       0.127  -1.125  -2.204  0.00  0.00    -0.269 OA
ATOM      6  N   UNL     1      -1.588  -1.890  -3.392  0.00  0.00    -0.308 N 
ATOM      7  H   UNL     1      -2.535  -2.094  -3.437  0.00  0.00    +0.149 HD
BRANCH   6   8
ATOM      8  C   UNL     1      -0.730  -2.136  -4.554  0.00  0.00    +0.073 C 
ATOM      9  C   UNL     1      -0.595  -0.848  -5.370  0.00  0.00    +0.022 C 
ATOM     10  C   UNL     1       0.301  -1.105  -6.583  0.00  0.00    +0.002 C 
ATOM     11  C   UNL     1      -0.321  -2.198  -7.454  0.00  0.00    +0.000 C 
ATOM     12  C   UNL     1      -0.455  -3.486  -6.638  0.00  0.00    +0.002 C 
ATOM     13  C   UNL     1      -1.351  -3.229  -5.425  0.00  0.00    +0.022 C 
ENDBRANCH   6   8
ENDBRANCH   3   4
BRANCH   1  15
ATOM     14  C   UNL     1       0.394   1.126  -0.290  0.00  0.00    +0.036 C 
ATOM     15  C   UNL     1       0.079  -0.311   0.130  0.00  0.00    +0.142 C 
BRANCH  15  16
ATOM     16  N   UNL     1       0.509  -0.520   1.514  0.00  0.00    -0.305 N 
ATOM     17  C   UNL     1       1.787  -0.860   1.779  0.00  0.00    +0.217 C 
ATOM     18  O   UNL     1       2.579  -0.992   0.871  0.00  0.00    -0.275 OA
ATOM     19  H   UNL     1      -0.125  -0.415   2.241  0.00  0.00    +0.149 HD
BRANCH  17  20
ATOM     20  C   UNL     1       2.229  -1.076   3.203  0.00  0.00    +0.075 C 
ATOM     21  C   UNL     1       2.579   0.226   3.943  0.00  0.00    +0.013 C 
ATOM     22  C   UNL     1       3.758  -0.539   4.568  0.00  0.00    +0.001 C 
ATOM     23  C   UNL     1       3.713  -1.458   3.336  0.00  0.00    +0.013 C 
ENDBRANCH  17  20
ENDBRANCH  15  16
ENDBRANCH   1  15
BRANCH   3  24
ATOM     24  C   UNL     1      -3.304  -1.507  -1.134  0.00  0.00    +0.108 C 
ATOM     25  N   UNL     1      -4.401  -1.802  -1.166  0.00  0.00    -0.191 NA
ENDBRANCH   3  24
TORSDOF 6
