REMARK  Name = ZINC63781020
REMARK  8 active torsions:
REMARK  status: ('A' for Active; 'I' for Inactive)
REMARK    1  A    between atoms: C_1  and  N_2
REMARK    2  A    between atoms: C_10  and  C_11
REMARK    3  A    between atoms: C_11  and  C_12
REMARK    4  A    between atoms: N_14  and  N_15
REMARK    5  A    between atoms: C_16  and  C_18
REMARK    6  A    between atoms: C_18  and  C_19
REMARK    7  A    between atoms: C_19  and  C_20
REMARK    8  A    between atoms: C_20  and  C_21
REMARK                            x       y       z     vdW  Elec       q    Type
REMARK                         _______ _______ _______ _____ _____    ______ ____
ROOT
ATOM      1  N   UNL     1      -2.942   0.344   4.731  0.00  0.00    -0.234 N 
ATOM      2  C   UNL     1      -3.181   0.759   5.991  0.00  0.00    +0.229 C 
ATOM      3  O   UNL     1      -2.255   1.020   6.729  0.00  0.00    -0.274 OA
ATOM      4  H   UNL     1      -3.683   0.136   4.141  0.00  0.00    +0.173 HD
ENDROOT
BRANCH   1   7
ATOM      5  C   UNL     1      -1.385  -0.201   3.014  0.00  0.00    +0.236 C 
ATOM      6  O   UNL     1      -2.312  -0.462   2.276  0.00  0.00    -0.274 OA
ATOM      7  N   UNL     1      -1.624   0.214   4.274  0.00  0.00    -0.234 N 
ATOM      8  H   UNL     1      -0.883   0.423   4.865  0.00  0.00    +0.173 HD
BRANCH   5   9
ATOM      9  C   UNL     1       0.032  -0.341   2.523  0.00  0.00    +0.171 C 
BRANCH   9  19
ATOM     10  C   UNL     1      -0.018   1.461   0.010  0.00  0.00    +0.150 C 
ATOM     11  N   UNL     1       0.002  -0.004   0.002  0.00  0.00    -0.330 N 
ATOM     12  C   UNL     1       0.008  -0.816  -1.114  0.00  0.00    +0.069 A 
ATOM     13  C   UNL     1      -0.001  -0.579  -2.482  0.00  0.00    +0.028 A 
ATOM     14  C   UNL     1       0.009  -1.643  -3.360  0.00  0.00    +0.002 A 
ATOM     15  C   UNL     1       0.029  -2.946  -2.884  0.00  0.00    +0.002 A 
ATOM     16  C   UNL     1       0.038  -3.199  -1.542  0.00  0.00    +0.030 A 
ATOM     17  C   UNL     1       0.028  -2.136  -0.634  0.00  0.00    +0.089 A 
ATOM     18  N   UNL     1       0.033  -2.063   0.722  0.00  0.00    -0.232 NA
ATOM     19  C   UNL     1       0.024  -0.816   1.093  0.00  0.00    +0.119 A 
ENDBRANCH   9  19
ENDBRANCH   5   9
ENDBRANCH   1   7
BRANCH   2  20
ATOM     20  C   UNL     1      -4.599   0.899   6.482  0.00  0.00    +0.097 C 
BRANCH  20  21
ATOM     21  C   UNL     1      -4.590   1.382   7.934  0.00  0.00    +0.014 C 
BRANCH  21  22
ATOM     22  C   UNL     1      -6.029   1.524   8.433  0.00  0.00    +0.033 C 
BRANCH  22  23
ATOM     23  C   UNL     1      -6.021   1.999   9.863  0.00  0.00    -0.042 C 
ATOM     24  C   UNL     1      -6.133   3.276  10.296  0.00  0.00    -0.001 A 
ATOM     25  C   UNL     1      -6.289   4.554   9.593  0.00  0.00    +0.010 A 
ATOM     26  C   UNL     1      -6.375   5.694  10.315  0.00  0.00    +0.001 A 
ATOM     27  C   UNL     1      -6.319   5.685  11.716  0.00  0.00    +0.002 A 
ATOM     28  C   UNL     1      -6.177   4.550  12.432  0.00  0.00    +0.026 A 
ATOM     29  C   UNL     1      -6.077   3.293  11.775  0.00  0.00    +0.043 A 
ATOM     30  N   UNL     1      -5.936   2.075  12.239  0.00  0.00    -0.380 N 
ATOM     31  C   UNL     1      -5.892   1.145  11.104  0.00  0.00    +0.144 C 
ATOM     32  H   UNL     1      -5.874   1.829  13.175  0.00  0.00    +0.160 HD
ENDBRANCH  22  23
ENDBRANCH  21  22
ENDBRANCH  20  21
ENDBRANCH   2  20
TORSDOF 7
