REMARK  Name = ZINC67098791
REMARK  5 active torsions:
REMARK  status: ('A' for Active; 'I' for Inactive)
REMARK    1  A    between atoms: C_5  and  C_6
REMARK    2  A    between atoms: C_8  and  C_11
REMARK    3  A    between atoms: C_11  and  O_12
REMARK    4  A    between atoms: O_12  and  N_13
REMARK    5  A    between atoms: C_14  and  C_15
REMARK                            x       y       z     vdW  Elec       q    Type
REMARK                         _______ _______ _______ _____ _____    ______ ____
ROOT
ATOM      1  O   UNL     1      -2.983  -4.612   1.376  0.00  0.00    -0.385 OA
ENDROOT
BRANCH   1   2
ATOM      2  N   UNL     1      -3.219  -6.004   1.477  0.00  0.00    -0.074 NA
ATOM      3  C   UNL     1      -3.263  -6.570   2.638  0.00  0.00    +0.135 C 
ATOM      4  N   UNL     1      -3.599  -7.901   2.743  0.00  0.00    -0.344 N 
ATOM      5  H   UNL     1      -3.804  -8.414   1.946  0.00  0.00    +0.144 HD
ATOM      6  H   UNL     1      -3.632  -8.325   3.615  0.00  0.00    +0.144 HD
BRANCH   3   7
ATOM      7  C   UNL     1      -2.945  -5.772   3.877  0.00  0.00    +0.055 C 
ATOM      8  C   UNL     1      -2.212  -6.663   4.882  0.00  0.00    +0.011 C 
ATOM      9  C   UNL     1      -1.889  -5.853   6.140  0.00  0.00    +0.001 C 
ATOM     10  C   UNL     1      -3.189  -5.342   6.764  0.00  0.00    +0.000 C 
ATOM     11  C   UNL     1      -3.922  -4.451   5.759  0.00  0.00    +0.001 C 
ATOM     12  C   UNL     1      -4.245  -5.261   4.501  0.00  0.00    +0.011 C 
ENDBRANCH   3   7
ENDBRANCH   1   2
BRANCH   1  13
ATOM     13  C   UNL     1      -2.962  -4.122   0.034  0.00  0.00    +0.342 C 
BRANCH  13  16
ATOM     14  C   UNL     1      -1.632  -0.750   0.027  0.00  0.00    +0.262 A 
ATOM     15  N   UNL     1      -1.502  -2.059   0.001  0.00  0.00    -0.188 NA
ATOM     16  C   UNL     1      -2.705  -2.637   0.046  0.00  0.00    +0.212 A 
ATOM     17  N   UNL     1      -3.621  -1.712   0.100  0.00  0.00    -0.057 NA
ATOM     18  O   UNL     1      -2.944  -0.464   0.095  0.00  0.00    -0.333 OA
BRANCH  14  23
ATOM     19  C   UNL     1      -0.645   1.696   0.026  0.00  0.00    +0.054 A 
ATOM     20  C   UNL     1       0.611   2.166  -0.024  0.00  0.00    +0.195 A 
ATOM     21  O   UNL     1       1.465   1.133  -0.084  0.00  0.00    -0.470 OA
ATOM     22  C   UNL     1       0.805  -0.032  -0.075  0.00  0.00    +0.208 A 
ATOM     23  C   UNL     1      -0.530   0.231  -0.007  0.00  0.00    +0.077 A 
ENDBRANCH  14  23
ENDBRANCH  13  16
ENDBRANCH   1  13
TORSDOF 5
