REMARK  Name = ZINC23192433
REMARK  10 active torsions:
REMARK  status: ('A' for Active; 'I' for Inactive)
REMARK    1  A    between atoms: C_1  and  C_2
REMARK    2  A    between atoms: C_6  and  C_18
REMARK    3  A    between atoms: N_8  and  C_9
REMARK    4  A    between atoms: C_14  and  N_15
REMARK    5  A    between atoms: N_20  and  C_21
REMARK    6  A    between atoms: C_21  and  C_22
REMARK    7  A    between atoms: C_22  and  C_24
REMARK    8  A    between atoms: C_22  and  N_31
REMARK    9  A    between atoms: N_31  and  C_32
REMARK   10  A    between atoms: N_31  and  C_33
REMARK                            x       y       z     vdW  Elec       q    Type
REMARK                         _______ _______ _______ _____ _____    ______ ____
ROOT
ATOM      1  C   UNL     1       4.810  12.361   0.289  0.00  0.00    +0.066 C 
ATOM      2  C   UNL     1       3.909  11.200   0.621  0.00  0.00    +0.044 A 
ATOM      3  C   UNL     1       3.499  11.016   1.899  0.00  0.00    +0.076 A 
ATOM      4  C   UNL     1       2.646   9.914   2.168  0.00  0.00    +0.213 A 
ATOM      5  O   UNL     1       2.233   9.689   3.296  0.00  0.00    -0.285 OA
ATOM      6  C   UNL     1       2.285   9.050   1.033  0.00  0.00    +0.192 A 
ATOM      7  N   UNL     1       2.754   9.344  -0.161  0.00  0.00    -0.158 NA
ATOM      8  N   UNL     1       3.518  10.353  -0.363  0.00  0.00    -0.234 N 
ENDROOT
BRANCH   8   9
ATOM      9  C   UNL     1       3.973  10.592  -1.664  0.00  0.00    +0.096 A 
ATOM     10  C   UNL     1       3.596  11.751  -2.331  0.00  0.00    +0.030 A 
ATOM     11  C   UNL     1       4.051  11.987  -3.613  0.00  0.00    +0.002 A 
ATOM     12  C   UNL     1       4.871  11.066  -4.238  0.00  0.00    +0.002 A 
ATOM     13  C   UNL     1       5.244   9.908  -3.579  0.00  0.00    +0.035 A 
ATOM     14  C   UNL     1       4.797   9.669  -2.295  0.00  0.00    +0.151 A 
BRANCH  14  15
ATOM     15  N   UNL     1       5.197   8.430  -1.590  0.00  0.00    +0.059 N 
ATOM     16  O   UNL     1       5.844   7.579  -2.174  0.00  0.00    -0.126 OA
ATOM     17  O   UNL     1       4.878   8.261  -0.426  0.00  0.00    -0.126 OA
ENDBRANCH  14  15
ENDBRANCH   8   9
BRANCH   6  18
ATOM     18  C   UNL     1       1.407   7.879   1.229  0.00  0.00    +0.268 C 
ATOM     19  O   UNL     1       0.904   7.671   2.317  0.00  0.00    -0.268 OA
ATOM     20  N   UNL     1       1.163   7.040   0.203  0.00  0.00    -0.311 N 
ATOM     21  H   UNL     1       1.688   7.175  -0.754  0.00  0.00    +0.149 HD
BRANCH  20  22
ATOM     22  C   UNL     1       0.197   5.950   0.361  0.00  0.00    +0.094 C 
BRANCH  22  23
ATOM     23  C   UNL     1       0.242   5.046  -0.873  0.00  0.00    -0.020 C 
BRANCH  23  24
ATOM     24  C   UNL     1      -0.815   3.979  -0.752  0.00  0.00    -0.041 A 
ATOM     25  C   UNL     1      -0.455   2.681  -0.440  0.00  0.00    +0.003 A 
ATOM     26  C   UNL     1      -1.425   1.702  -0.330  0.00  0.00    +0.000 A 
ATOM     27  C   UNL     1      -2.754   2.019  -0.537  0.00  0.00    +0.001 A 
ATOM     28  C   UNL     1      -3.116   3.317  -0.843  0.00  0.00    +0.020 A 
ATOM     29  C   UNL     1      -2.146   4.298  -0.954  0.00  0.00    +0.043 A 
ATOM     30 CL   UNL     1      -2.599   5.927  -1.344  0.00  0.00    -0.083 Cl
ENDBRANCH  23  24
BRANCH  23  31
ATOM     31  N   UNL     1       1.565   4.416  -0.970  0.00  0.00    +0.382 N 
ATOM     32  C   UNL     1       2.532   5.318  -1.610  0.00  0.00    -0.096 C 
ATOM     33  C   UNL     1       2.042   3.984   0.351  0.00  0.00    -0.096 C 
ATOM     34  H   UNL     1       1.468   3.521  -1.603  0.00  0.00    -0.082 HD
ENDBRANCH  23  31
ENDBRANCH  22  23
ENDBRANCH  20  22
ENDBRANCH   6  18
TORSDOF 7
