REMARK  Name = ZINC12507607
REMARK  6 active torsions:
REMARK  status: ('A' for Active; 'I' for Inactive)
REMARK    1  A    between atoms: C_1  and  O_2
REMARK    2  A    between atoms: O_2  and  C_3
REMARK    3  A    between atoms: C_5  and  C_12
REMARK    4  A    between atoms: C_7  and  O_10
REMARK    5  A    between atoms: C_8  and  O_9
REMARK    6  A    between atoms: O_10  and  C_11
REMARK                            x       y       z     vdW  Elec       q    Type
REMARK                         _______ _______ _______ _____ _____    ______ ____
ROOT
ATOM      1  C   UNL     1       2.402   0.386  -4.230  0.00  0.00    +0.209 C 
ATOM      2  N   UNL     1       2.143  -0.235  -5.543  0.00  0.00    -0.294 N 
ATOM      3  C   UNL     1       2.964  -1.281  -5.939  0.00  0.00    +0.159 C 
ATOM      4  N   UNL     1       4.339  -1.050  -5.878  0.00  0.00    -0.259 N 
ATOM      5  C   UNL     1       4.754  -0.235  -4.826  0.00  0.00    +0.205 A 
ATOM      6  N   UNL     1       3.855   0.454  -4.046  0.00  0.00    -0.288 N 
ATOM      7  C   UNL     1       4.577   1.166  -3.113  0.00  0.00    +0.076 A 
ATOM      8  C   UNL     1       4.236   2.033  -2.082  0.00  0.00    +0.077 A 
ATOM      9  C   UNL     1       5.228   2.594  -1.302  0.00  0.00    +0.164 A 
ATOM     10  C   UNL     1       6.567   2.300  -1.542  0.00  0.00    +0.164 A 
ATOM     11  C   UNL     1       6.922   1.446  -2.565  0.00  0.00    +0.079 A 
ATOM     12  C   UNL     1       5.928   0.870  -3.362  0.00  0.00    +0.095 A 
ATOM     13  N   UNL     1       5.965   0.009  -4.422  0.00  0.00    -0.214 NA
ATOM     14  O   UNL     1       7.532   2.862  -0.756  0.00  0.00    -0.488 OA
ATOM     15  C   UNL     1       7.709   4.273  -0.895  0.00  0.00    +0.232 C 
ATOM     16  C   UNL     1       6.718   5.030  -0.025  0.00  0.00    +0.082 C 
ATOM     17  C   UNL     1       5.278   4.809  -0.462  0.00  0.00    +0.232 C 
ATOM     18  O   UNL     1       4.897   3.443  -0.284  0.00  0.00    -0.488 OA
ATOM     19  N   UNL     1       2.477  -2.419  -6.345  0.00  0.00    -0.375 N 
ATOM     20  H   UNL     1       1.421   0.078  -6.111  0.00  0.00    +0.151 HD
ATOM     21  H   UNL     1       1.516  -2.552  -6.377  0.00  0.00    +0.158 HD
ATOM     22  H   UNL     1       4.959  -1.430  -6.520  0.00  0.00    +0.158 HD
ATOM     23  H   UNL     1       3.074  -3.133  -6.616  0.00  0.00    +0.158 HD
ENDROOT
BRANCH   1  26
ATOM     24  C   UNL     1       0.606  -0.608  -1.056  0.00  0.00    +0.165 A 
ATOM     25  C   UNL     1       1.173   0.160  -2.063  0.00  0.00    +0.057 A 
ATOM     26  C   UNL     1       1.787  -0.452  -3.139  0.00  0.00    +0.000 A 
ATOM     27  C   UNL     1       1.839  -1.831  -3.217  0.00  0.00    +0.057 A 
ATOM     28  C   UNL     1       1.275  -2.606  -2.215  0.00  0.00    +0.165 A 
ATOM     29  C   UNL     1       0.661  -1.994  -1.128  0.00  0.00    +0.201 A 
BRANCH  24  31
ATOM     30  C   UNL     1      -0.017   1.425   0.010  0.00  0.00    +0.277 C 
ATOM     31  O   UNL     1       0.002  -0.004   0.002  0.00  0.00    -0.491 OA
ENDBRANCH  24  31
BRANCH  29  32
ATOM     32  O   UNL     1       0.111  -2.751  -0.140  0.00  0.00    -0.501 OA
ATOM     33  H   UNL     1      -0.817  -2.978  -0.289  0.00  0.00    +0.292 HD
ENDBRANCH  29  32
BRANCH  28  34
ATOM     34  O   UNL     1       1.326  -3.963  -2.293  0.00  0.00    -0.491 OA
ATOM     35  C   UNL     1       1.977  -4.523  -3.435  0.00  0.00    +0.277 C 
ENDBRANCH  28  34
ENDBRANCH   1  26
TORSDOF 4
