REMARK  Name = ZINC08101044
REMARK  1 active torsions:
REMARK  status: ('A' for Active; 'I' for Inactive)
REMARK    1  A    between atoms: C_4  and  C_7
REMARK                            x       y       z     vdW  Elec       q    Type
REMARK                         _______ _______ _______ _____ _____    ______ ____
ROOT
ATOM      1  C   UNL     1       2.859  -0.454  -2.507  0.00  0.00    +0.005 C 
ATOM      2  C   UNL     1       3.958  -1.209  -2.399  0.00  0.00    +0.094 C 
ATOM      3  C   UNL     1       4.779  -1.766  -3.497  0.00  0.00    +0.265 C 
ATOM      4  O   UNL     1       4.592  -1.631  -4.691  0.00  0.00    -0.268 OA
ATOM      5  N   UNL     1       5.776  -2.453  -2.904  0.00  0.00    -0.235 N 
ATOM      6  C   UNL     1       5.654  -2.376  -1.570  0.00  0.00    +0.311 C 
ATOM      7  O   UNL     1       6.414  -2.902  -0.780  0.00  0.00    -0.252 OA
ATOM      8  N   UNL     1       4.586  -1.639  -1.220  0.00  0.00    -0.265 N 
ATOM      9  H   UNL     1       6.477  -2.932  -3.372  0.00  0.00    +0.159 HD
ATOM     10  H   UNL     1       4.299  -1.440  -0.315  0.00  0.00    +0.157 HD
ENDROOT
BRANCH   1  14
ATOM     11  C   UNL     1      -0.019   1.526   0.010  0.00  0.00    +0.000 C 
ATOM     12  C   UNL     1       1.417   2.055  -0.000  0.00  0.00    +0.001 C 
ATOM     13  C   UNL     1       2.133   1.562  -1.259  0.00  0.00    +0.007 C 
ATOM     14  C   UNL     1       2.154   0.032  -1.268  0.00  0.00    +0.014 C 
ATOM     15  C   UNL     1       0.718  -0.497  -1.257  0.00  0.00    +0.007 C 
ATOM     16  C   UNL     1       0.002  -0.004   0.002  0.00  0.00    +0.001 C 
ENDBRANCH   1  14
TORSDOF 1
