REMARK  Name = ZINC56173426
REMARK  10 active torsions:
REMARK  status: ('A' for Active; 'I' for Inactive)
REMARK    1  A    between atoms: C_1  and  C_2
REMARK    2  A    between atoms: C_2  and  C_4
REMARK    3  A    between atoms: C_2  and  N_16
REMARK    4  A    between atoms: N_6  and  C_7
REMARK    5  A    between atoms: N_6  and  C_8
REMARK    6  A    between atoms: N_16  and  C_17
REMARK    7  A    between atoms: C_20  and  O_23
REMARK    8  A    between atoms: O_23  and  C_24
REMARK    9  A    between atoms: C_24  and  C_25
REMARK   10  A    between atoms: C_24  and  C_26
REMARK                            x       y       z     vdW  Elec       q    Type
REMARK                         _______ _______ _______ _____ _____    ______ ____
ROOT
ATOM      1  C   UNL     1       0.576   1.050   0.697  0.00  0.00    +0.038 C 
ATOM      2  C   UNL     1       0.288  -0.418   0.375  0.00  0.00    +0.154 C 
ENDROOT
BRANCH   2   3
ATOM      3  C   UNL     1      -1.194  -0.674   0.480  0.00  0.00    +0.236 C 
ATOM      4  O   UNL     1      -1.647  -1.219   1.464  0.00  0.00    -0.274 OA
ATOM      5  N   UNL     1      -2.015  -0.297  -0.519  0.00  0.00    -0.298 N 
ATOM      6  C   UNL     1      -3.464  -0.458  -0.377  0.00  0.00    +0.132 C 
BRANCH   5   7
ATOM      7  C   UNL     1      -1.459   0.274  -1.749  0.00  0.00    +0.098 C 
ATOM      8  C   UNL     1      -2.035   1.681  -1.975  0.00  0.00    +0.046 C 
ATOM      9  C   UNL     1      -1.712   2.159  -3.411  0.00  0.00    +0.168 C 
ATOM     10  S   UNL     1      -1.600   0.580  -4.347  0.00  0.00    -0.029 S 
ATOM     11  O   UNL     1      -0.279   0.432  -4.848  0.00  0.00    -0.174 OA
ATOM     12  O   UNL     1      -2.701   0.493  -5.241  0.00  0.00    -0.174 OA
ATOM     13  C   UNL     1      -1.854  -0.612  -2.965  0.00  0.00    +0.188 C 
ENDBRANCH   5   7
ENDBRANCH   2   3
BRANCH   2  14
ATOM     14  N   UNL     1       1.000  -1.275   1.327  0.00  0.00    -0.333 N 
ATOM     15  H   UNL     1       0.547  -1.601   2.120  0.00  0.00    +0.147 HD
BRANCH  14  16
ATOM     16  C   UNL     1       2.334  -1.625   1.090  0.00  0.00    +0.028 A 
ATOM     17  C   UNL     1       2.985  -1.155  -0.043  0.00  0.00    +0.026 A 
ATOM     18  C   UNL     1       4.302  -1.500  -0.275  0.00  0.00    +0.047 A 
ATOM     19  C   UNL     1       4.974  -2.316   0.623  0.00  0.00    +0.121 A 
ATOM     20  C   UNL     1       4.325  -2.786   1.755  0.00  0.00    +0.047 A 
ATOM     21  C   UNL     1       3.010  -2.437   1.991  0.00  0.00    +0.026 A 
BRANCH  19  22
ATOM     22  O   UNL     1       6.271  -2.655   0.394  0.00  0.00    -0.489 OA
BRANCH  22  23
ATOM     23  C   UNL     1       6.913  -2.045  -0.728  0.00  0.00    +0.167 C 
ATOM     24  C   UNL     1       8.425  -2.020  -0.499  0.00  0.00    +0.051 C 
ATOM     25  C   UNL     1       6.602  -2.849  -1.992  0.00  0.00    +0.051 C 
ENDBRANCH  22  23
ENDBRANCH  19  22
ENDBRANCH  14  16
ENDBRANCH   2  14
TORSDOF 6
