REMARK  Name = ZINC50576235
REMARK  13 active torsions:
REMARK  status: ('A' for Active; 'I' for Inactive)
REMARK    1  A    between atoms: C_1  and  C_2
REMARK    2  A    between atoms: C_2  and  C_3
REMARK    3  A    between atoms: C_3  and  C_4
REMARK    4  A    between atoms: C_3  and  C_6
REMARK    5  A    between atoms: C_3  and  N_21
REMARK    6  A    between atoms: C_4  and  C_5
REMARK    7  A    between atoms: C_6  and  N_7
REMARK    8  A    between atoms: C_8  and  C_10
REMARK    9  A    between atoms: C_10  and  N_11
REMARK   10  A    between atoms: N_14  and  C_15
REMARK   11  A    between atoms: C_15  and  C_16
REMARK   12  A    between atoms: N_21  and  C_22
REMARK   13  A    between atoms: N_21  and  C_23
REMARK                            x       y       z     vdW  Elec       q    Type
REMARK                         _______ _______ _______ _____ _____    ______ ____
ROOT
ATOM      1  N   UNL     1       2.824  -0.072   2.344  0.00  0.00    -0.315 N 
ATOM      2  C   UNL     1       4.015   0.543   2.475  0.00  0.00    +0.230 C 
ATOM      3  O   UNL     1       4.393   1.320   1.624  0.00  0.00    -0.274 OA
ATOM      4  H   UNL     1       2.521  -0.694   3.025  0.00  0.00    +0.149 HD
ENDROOT
BRANCH   1   5
ATOM      5  C   UNL     1       1.985   0.196   1.174  0.00  0.00    +0.092 C 
BRANCH   5   6
ATOM      6  C   UNL     1       0.772  -0.736   1.190  0.00  0.00    -0.051 C 
BRANCH   6   7
ATOM      7  N   UNL     1      -0.139  -0.374   0.097  0.00  0.00    +0.381 N 
ATOM      8  C   UNL     1       0.532  -0.589  -1.192  0.00  0.00    -0.096 C 
ATOM      9  C   UNL     1      -1.345  -1.210   0.166  0.00  0.00    -0.096 C 
ATOM     10  H   UNL     1      -0.398   0.598   0.182  0.00  0.00    -0.082 HD
ENDBRANCH   6   7
BRANCH   6  12
ATOM     11  C   UNL     1       2.083  -2.601   2.213  0.00  0.00    +0.002 C 
ATOM     12  C   UNL     1       1.237  -2.182   1.009  0.00  0.00    -0.014 C 
ENDBRANCH   6  12
BRANCH   6  13
ATOM     13  C   UNL     1       0.042  -0.599   2.528  0.00  0.00    -0.014 C 
ATOM     14  C   UNL     1      -0.529   0.814   2.656  0.00  0.00    +0.002 C 
ENDBRANCH   6  13
ENDBRANCH   5   6
ENDBRANCH   1   5
BRANCH   2  15
ATOM     15  C   UNL     1       4.878   0.267   3.680  0.00  0.00    +0.201 C 
BRANCH  15  16
ATOM     16  N   UNL     1       6.111   1.052   3.588  0.00  0.00    -0.291 N 
ATOM     17  C   UNL     1       7.039   0.966   4.561  0.00  0.00    +0.300 C 
ATOM     18  O   UNL     1       6.854   0.235   5.515  0.00  0.00    -0.253 OA
ATOM     19  N   UNL     1       8.174   1.688   4.476  0.00  0.00    -0.299 N 
ATOM     20  H   UNL     1       6.259   1.635   2.827  0.00  0.00    +0.151 HD
ATOM     21  H   UNL     1       8.322   2.271   3.715  0.00  0.00    +0.150 HD
BRANCH  19  22
ATOM     22  C   UNL     1       9.183   1.594   5.534  0.00  0.00    +0.109 C 
BRANCH  22  23
ATOM     23  C   UNL     1      10.363   2.508   5.197  0.00  0.00    +0.006 C 
ATOM     24  C   UNL     1      11.114   1.967   3.962  0.00  0.00    +0.005 C 
ATOM     25  C   UNL     1      12.604   2.257   4.267  0.00  0.00    +0.000 C 
ATOM     26  C   UNL     1      12.703   1.978   5.787  0.00  0.00    +0.000 C 
ATOM     27  C   UNL     1      11.373   2.514   6.357  0.00  0.00    +0.005 C 
ENDBRANCH  22  23
ENDBRANCH  19  22
ENDBRANCH  15  16
ENDBRANCH   2  15
TORSDOF 9
