REMARK  Name = ZINC20973344
REMARK  9 active torsions:
REMARK  status: ('A' for Active; 'I' for Inactive)
REMARK    1  A    between atoms: C_6  and  C_7
REMARK    2  A    between atoms: C_7  and  C_9
REMARK    3  A    between atoms: C_7  and  N_29
REMARK    4  A    between atoms: C_9  and  C_10
REMARK    5  A    between atoms: C_10  and  O_12
REMARK    6  A    between atoms: O_12  and  C_13
REMARK    7  A    between atoms: C_13  and  C_14
REMARK    8  A    between atoms: N_16  and  C_17
REMARK    9  A    between atoms: C_18  and  C_27
REMARK                            x       y       z     vdW  Elec       q    Type
REMARK                         _______ _______ _______ _____ _____    ______ ____
ROOT
ATOM      1  C   UNL     1      -0.128  -1.894   1.602  0.00  0.00    +0.310 C 
ATOM      2  O   UNL     1       0.041  -2.581   0.622  0.00  0.00    -0.251 OA
ENDROOT
BRANCH   1   3
ATOM      3  C   UNL     1      -0.183  -0.394   1.470  0.00  0.00    +0.147 C 
BRANCH   3   4
ATOM      4  C   UNL     1       0.002  -0.004   0.002  0.00  0.00    +0.115 C 
BRANCH   4  10
ATOM      5  C   UNL     1      -1.088   2.248  -0.053  0.00  0.00    +0.007 A 
ATOM      6  C   UNL     1      -1.026   3.625  -0.154  0.00  0.00    +0.020 A 
ATOM      7  C   UNL     1       0.196   4.251  -0.329  0.00  0.00    +0.041 A 
ATOM      8  C   UNL     1       1.355   3.498  -0.396  0.00  0.00    +0.020 A 
ATOM      9  C   UNL     1       1.292   2.121  -0.288  0.00  0.00    +0.007 A 
ATOM     10  C   UNL     1       0.070   1.497  -0.114  0.00  0.00    -0.027 A 
ATOM     11 CL   UNL     1       0.275   5.980  -0.465  0.00  0.00    -0.084 Cl
ENDBRANCH   4  10
BRANCH   4  12
ATOM     12  N   UNL     1      -1.130  -0.503  -0.782  0.00  0.00    -0.292 N 
ATOM     13  C   UNL     1      -0.991  -0.719  -2.105  0.00  0.00    +0.298 C 
ATOM     14  O   UNL     1       0.097  -0.586  -2.631  0.00  0.00    -0.253 OA
ATOM     15  N   UNL     1      -2.057  -1.081  -2.845  0.00  0.00    -0.313 N 
ATOM     16  H   UNL     1      -2.094  -0.703  -0.291  0.00  0.00    +0.151 HD
ATOM     17  H   UNL     1      -1.943  -1.257  -3.925  0.00  0.00    +0.146 HD
ATOM     18  H   UNL     1      -3.042  -1.202  -2.369  0.00  0.00    +0.146 HD
ENDBRANCH   4  12
ENDBRANCH   3   4
ENDBRANCH   1   3
BRANCH   1  19
ATOM     19  O   UNL     1      -0.268  -2.467   2.808  0.00  0.00    -0.455 OA
BRANCH  19  20
ATOM     20  C   UNL     1      -0.204  -3.917   2.860  0.00  0.00    +0.328 C 
BRANCH  20  21
ATOM     21  C   UNL     1      -0.380  -4.377   4.284  0.00  0.00    +0.255 C 
ATOM     22  O   UNL     1      -0.542  -3.563   5.168  0.00  0.00    -0.272 OA
ATOM     23  N   UNL     1      -0.356  -5.692   4.575  0.00  0.00    -0.276 N 
ATOM     24  H   UNL     1      -0.209  -6.431   3.773  0.00  0.00    +0.155 HD
BRANCH  23  25
ATOM     25  C   UNL     1      -0.518  -6.116   5.887  0.00  0.00    +0.090 A 
ATOM     26  C   UNL     1      -0.529  -7.411   6.379  0.00  0.00    +0.084 A 
ATOM     27  C   UNL     1      -0.711  -7.591   7.812  0.00  0.00    -0.018 A 
ATOM     28  C   UNL     1      -0.868  -6.447   8.514  0.00  0.00    -0.004 A 
ATOM     29  S   UNL     1      -0.762  -5.154   7.306  0.00  0.00    -0.077 S 
ATOM     30  C   UNL     1      -1.098  -6.300   9.986  0.00  0.00    +0.043 C 
ATOM     31  C   UNL     1      -0.073  -7.152  10.746  0.00  0.00    +0.005 C 
ATOM     32  C   UNL     1      -0.656  -8.548  10.942  0.00  0.00    +0.001 C 
ATOM     33  C   UNL     1      -1.543  -8.919   9.755  0.00  0.00    +0.005 C 
ATOM     34  C   UNL     1      -0.722  -8.964   8.471  0.00  0.00    +0.037 C 
BRANCH  26  35
ATOM     35  C   UNL     1      -0.364  -8.535   5.507  0.00  0.00    +0.102 C 
ATOM     36  N   UNL     1      -0.233  -9.426   4.815  0.00  0.00    -0.191 NA
ENDBRANCH  26  35
ENDBRANCH  23  25
ENDBRANCH  20  21
ENDBRANCH  19  20
ENDBRANCH   1  19
TORSDOF 9
