REMARK  Name = ZINC39653027
REMARK  9 active torsions:
REMARK  status: ('A' for Active; 'I' for Inactive)
REMARK    1  A    between atoms: C_1  and  O_2
REMARK    2  A    between atoms: O_2  and  C_3
REMARK    3  A    between atoms: C_5  and  C_11
REMARK    4  A    between atoms: C_7  and  O_9
REMARK    5  A    between atoms: O_9  and  C_10
REMARK    6  A    between atoms: C_11  and  C_12
REMARK    7  A    between atoms: C_12  and  N_13
REMARK    8  A    between atoms: C_14  and  C_16
REMARK    9  A    between atoms: C_27  and  C_29
REMARK                            x       y       z     vdW  Elec       q    Type
REMARK                         _______ _______ _______ _____ _____    ______ ____
ROOT
ATOM      1  C   UNL     1      -2.670  -8.335   2.612  0.00  0.00    +0.100 C 
ATOM      2  C   UNL     1      -1.467  -8.921   1.839  0.00  0.00    +0.121 C 
ATOM      3  N   UNL     1      -0.453  -9.202   2.882  0.00  0.00    -0.296 N 
ATOM      4  C   UNL     1      -1.236  -9.727   4.026  0.00  0.00    +0.115 C 
ATOM      5  C   UNL     1      -2.516  -8.869   4.046  0.00  0.00    -0.004 C 
ATOM      6  C   UNL     1      -3.721  -9.726   4.422  0.00  0.00    -0.010 C 
ATOM      7  C   UNL     1      -3.573 -10.198   5.871  0.00  0.00    -0.082 C 
ATOM      8  N   UNL     1      -3.479  -9.033   6.760  0.00  0.00    +0.379 N 
ATOM      9  C   UNL     1      -2.267  -8.265   6.452  0.00  0.00    -0.082 C 
ATOM     10  C   UNL     1      -2.360  -7.711   5.027  0.00  0.00    -0.010 C 
ATOM     11  C   UNL     1       0.881  -9.021   2.807  0.00  0.00    +0.249 C 
ATOM     12  O   UNL     1       1.368  -8.487   1.829  0.00  0.00    -0.270 OA
ATOM     13  H   UNL     1      -4.290  -8.447   6.630  0.00  0.00    -0.086 HD
ATOM     14  H   UNL     1      -3.443  -9.345   7.719  0.00  0.00    -0.086 HD
ENDROOT
BRANCH  11  15
ATOM     15  C   UNL     1       1.750  -9.470   3.912  0.00  0.00    +0.072 A 
ATOM     16  C   UNL     1       1.435 -10.630   4.624  0.00  0.00    +0.019 A 
ATOM     17  C   UNL     1       2.249 -11.046   5.654  0.00  0.00    +0.039 A 
ATOM     18  C   UNL     1       3.381 -10.315   5.987  0.00  0.00    +0.126 A 
ATOM     19  C   UNL     1       3.700  -9.164   5.286  0.00  0.00    +0.077 A 
ATOM     20  C   UNL     1       2.895  -8.740   4.247  0.00  0.00    +0.138 A 
ATOM     21  F   UNL     1       3.209  -7.620   3.559  0.00  0.00    -0.205 F 
ATOM     22  F   UNL     1       4.175 -10.728   6.999  0.00  0.00    -0.205 F 
ENDBRANCH  11  15
BRANCH   1  24
ATOM     23  N   UNL     1      -3.755  -6.112   2.641  0.00  0.00    -0.315 N 
ATOM     24  C   UNL     1      -2.615  -6.829   2.604  0.00  0.00    +0.218 C 
ATOM     25  O   UNL     1      -1.543  -6.261   2.565  0.00  0.00    -0.275 OA
ATOM     26  H   UNL     1      -4.612  -6.566   2.672  0.00  0.00    +0.149 HD
BRANCH  23  27
ATOM     27  C   UNL     1      -3.702  -4.648   2.634  0.00  0.00    +0.109 C 
BRANCH  27  28
ATOM     28  C   UNL     1      -5.123  -4.085   2.681  0.00  0.00    +0.054 C 
BRANCH  28  31
ATOM     29  C   UNL     1      -5.034  -0.508   1.464  0.00  0.00    +0.124 A 
ATOM     30  C   UNL     1      -5.084  -1.894   1.474  0.00  0.00    +0.049 A 
ATOM     31  C   UNL     1      -5.068  -2.579   2.674  0.00  0.00    -0.039 A 
ATOM     32  C   UNL     1      -5.002  -1.886   3.867  0.00  0.00    +0.049 A 
ATOM     33  C   UNL     1      -4.951  -0.499   3.863  0.00  0.00    +0.124 A 
ATOM     34  C   UNL     1      -4.961   0.190   2.660  0.00  0.00    +0.091 A 
BRANCH  29  36
ATOM     35  C   UNL     1      -4.989   1.592   0.349  0.00  0.00    +0.277 C 
ATOM     36  O   UNL     1      -5.050   0.165   0.284  0.00  0.00    -0.495 OA
ENDBRANCH  29  36
BRANCH  33  37
ATOM     37  O   UNL     1      -4.885   0.183   5.037  0.00  0.00    -0.495 OA
ATOM     38  C   UNL     1      -4.835   1.609   4.957  0.00  0.00    +0.277 C 
ENDBRANCH  33  37
ENDBRANCH  28  31
ENDBRANCH  27  28
ENDBRANCH  23  27
ENDBRANCH   1  24
TORSDOF 7
