REMARK  Name = ZINC04854636
REMARK  3 active torsions:
REMARK  status: ('A' for Active; 'I' for Inactive)
REMARK    1  A    between atoms: C_4  and  C_7
REMARK    2  A    between atoms: N_12  and  C_15
REMARK    3  A    between atoms: C_15  and  C_16
REMARK                            x       y       z     vdW  Elec       q    Type
REMARK                         _______ _______ _______ _____ _____    ______ ____
ROOT
ATOM      1  C   UNL     1       0.002  -0.004   0.002  0.00  0.00    +0.142 C 
ATOM      2  C   UNL     1      -0.018   1.511   0.010  0.00  0.00    +0.058 C 
ATOM      3  C   UNL     1       1.167   2.154   0.003  0.00  0.00    +0.039 C 
ATOM      4  C   UNL     1       0.849   3.633   0.013  0.00  0.00    +0.159 C 
ATOM      5  N   UNL     1      -0.620   3.703   0.028  0.00  0.00    -0.290 N 
ATOM      6  C   UNL     1      -1.080   2.439   0.031  0.00  0.00    +0.247 C 
ATOM      7  O   UNL     1      -2.259   2.136   0.046  0.00  0.00    -0.270 OA
ATOM      8  N   UNL     1       2.346   1.465  -0.013  0.00  0.00    -0.271 N 
ATOM      9  C   UNL     1       2.422   0.128  -0.020  0.00  0.00    +0.304 C 
ATOM     10  O   UNL     1       3.518  -0.398  -0.034  0.00  0.00    -0.252 OA
ATOM     11  N   UNL     1       1.324  -0.653  -0.014  0.00  0.00    -0.288 N 
ATOM     12  H   UNL     1       3.173   1.972  -0.018  0.00  0.00    +0.156 HD
ATOM     13  H   UNL     1       1.403  -1.620  -0.020  0.00  0.00    +0.151 HD
ENDROOT
BRANCH   1  17
ATOM     14  C   UNL     1      -2.156  -1.331  -3.437  0.00  0.00    +0.000 A 
ATOM     15  C   UNL     1      -2.766  -1.331  -2.196  0.00  0.00    +0.000 A 
ATOM     16  C   UNL     1      -2.067  -0.902  -1.083  0.00  0.00    +0.006 A 
ATOM     17  C   UNL     1      -0.759  -0.472  -1.211  0.00  0.00    -0.023 A 
ATOM     18  C   UNL     1      -0.152  -0.467  -2.453  0.00  0.00    +0.006 A 
ATOM     19  C   UNL     1      -0.849  -0.901  -3.565  0.00  0.00    +0.000 A 
ENDBRANCH   1  17
BRANCH   5  20
ATOM     20  C   UNL     1      -1.431   4.923   0.042  0.00  0.00    +0.140 C 
BRANCH  20  21
ATOM     21  C   UNL     1      -1.727   5.356  -1.395  0.00  0.00    +0.136 C 
ATOM     22  C   UNL     1      -2.525   6.684  -1.404  0.00  0.00    +0.035 C 
ATOM     23  C   UNL     1      -2.154   7.242  -2.805  0.00  0.00    +0.031 C 
ATOM     24  C   UNL     1      -0.698   6.757  -2.975  0.00  0.00    +0.160 C 
ATOM     25  O   UNL     1      -0.505   5.648  -2.090  0.00  0.00    -0.375 OA
ENDBRANCH  20  21
ENDBRANCH   5  20
TORSDOF 3
