REMARK  Name = ZINC66051331
REMARK  8 active torsions:
REMARK  status: ('A' for Active; 'I' for Inactive)
REMARK    1  A    between atoms: C_6  and  C_7
REMARK    2  A    between atoms: C_7  and  C_8
REMARK    3  A    between atoms: C_8  and  C_9
REMARK    4  A    between atoms: C_8  and  C_25
REMARK    5  A    between atoms: C_9  and  N_10
REMARK    6  A    between atoms: C_11  and  C_13
REMARK    7  A    between atoms: C_13  and  N_14
REMARK    8  A    between atoms: C_15  and  C_17
REMARK                            x       y       z     vdW  Elec       q    Type
REMARK                         _______ _______ _______ _____ _____    ______ ____
ROOT
ATOM      1  N   UNL     1      -3.143  -2.144  -3.082  0.00  0.00    -0.313 N 
ATOM      2  C   UNL     1      -4.209  -2.833  -3.537  0.00  0.00    +0.230 C 
ATOM      3  O   UNL     1      -5.086  -3.170  -2.771  0.00  0.00    -0.274 OA
ATOM      4  H   UNL     1      -2.442  -1.875  -3.695  0.00  0.00    +0.149 HD
ENDROOT
BRANCH   1   5
ATOM      5  C   UNL     1      -3.045  -1.803  -1.660  0.00  0.00    +0.117 C 
BRANCH   5   6
ATOM      6  C   UNL     1      -1.818  -0.919  -1.431  0.00  0.00    +0.096 C 
BRANCH   6   7
ATOM      7  C   UNL     1      -1.982   0.374  -2.188  0.00  0.00    +0.215 C 
ATOM      8  O   UNL     1      -3.078   0.885  -2.285  0.00  0.00    -0.276 OA
ATOM      9  N   UNL     1      -0.911   0.962  -2.756  0.00  0.00    -0.329 N 
ATOM     10  H   UNL     1      -0.049   0.519  -2.741  0.00  0.00    +0.145 HD
ATOM     11  H   UNL     1      -1.003   1.829  -3.182  0.00  0.00    +0.145 HD
ENDBRANCH   6   7
BRANCH   6  12
ATOM     12  C   UNL     1      -1.675  -0.621   0.063  0.00  0.00    +0.049 C 
BRANCH  12  18
ATOM     13  C   UNL     1      -0.436   1.530   0.379  0.00  0.00    +0.006 A 
ATOM     14  C   UNL     1       0.731   2.238   0.599  0.00  0.00    +0.038 A 
ATOM     15  C   UNL     1       1.932   1.565   0.741  0.00  0.00    +0.123 A 
ATOM     16  C   UNL     1       1.964   0.183   0.663  0.00  0.00    +0.038 A 
ATOM     17  C   UNL     1       0.796  -0.523   0.444  0.00  0.00    +0.006 A 
ATOM     18  C   UNL     1      -0.403   0.150   0.302  0.00  0.00    -0.046 A 
ATOM     19  F   UNL     1       3.073   2.256   0.955  0.00  0.00    -0.205 F 
ENDBRANCH  12  18
ENDBRANCH   6  12
ENDBRANCH   5   6
ENDBRANCH   1   5
BRANCH   2  20
ATOM     20  C   UNL     1      -4.310  -3.183  -5.000  0.00  0.00    +0.200 C 
BRANCH  20  21
ATOM     21  N   UNL     1      -5.549  -3.926  -5.239  0.00  0.00    -0.303 N 
ATOM     22  C   UNL     1      -5.853  -4.347  -6.483  0.00  0.00    +0.245 C 
ATOM     23  O   UNL     1      -5.099  -4.109  -7.406  0.00  0.00    -0.270 OA
ATOM     24  H   UNL     1      -6.152  -4.115  -4.503  0.00  0.00    +0.150 HD
BRANCH  22  25
ATOM     25  C   UNL     1      -7.104  -5.096  -6.725  0.00  0.00    +0.040 A 
ATOM     26  C   UNL     1      -7.975  -5.364  -5.667  0.00  0.00    +0.016 A 
ATOM     27  C   UNL     1      -9.140  -6.063  -5.897  0.00  0.00    +0.042 A 
ATOM     28  C   UNL     1      -9.450  -6.500  -7.175  0.00  0.00    +0.158 A 
ATOM     29  C   UNL     1      -8.588  -6.237  -8.231  0.00  0.00    +0.159 A 
ATOM     30  C   UNL     1      -7.421  -5.532  -8.012  0.00  0.00    +0.054 A 
ATOM     31  F   UNL     1      -8.894  -6.666  -9.475  0.00  0.00    -0.202 F 
ATOM     32  F   UNL     1     -10.593  -7.185  -7.394  0.00  0.00    -0.202 F 
ENDBRANCH  22  25
ENDBRANCH  20  21
ENDBRANCH   2  20
TORSDOF 8
