REMARK  Name = ZINC01719593
REMARK  14 active torsions:
REMARK  status: ('A' for Active; 'I' for Inactive)
REMARK    1  A    between atoms: C_1  and  C_2
REMARK    2  A    between atoms: C_2  and  N_3
REMARK    3  A    between atoms: N_3  and  C_4
REMARK    4  A    between atoms: N_3  and  C_6
REMARK    5  A    between atoms: C_4  and  C_5
REMARK    6  A    between atoms: C_6  and  C_7
REMARK    7  A    between atoms: C_7  and  C_8
REMARK    8  A    between atoms: C_8  and  C_9
REMARK    9  A    between atoms: C_9  and  C_11
REMARK   10  A    between atoms: C_9  and  N_12
REMARK   11  A    between atoms: N_12  and  C_13
REMARK   12  A    between atoms: C_15  and  N_32
REMARK   13  A    between atoms: C_21  and  C_23
REMARK   14  A    between atoms: C_26  and  N_29
REMARK                            x       y       z     vdW  Elec       q    Type
REMARK                         _______ _______ _______ _____ _____    ______ ____
ROOT
ATOM      1  C   UNL     1       2.383  -3.818  -6.267  0.00  0.00    +0.060 A 
ATOM      2  C   UNL     1       3.722  -4.161  -6.243  0.00  0.00    +0.066 A 
ATOM      3  C   UNL     1       4.500  -3.986  -7.391  0.00  0.00    +0.097 A 
ATOM      4  N   UNL     1       3.989  -3.498  -8.506  0.00  0.00    -0.327 N 
ATOM      5  C   UNL     1       2.701  -3.148  -8.594  0.00  0.00    +0.160 A 
ATOM      6  C   UNL     1       1.847  -3.301  -7.474  0.00  0.00    +0.127 A 
ATOM      7  N   UNL     1       0.561  -2.956  -7.561  0.00  0.00    -0.248 NA
ATOM      8  C   UNL     1       0.087  -2.479  -8.689  0.00  0.00    +0.140 A 
ATOM      9  C   UNL     1       0.925  -2.329  -9.806  0.00  0.00    +0.091 A 
ATOM     10  N   UNL     1       2.205  -2.656  -9.734  0.00  0.00    -0.226 NA
ATOM     11  H   UNL     1       4.561  -3.392  -9.281  0.00  0.00    +0.169 HD
ENDROOT
BRANCH   9  12
ATOM     12  C   UNL     1       0.374  -1.789 -11.072  0.00  0.00    +0.002 A 
ATOM     13  C   UNL     1       1.169  -1.738 -12.216  0.00  0.00    +0.012 A 
ATOM     14  C   UNL     1       0.650  -1.235 -13.392  0.00  0.00    +0.033 A 
ATOM     15  C   UNL     1      -0.656  -0.780 -13.436  0.00  0.00    +0.126 A 
ATOM     16  C   UNL     1      -1.449  -0.828 -12.304  0.00  0.00    +0.033 A 
ATOM     17  C   UNL     1      -0.943  -1.335 -11.124  0.00  0.00    +0.012 A 
BRANCH  15  18
ATOM     18  N   UNL     1      -1.206  -0.240 -14.700  0.00  0.00    +0.056 N 
ATOM     19  O   UNL     1      -0.514  -0.198 -15.691  0.00  0.00    -0.126 OA
ATOM     20  O   UNL     1      -2.346   0.158 -14.741  0.00  0.00    -0.126 OA
ENDBRANCH  15  18
ENDBRANCH   9  12
BRANCH   3  21
ATOM     21  N   UNL     1       5.841  -4.332  -7.358  0.00  0.00    -0.345 N 
ATOM     22  H   UNL     1       6.230  -4.691  -6.544  0.00  0.00    +0.144 HD
ATOM     23  H   UNL     1       6.392  -4.215  -8.147  0.00  0.00    +0.144 HD
ENDBRANCH   3  21
BRANCH   1  24
ATOM     24  N   UNL     1       1.586  -3.981  -5.144  0.00  0.00    -0.339 N 
ATOM     25  H   UNL     1       0.647  -3.740  -5.176  0.00  0.00    +0.146 HD
BRANCH  24  26
ATOM     26  C   UNL     1       2.162  -4.517  -3.908  0.00  0.00    +0.067 C 
ATOM     27  C   UNL     1       2.147  -6.046  -3.960  0.00  0.00    +0.028 C 
BRANCH  26  28
ATOM     28  C   UNL     1       1.336  -4.039  -2.711  0.00  0.00    +0.020 C 
BRANCH  28  29
ATOM     29  C   UNL     1       1.453  -2.519  -2.586  0.00  0.00    -0.017 C 
BRANCH  29  30
ATOM     30  C   UNL     1       0.628  -2.041  -1.389  0.00  0.00    -0.079 C 
BRANCH  30  31
ATOM     31  N   UNL     1       0.827  -0.598  -1.203  0.00  0.00    +0.379 N 
ATOM     32  H   UNL     1       1.813  -0.402  -1.119  0.00  0.00    -0.082 HD
BRANCH  31  34
ATOM     33  C   UNL     1       0.597   1.616  -2.224  0.00  0.00    -0.017 C 
ATOM     34  C   UNL     1       0.280   0.126  -2.359  0.00  0.00    -0.082 C 
ENDBRANCH  31  34
BRANCH  31  35
ATOM     35  C   UNL     1       0.136  -0.162   0.018  0.00  0.00    -0.082 C 
ATOM     36  C   UNL     1       0.810  -0.793   1.238  0.00  0.00    -0.017 C 
ENDBRANCH  31  35
ENDBRANCH  30  31
ENDBRANCH  29  30
ENDBRANCH  28  29
ENDBRANCH  26  28
ENDBRANCH  24  26
ENDBRANCH   1  24
TORSDOF 11
