REMARK  Name = ZINC58988384
REMARK  12 active torsions:
REMARK  status: ('A' for Active; 'I' for Inactive)
REMARK    1  A    between atoms: C_2  and  C_3
REMARK    2  A    between atoms: C_3  and  C_4
REMARK    3  A    between atoms: C_8  and  C_11
REMARK    4  A    between atoms: C_9  and  O_10
REMARK    5  A    between atoms: N_12  and  N_13
REMARK    6  A    between atoms: C_14  and  C_16
REMARK    7  A    between atoms: C_16  and  C_17
REMARK    8  A    between atoms: C_17  and  C_18
REMARK    9  A    between atoms: C_18  and  S_19
REMARK   10  A    between atoms: S_19  and  C_20
REMARK   11  A    between atoms: C_23  and  C_26
REMARK   12  A    between atoms: N_24  and  N_25
REMARK                            x       y       z     vdW  Elec       q    Type
REMARK                         _______ _______ _______ _____ _____    ______ ____
ROOT
ATOM      1  C   UNL     1      -2.052  -8.628  -0.471  0.00  0.00    +0.098 C 
ENDROOT
BRANCH   1   3
ATOM      2  N   UNL     1      -0.882  -6.881   0.832  0.00  0.00    -0.207 N 
ATOM      3  C   UNL     1      -1.535  -7.223  -0.296  0.00  0.00    +0.232 C 
ATOM      4  O   UNL     1      -1.707  -6.400  -1.171  0.00  0.00    -0.274 OA
ATOM      5  H   UNL     1      -0.745  -7.539   1.532  0.00  0.00    +0.177 HD
BRANCH   2   7
ATOM      6  C   UNL     1       0.227  -5.245   2.082  0.00  0.00    +0.142 C 
ATOM      7  N   UNL     1      -0.402  -5.575   0.995  0.00  0.00    -0.188 NA
BRANCH   6  12
ATOM      8  C   UNL     1       1.016  -1.630   1.415  0.00  0.00    -0.002 A 
ATOM      9  C   UNL     1       1.685  -1.287   2.576  0.00  0.00    +0.007 A 
ATOM     10  C   UNL     1       1.881  -2.226   3.574  0.00  0.00    +0.001 A 
ATOM     11  C   UNL     1       1.410  -3.513   3.420  0.00  0.00    +0.013 A 
ATOM     12  C   UNL     1       0.733  -3.872   2.253  0.00  0.00    +0.036 A 
ATOM     13  C   UNL     1       0.532  -2.916   1.247  0.00  0.00    +0.129 A 
BRANCH  13  14
ATOM     14  O   UNL     1      -0.130  -3.252   0.110  0.00  0.00    -0.506 OA
ATOM     15  H   UNL     1       0.442  -3.588  -0.594  0.00  0.00    +0.292 HD
ENDBRANCH  13  14
BRANCH   8  16
ATOM     16  C   UNL     1       0.808  -0.600   0.335  0.00  0.00    +0.065 C 
BRANCH  16  18
ATOM     17  C   UNL     1      -0.644   1.343   0.605  0.00  0.00    +0.004 C 
ATOM     18  C   UNL     1      -0.545   0.041   0.505  0.00  0.00    -0.030 C 
ENDBRANCH  16  18
ENDBRANCH   8  16
ENDBRANCH   6  12
ENDBRANCH   2   7
ENDBRANCH   1   3
BRANCH   1  19
ATOM     19  C   UNL     1      -2.749  -8.749  -1.828  0.00  0.00    +0.020 C 
BRANCH  19  20
ATOM     20  C   UNL     1      -3.274 -10.175  -2.006  0.00  0.00    +0.078 C 
BRANCH  20  21
ATOM     21  S   UNL     1      -4.099 -10.320  -3.614  0.00  0.00    -0.084 S 
BRANCH  21  22
ATOM     22  C   UNL     1      -4.640 -11.996  -3.667  0.00  0.00    +0.209 A 
ATOM     23  N   UNL     1      -4.469 -12.900  -2.728  0.00  0.00    -0.121 NA
ATOM     24  N   UNL     1      -4.988 -14.018  -3.093  0.00  0.00    -0.127 NA
ATOM     25  C   UNL     1      -5.522 -13.896  -4.286  0.00  0.00    +0.183 A 
ATOM     26  N   UNL     1      -5.321 -12.596  -4.688  0.00  0.00    -0.224 N 
BRANCH  25  27
ATOM     27  C   UNL     1      -6.214 -14.955  -5.051  0.00  0.00    +0.039 A 
ATOM     28  C   UNL     1      -6.422 -14.818  -6.428  0.00  0.00    +0.014 A 
ATOM     29  C   UNL     1      -7.075 -15.837  -7.098  0.00  0.00    +0.020 A 
ATOM     30  C   UNL     1      -7.496 -16.950  -6.392  0.00  0.00    +0.111 A 
ATOM     31  N   UNL     1      -7.286 -17.053  -5.094  0.00  0.00    -0.263 NA
ATOM     32  C   UNL     1      -6.665 -16.111  -4.413  0.00  0.00    +0.122 A 
ENDBRANCH  25  27
BRANCH  26  33
ATOM     33  N   UNL     1      -5.716 -12.025  -5.864  0.00  0.00    -0.295 N 
ATOM     34  H   UNL     1      -5.045 -12.204  -6.596  0.00  0.00    +0.163 HD
ATOM     35  H   UNL     1      -6.635 -12.344  -6.130  0.00  0.00    +0.163 HD
ENDBRANCH  26  33
ENDBRANCH  21  22
ENDBRANCH  20  21
ENDBRANCH  19  20
ENDBRANCH   1  19
TORSDOF 12
