REMARK  Name = ZINC38537109
REMARK  4 active torsions:
REMARK  status: ('A' for Active; 'I' for Inactive)
REMARK    1  A    between atoms: C_1  and  C_2
REMARK    2  A    between atoms: C_3  and  C_16
REMARK    3  A    between atoms: C_4  and  N_15
REMARK    4  A    between atoms: N_5  and  C_7
REMARK                            x       y       z     vdW  Elec       q    Type
REMARK                         _______ _______ _______ _____ _____    ______ ____
ROOT
ATOM      1  C   UNL     1      -0.379   1.473   0.051  0.00  0.00    +0.069 C 
ATOM      2  C   UNL     1      -0.155  -0.017   0.020  0.00  0.00    +0.080 A 
ATOM      3  C   UNL     1      -0.178  -0.835  -1.134  0.00  0.00    +0.114 A 
ATOM      4  C   UNL     1       0.075  -2.138  -0.715  0.00  0.00    +0.138 A 
ATOM      5  N   UNL     1       0.241  -2.099   0.627  0.00  0.00    -0.215 N 
ATOM      6  N   UNL     1       0.099  -0.774   1.051  0.00  0.00    -0.169 NA
ENDROOT
BRANCH   5   7
ATOM      7  C   UNL     1       0.515  -3.200   1.451  0.00  0.00    +0.105 A 
ATOM      8  C   UNL     1       1.515  -4.097   1.104  0.00  0.00    +0.069 A 
ATOM      9  C   UNL     1       1.783  -5.181   1.919  0.00  0.00    +0.126 A 
ATOM     10  C   UNL     1       1.055  -5.372   3.082  0.00  0.00    +0.041 A 
ATOM     11  C   UNL     1       0.059  -4.480   3.431  0.00  0.00    +0.043 A 
ATOM     12  C   UNL     1      -0.210  -3.390   2.622  0.00  0.00    +0.149 A 
ATOM     13  F   UNL     1      -1.180  -2.515   2.966  0.00  0.00    -0.203 F 
ATOM     14  F   UNL     1       2.756  -6.056   1.582  0.00  0.00    -0.205 F 
ENDBRANCH   5   7
BRANCH   4  15
ATOM     15  N   UNL     1       0.143  -3.261  -1.518  0.00  0.00    -0.342 N 
ATOM     16  H   UNL     1       0.096  -3.170  -2.483  0.00  0.00    +0.144 HD
ATOM     17  H   UNL     1       0.239  -4.139  -1.117  0.00  0.00    +0.144 HD
ENDBRANCH   4  15
BRANCH   3  18
ATOM     18  C   UNL     1      -0.416  -0.404  -2.478  0.00  0.00    +0.104 C 
ATOM     19  N   UNL     1      -0.605  -0.062  -3.545  0.00  0.00    -0.191 NA
ENDBRANCH   3  18
TORSDOF 3
