REMARK  Name = ZINC39662187
REMARK  5 active torsions:
REMARK  status: ('A' for Active; 'I' for Inactive)
REMARK    1  A    between atoms: C_4  and  C_7
REMARK    2  A    between atoms: C_7  and  C_9
REMARK    3  A    between atoms: C_7  and  N_11
REMARK    4  A    between atoms: C_12  and  C_14
REMARK    5  A    between atoms: C_25  and  C_27
REMARK                            x       y       z     vdW  Elec       q    Type
REMARK                         _______ _______ _______ _____ _____    ______ ____
ROOT
ATOM      1  C   UNL     1       4.661  -3.583   2.298  0.00  0.00    +0.100 C 
ATOM      2  C   UNL     1       3.955  -3.208   3.621  0.00  0.00    +0.121 C 
ATOM      3  N   UNL     1       4.675  -3.979   4.661  0.00  0.00    -0.296 N 
ATOM      4  C   UNL     1       6.099  -3.909   4.253  0.00  0.00    +0.115 C 
ATOM      5  C   UNL     1       6.067  -4.042   2.718  0.00  0.00    -0.004 C 
ATOM      6  C   UNL     1       7.126  -3.141   2.089  0.00  0.00    -0.010 C 
ATOM      7  C   UNL     1       8.518  -3.652   2.473  0.00  0.00    -0.082 C 
ATOM      8  N   UNL     1       8.681  -5.033   2.004  0.00  0.00    +0.379 N 
ATOM      9  C   UNL     1       7.719  -5.910   2.684  0.00  0.00    -0.082 C 
ATOM     10  C   UNL     1       6.294  -5.494   2.309  0.00  0.00    -0.010 C 
ATOM     11  C   UNL     1       4.153  -4.604   5.736  0.00  0.00    +0.248 C 
ATOM     12  O   UNL     1       2.948  -4.655   5.883  0.00  0.00    -0.270 OA
ATOM     13  H   UNL     1       8.522  -5.070   1.008  0.00  0.00    -0.086 HD
ATOM     14  H   UNL     1       9.619  -5.347   2.204  0.00  0.00    -0.086 HD
ENDROOT
BRANCH  11  15
ATOM     15  C   UNL     1       5.047  -5.226   6.734  0.00  0.00    +0.055 A 
ATOM     16  C   UNL     1       6.275  -4.637   7.040  0.00  0.00    +0.016 A 
ATOM     17  C   UNL     1       7.105  -5.223   7.972  0.00  0.00    +0.021 A 
ATOM     18  C   UNL     1       6.722  -6.394   8.605  0.00  0.00    +0.042 A 
ATOM     19  C   UNL     1       5.506  -6.984   8.307  0.00  0.00    +0.040 A 
ATOM     20  C   UNL     1       4.663  -6.404   7.380  0.00  0.00    +0.054 A 
ATOM     21 CL   UNL     1       3.135  -7.141   7.013  0.00  0.00    -0.083 Cl
ATOM     22 CL   UNL     1       7.773  -7.125   9.778  0.00  0.00    -0.083 Cl
ENDBRANCH  11  15
BRANCH   1  24
ATOM     23  N   UNL     1       4.934  -2.551   0.067  0.00  0.00    -0.296 N 
ATOM     24  C   UNL     1       4.749  -2.383   1.391  0.00  0.00    +0.219 C 
ATOM     25  O   UNL     1       4.654  -1.266   1.853  0.00  0.00    -0.275 OA
ATOM     26  H   UNL     1       5.010  -3.445  -0.302  0.00  0.00    +0.150 HD
BRANCH  23  27
ATOM     27  C   UNL     1       5.019  -1.384  -0.815  0.00  0.00    +0.207 C 
BRANCH  27  31
ATOM     28  C   UNL     1       3.873  -2.502  -4.775  0.00  0.00    +0.000 A 
ATOM     29  C   UNL     1       3.470  -1.286  -4.256  0.00  0.00    +0.000 A 
ATOM     30  C   UNL     1       3.841  -0.924  -2.974  0.00  0.00    +0.006 A 
ATOM     31  C   UNL     1       4.614  -1.779  -2.211  0.00  0.00    -0.013 A 
ATOM     32  C   UNL     1       5.016  -2.996  -2.730  0.00  0.00    +0.006 A 
ATOM     33  C   UNL     1       4.646  -3.357  -4.012  0.00  0.00    +0.000 A 
ENDBRANCH  27  31
BRANCH  27  34
ATOM     34  C   UNL     1       6.402  -0.880  -0.829  0.00  0.00    +0.090 C 
ATOM     35  N   UNL     1       7.470  -0.491  -0.840  0.00  0.00    -0.194 NA
ENDBRANCH  27  34
ENDBRANCH  23  27
ENDBRANCH   1  24
TORSDOF 5
