REMARK  Name = ZINC64010241
REMARK  8 active torsions:
REMARK  status: ('A' for Active; 'I' for Inactive)
REMARK    1  A    between atoms: C_1  and  C_2
REMARK    2  A    between atoms: C_2  and  C_3
REMARK    3  A    between atoms: C_2  and  C_4
REMARK    4  A    between atoms: C_2  and  N_5
REMARK    5  A    between atoms: N_9  and  C_12
REMARK    6  A    between atoms: C_12  and  C_13
REMARK    7  A    between atoms: N_15  and  C_16
REMARK    8  A    between atoms: C_17  and  C_25
REMARK                            x       y       z     vdW  Elec       q    Type
REMARK                         _______ _______ _______ _____ _____    ______ ____
ROOT
ATOM      1  C   UNL     1       1.339  -1.290  -6.314  0.00  0.00    +0.201 C 
ATOM      2  O   UNL     1       0.308  -1.853  -6.009  0.00  0.00    -0.278 OA
ATOM      3  N   UNL     1       1.762  -1.304  -7.594  0.00  0.00    -0.281 N 
ATOM      4  H   UNL     1       2.586  -0.855  -7.837  0.00  0.00    +0.155 HD
ENDROOT
BRANCH   3   5
ATOM      5  C   UNL     1       1.018  -1.962  -8.562  0.00  0.00    +0.084 A 
ATOM      6  C   UNL     1       1.298  -2.085  -9.914  0.00  0.00    +0.068 A 
ATOM      7  C   UNL     1       0.351  -2.832 -10.723  0.00  0.00    -0.023 A 
ATOM      8  C   UNL     1      -0.703  -3.318 -10.033  0.00  0.00    -0.004 A 
ATOM      9  S   UNL     1      -0.424  -2.799  -8.365  0.00  0.00    -0.077 S 
ATOM     10  C   UNL     1      -1.843  -4.121 -10.579  0.00  0.00    +0.043 C 
ATOM     11  C   UNL     1      -1.834  -3.993 -12.109  0.00  0.00    +0.005 C 
ATOM     12  C   UNL     1      -0.410  -4.238 -12.618  0.00  0.00    +0.005 C 
ATOM     13  C   UNL     1       0.494  -3.070 -12.219  0.00  0.00    +0.037 C 
BRANCH   6  14
ATOM     14  C   UNL     1       2.501  -1.487 -10.502  0.00  0.00    +0.244 C 
ATOM     15  O   UNL     1       3.535  -2.126 -10.555  0.00  0.00    -0.270 OA
ATOM     16  N   UNL     1       2.460  -0.229 -10.985  0.00  0.00    -0.325 N 
ATOM     17  H   UNL     1       1.636   0.281 -10.942  0.00  0.00    +0.145 HD
ATOM     18  H   UNL     1       3.255   0.167 -11.374  0.00  0.00    +0.145 HD
ENDBRANCH   6  14
ENDBRANCH   3   5
BRANCH   1  19
ATOM     19  C   UNL     1       2.147  -0.575  -5.262  0.00  0.00    +0.019 C 
BRANCH  19  24
ATOM     20  N   UNL     1       0.452  -0.503  -1.304  0.00  0.00    -0.299 NA
ATOM     21  C   UNL     1       0.219  -1.965  -1.425  0.00  0.00    +0.083 C 
ATOM     22  C   UNL     1       0.167  -2.386  -2.821  0.00  0.00    -0.003 C 
ATOM     23  C   UNL     1       1.479  -2.094  -3.572  0.00  0.00    -0.077 C 
ATOM     24  N   UNL     1       1.479  -0.705  -3.960  0.00  0.00    +0.386 N 
ATOM     25  C   UNL     1       2.173   0.160  -2.977  0.00  0.00    -0.063 C 
ATOM     26  C   UNL     1       1.847  -0.206  -1.518  0.00  0.00    +0.066 C 
ATOM     27  H   UNL     1       0.524  -0.393  -4.052  0.00  0.00    -0.081 HD
BRANCH  20  29
ATOM     28  C   UNL     1       0.168   1.516   0.052  0.00  0.00    +0.027 C 
ATOM     29  C   UNL     1       0.002  -0.004   0.002  0.00  0.00    +0.013 C 
ATOM     30  C   UNL     1       0.841  -0.646   1.109  0.00  0.00    +0.027 C 
ATOM     31  C   UNL     1      -1.471  -0.363   0.205  0.00  0.00    +0.027 C 
ENDBRANCH  20  29
ENDBRANCH  19  24
ENDBRANCH   1  19
TORSDOF 5
