REMARK  Name = ZINC00422901
REMARK  3 active torsions:
REMARK  status: ('A' for Active; 'I' for Inactive)
REMARK    1  A    between atoms: C_4  and  C_7
REMARK    2  A    between atoms: C_7  and  N_8
REMARK    3  A    between atoms: C_9  and  C_11
REMARK                            x       y       z     vdW  Elec       q    Type
REMARK                         _______ _______ _______ _____ _____    ______ ____
ROOT
ATOM      1  C   UNL     1      -1.139  -2.161  -0.110  0.00  0.00    +0.080 A 
ATOM      2  C   UNL     1      -2.325  -2.879  -0.208  0.00  0.00    +0.018 A 
ATOM      3  C   UNL     1      -2.276  -4.270  -0.320  0.00  0.00    +0.019 A 
ATOM      4  C   UNL     1      -1.093  -4.926  -0.335  0.00  0.00    +0.096 A 
ATOM      5  N   UNL     1       0.093  -4.266  -0.242  0.00  0.00    -0.267 N 
ATOM      6  C   UNL     1       0.131  -2.898  -0.134  0.00  0.00    +0.153 A 
ATOM      7  N   UNL     1       1.264  -2.234  -0.048  0.00  0.00    -0.228 NA
ATOM      8  C   UNL     1       2.473  -2.857  -0.064  0.00  0.00    +0.086 A 
ATOM      9  C   UNL     1       3.752  -2.283   0.018  0.00  0.00    +0.036 A 
ATOM     10  C   UNL     1       4.851  -3.065  -0.015  0.00  0.00    +0.048 A 
ATOM     11  S   UNL     1       4.165  -4.706  -0.168  0.00  0.00    -0.090 S 
ATOM     12  C   UNL     1       2.448  -4.262  -0.179  0.00  0.00    +0.102 A 
ATOM     13  C   UNL     1       1.253  -4.964  -0.262  0.00  0.00    +0.273 A 
ATOM     14  O   UNL     1       1.248  -6.180  -0.361  0.00  0.00    -0.266 OA
ENDROOT
BRANCH   1  16
ATOM     15  N   UNL     1       0.001  -0.003  -0.015  0.00  0.00    -0.307 N 
ATOM     16  C   UNL     1      -1.156  -0.694   0.009  0.00  0.00    +0.248 C 
ATOM     17  O   UNL     1      -2.213  -0.105   0.130  0.00  0.00    -0.270 OA
ATOM     18  H   UNL     1       0.848  -0.475  -0.037  0.00  0.00    +0.149 HD
BRANCH  15  19
ATOM     19  C   UNL     1      -0.021   1.462  -0.010  0.00  0.00    +0.139 C 
BRANCH  19  23
ATOM     20  C   UNL     1       3.984   2.946  -0.098  0.00  0.00    +0.000 A 
ATOM     21  C   UNL     1       3.308   2.710  -1.280  0.00  0.00    +0.000 A 
ATOM     22  C   UNL     1       2.012   2.230  -1.252  0.00  0.00    +0.005 A 
ATOM     23  C   UNL     1       1.392   1.986  -0.041  0.00  0.00    -0.030 A 
ATOM     24  C   UNL     1       2.066   2.227   1.142  0.00  0.00    +0.005 A 
ATOM     25  C   UNL     1       3.364   2.702   1.113  0.00  0.00    +0.000 A 
ENDBRANCH  19  23
ENDBRANCH  15  19
ENDBRANCH   1  16
TORSDOF 3
