REMARK  Name = ZINC13660161
REMARK  8 active torsions:
REMARK  status: ('A' for Active; 'I' for Inactive)
REMARK    1  A    between atoms: C_1  and  C_2
REMARK    2  A    between atoms: C_5  and  O_28
REMARK    3  A    between atoms: C_9  and  C_27
REMARK    4  A    between atoms: C_12  and  O_26
REMARK    5  A    between atoms: C_13  and  C_25
REMARK    6  A    between atoms: C_22  and  C_23
REMARK    7  A    between atoms: C_22  and  C_24
REMARK    8  A    between atoms: O_28  and  C_29
REMARK                            x       y       z     vdW  Elec       q    Type
REMARK                         _______ _______ _______ _____ _____    ______ ____
ROOT
ATOM      1  C   UNL     1       0.048   1.288  -0.101  0.00  0.00    +0.048 C 
ATOM      2  C   UNL     1      -0.033  -0.216  -0.082  0.00  0.00    -0.001 A 
ATOM      3  C   UNL     1      -0.117  -0.937  -1.243  0.00  0.00    +0.014 A 
ATOM      4  C   UNL     1      -0.188  -2.346  -1.235  0.00  0.00    +0.108 A 
ATOM      5  C   UNL     1      -0.172  -3.057  -0.027  0.00  0.00    +0.141 A 
ATOM      6  C   UNL     1      -0.088  -2.312   1.151  0.00  0.00    +0.037 A 
ATOM      7  C   UNL     1      -0.017  -0.931   1.129  0.00  0.00    +0.131 A 
ATOM      8  O   UNL     1       0.052  -0.202   2.272  0.00  0.00    -0.485 OA
ATOM      9  C   UNL     1       0.423  -0.858   3.486  0.00  0.00    +0.112 C 
ATOM     10  C   UNL     1       0.088   0.070   4.660  0.00  0.00    +0.051 C 
ATOM     11  C   UNL     1      -1.395   0.459   4.595  0.00  0.00    +0.043 C 
ATOM     12  C   UNL     1      -2.239  -0.807   4.647  0.00  0.00    +0.111 C 
ATOM     13  C   UNL     1      -1.890  -1.755   3.540  0.00  0.00    +0.008 C 
ATOM     14  C   UNL     1      -0.416  -2.141   3.610  0.00  0.00    +0.046 C 
ATOM     15  C   UNL     1      -0.068  -3.072   2.455  0.00  0.00    +0.050 C 
ATOM     16  C   UNL     1      -2.791  -2.985   3.454  0.00  0.00    +0.021 C 
ATOM     17  C   UNL     1      -3.050  -3.559   4.840  0.00  0.00    +0.121 C 
ATOM     18  C   UNL     1      -4.204  -2.813   5.465  0.00  0.00    +0.308 C 
ATOM     19  O   UNL     1      -5.279  -3.362   5.518  0.00  0.00    -0.251 OA
ATOM     20  O   UNL     1      -4.103  -1.603   5.954  0.00  0.00    -0.456 OA
ATOM     21  C   UNL     1      -3.658  -0.599   5.021  0.00  0.00    +0.137 C 
ATOM     22  C   UNL     1      -3.811   0.783   5.661  0.00  0.00    +0.058 C 
ATOM     23  C   UNL     1      -4.524  -0.666   3.762  0.00  0.00    +0.058 C 
ATOM     24  C   UNL     1      -2.082  -0.990   2.228  0.00  0.00    +0.014 C 
ATOM     25  C   UNL     1       1.914  -1.201   3.466  0.00  0.00    +0.056 C 
ATOM     26  C   UNL     1      -0.271  -2.796  -2.618  0.00  0.00    +0.343 C 
ATOM     27  O   UNL     1      -0.346  -3.956  -2.971  0.00  0.00    -0.245 OA
ATOM     28  O   UNL     1      -0.252  -1.734  -3.449  0.00  0.00    -0.456 OA
ATOM     29  C   UNL     1      -0.155  -0.526  -2.682  0.00  0.00    +0.269 C 
ENDROOT
BRANCH  12  30
ATOM     30  O   UNL     1      -1.704  -1.478   5.790  0.00  0.00    -0.384 OA
ATOM     31  H   UNL     1      -1.779  -0.974   6.613  0.00  0.00    +0.210 HD
ENDBRANCH  12  30
BRANCH   5  32
ATOM     32  O   UNL     1      -0.236  -4.412  -0.003  0.00  0.00    -0.494 OA
ATOM     33  C   UNL     1       1.005  -5.120  -0.044  0.00  0.00    +0.277 C 
ENDBRANCH   5  32
TORSDOF 2
