REMARK  Name = ZINC67613792
REMARK  5 active torsions:
REMARK  status: ('A' for Active; 'I' for Inactive)
REMARK    1  A    between atoms: C_9  and  N_14
REMARK    2  A    between atoms: N_17  and  C_18
REMARK    3  A    between atoms: C_18  and  C_19
REMARK    4  A    between atoms: N_24  and  C_25
REMARK    5  A    between atoms: C_25  and  C_26
REMARK                            x       y       z     vdW  Elec       q    Type
REMARK                         _______ _______ _______ _____ _____    ______ ____
ROOT
ATOM      1  N   UNL     1      -5.665   1.519   2.494  0.00  0.00    -0.293 N 
ATOM      2  C   UNL     1      -4.891   1.815   1.431  0.00  0.00    +0.300 C 
ATOM      3  O   UNL     1      -3.694   1.607   1.473  0.00  0.00    -0.253 OA
ATOM      4  N   UNL     1      -5.445   2.343   0.321  0.00  0.00    -0.301 N 
ATOM      5  H   UNL     1      -6.620   1.685   2.460  0.00  0.00    +0.151 HD
ATOM      6  H   UNL     1      -6.400   2.509   0.287  0.00  0.00    +0.150 HD
ENDROOT
BRANCH   1  15
ATOM      7  C   UNL     1      -4.530  -1.037   2.288  0.00  0.00    +0.012 A 
ATOM      8  C   UNL     1      -4.401  -2.377   2.090  0.00  0.00    +0.070 A 
ATOM      9  C   UNL     1      -4.697  -3.253   3.149  0.00  0.00    +0.249 A 
ATOM     10  O   UNL     1      -4.583  -4.459   2.996  0.00  0.00    -0.268 OA
ATOM     11  N   UNL     1      -5.105  -2.760   4.329  0.00  0.00    -0.326 N 
ATOM     12  H   UNL     1      -5.306  -3.371   5.054  0.00  0.00    +0.169 HD
ATOM     13  C   UNL     1      -5.242  -1.415   4.532  0.00  0.00    +0.024 A 
ATOM     14  C   UNL     1      -4.957  -0.549   3.539  0.00  0.00    -0.008 A 
ATOM     15  C   UNL     1      -5.063   0.945   3.700  0.00  0.00    +0.106 C 
ATOM     16  C   UNL     1      -5.928   1.298   4.909  0.00  0.00    +0.027 C 
ATOM     17  C   UNL     1      -5.411   0.506   6.116  0.00  0.00    +0.008 C 
ATOM     18  C   UNL     1      -5.724  -0.971   5.889  0.00  0.00    +0.054 C 
ENDBRANCH   1  15
BRANCH   4  19
ATOM     19  C   UNL     1      -4.604   2.665  -0.835  0.00  0.00    +0.090 C 
BRANCH  19  20
ATOM     20  C   UNL     1      -5.487   3.131  -1.994  0.00  0.00    -0.051 C 
ATOM     21  C   UNL     1      -6.193   4.451  -1.619  0.00  0.00    -0.016 C 
ATOM     22  C   UNL     1      -6.165   5.252  -2.947  0.00  0.00    -0.020 C 
ATOM     23  C   UNL     1      -4.797   4.830  -3.538  0.00  0.00    -0.078 C 
ATOM     24  N   UNL     1      -4.656   3.399  -3.182  0.00  0.00    +0.383 N 
ATOM     25  H   UNL     1      -4.966   2.823  -3.950  0.00  0.00    -0.081 HD
BRANCH  24  26
ATOM     26  C   UNL     1      -3.250   3.100  -2.879  0.00  0.00    -0.075 C 
BRANCH  26  27
ATOM     27  C   UNL     1      -2.405   3.288  -4.140  0.00  0.00    -0.028 C 
ATOM     28  C   UNL     1      -2.821   2.256  -5.191  0.00  0.00    +0.002 C 
ATOM     29  C   UNL     1      -1.976   2.444  -6.452  0.00  0.00    +0.000 C 
ATOM     30  C   UNL     1      -0.497   2.255  -6.109  0.00  0.00    +0.000 C 
ATOM     31  C   UNL     1      -0.081   3.287  -5.058  0.00  0.00    +0.000 C 
ATOM     32  C   UNL     1      -0.926   3.099  -3.797  0.00  0.00    +0.002 C 
ENDBRANCH  26  27
ENDBRANCH  24  26
ENDBRANCH  19  20
ENDBRANCH   4  19
TORSDOF 5
