REMARK  Name = ZINC05817664
REMARK  7 active torsions:
REMARK  status: ('A' for Active; 'I' for Inactive)
REMARK    1  A    between atoms: C_1  and  C_2
REMARK    2  A    between atoms: C_2  and  O_3
REMARK    3  A    between atoms: O_3  and  C_4
REMARK    4  A    between atoms: C_7  and  C_10
REMARK    5  A    between atoms: C_17  and  N_28
REMARK    6  A    between atoms: C_18  and  C_26
REMARK    7  A    between atoms: C_19  and  C_21
REMARK                            x       y       z     vdW  Elec       q    Type
REMARK                         _______ _______ _______ _____ _____    ______ ____
ROOT
ATOM      1  C   UNL     1       1.108  -6.016  -1.844  0.00  0.00    +0.074 A 
ATOM      2  C   UNL     1       2.219  -6.696  -2.216  0.00  0.00    +0.054 A 
ATOM      3  C   UNL     1       1.898  -8.067  -2.264  0.00  0.00    +0.245 A 
ATOM      4  N   UNL     1       0.645  -8.206  -1.934  0.00  0.00    -0.135 NA
ATOM      5  N   UNL     1       0.115  -6.936  -1.657  0.00  0.00    -0.273 N 
ATOM      6  H   UNL     1      -0.796  -6.746  -1.382  0.00  0.00    +0.189 HD
ATOM      7  O   UNL     1       2.815  -9.010  -2.612  0.00  0.00    -0.421 OA
ATOM      8  C   UNL     1       3.964  -8.582  -3.172  0.00  0.00    +0.201 C 
ATOM      9  C   UNL     1       4.381  -7.299  -3.177  0.00  0.00    +0.098 C 
ATOM     10  C   UNL     1       3.597  -6.179  -2.542  0.00  0.00    +0.105 C 
ENDROOT
BRANCH   1  14
ATOM     11  C   UNL     1       0.777  -1.810  -1.336  0.00  0.00    +0.121 A 
ATOM     12  C   UNL     1       0.241  -2.667  -0.384  0.00  0.00    +0.046 A 
ATOM     13  C   UNL     1       0.347  -4.032  -0.545  0.00  0.00    +0.013 A 
ATOM     14  C   UNL     1       0.992  -4.552  -1.667  0.00  0.00    +0.000 A 
ATOM     15  C   UNL     1       1.529  -3.688  -2.623  0.00  0.00    +0.013 A 
ATOM     16  C   UNL     1       1.415  -2.324  -2.457  0.00  0.00    +0.046 A 
BRANCH  11  17
ATOM     17  O   UNL     1       0.671  -0.465  -1.174  0.00  0.00    -0.492 OA
BRANCH  17  19
ATOM     18  C   UNL     1      -0.019   1.526   0.010  0.00  0.00    +0.048 C 
ATOM     19  C   UNL     1       0.002  -0.004   0.002  0.00  0.00    +0.225 C 
ENDBRANCH  17  19
ENDBRANCH  11  17
ENDBRANCH   1  14
BRANCH  10  20
ATOM     20  C   UNL     1       4.284  -5.730  -1.277  0.00  0.00    +0.003 A 
ATOM     21  C   UNL     1       4.753  -4.428  -0.990  0.00  0.00    +0.045 A 
ATOM     22  C   UNL     1       5.295  -4.472   0.241  0.00  0.00    +0.195 A 
ATOM     23  O   UNL     1       5.179  -5.725   0.711  0.00  0.00    -0.471 OA
ATOM     24  C   UNL     1       4.562  -6.491  -0.203  0.00  0.00    +0.199 A 
ENDBRANCH  10  20
BRANCH   8  25
ATOM     25  N   UNL     1       4.765  -9.517  -3.779  0.00  0.00    -0.328 N 
ATOM     26  H   UNL     1       4.497 -10.449  -3.795  0.00  0.00    +0.145 HD
ATOM     27  H   UNL     1       5.600  -9.245  -4.192  0.00  0.00    +0.145 HD
ENDBRANCH   8  25
BRANCH   9  28
ATOM     28  C   UNL     1       5.625  -6.987  -3.814  0.00  0.00    +0.101 C 
ATOM     29  N   UNL     1       6.612  -6.739  -4.320  0.00  0.00    -0.191 NA
ENDBRANCH   9  28
TORSDOF 6
