REMARK  Name = ZINC37022504
REMARK  4 active torsions:
REMARK  status: ('A' for Active; 'I' for Inactive)
REMARK    1  A    between atoms: C_2  and  C_11
REMARK    2  A    between atoms: C_11  and  S_12
REMARK    3  A    between atoms: S_12  and  C_13
REMARK    4  A    between atoms: C_19  and  N_21
REMARK                            x       y       z     vdW  Elec       q    Type
REMARK                         _______ _______ _______ _____ _____    ______ ____
ROOT
ATOM      1  S   UNL     1       1.153   4.192   1.724  0.00  0.00    -0.083 S 
ENDROOT
BRANCH   1   2
ATOM      2  C   UNL     1       1.124   5.947   1.565  0.00  0.00    +0.171 A 
ATOM      3  N   UNL     1       1.128   6.718   2.688  0.00  0.00    -0.302 N 
ATOM      4  H   UNL     1       1.147   6.300   3.563  0.00  0.00    +0.171 HD
ATOM      5  C   UNL     1       1.106   8.064   2.585  0.00  0.00    +0.254 A 
ATOM      6  O   UNL     1       1.109   8.763   3.587  0.00  0.00    -0.268 OA
ATOM      7  C   UNL     1       1.079   8.644   1.313  0.00  0.00    +0.113 A 
ATOM      8  C   UNL     1       1.076   7.813   0.201  0.00  0.00    +0.124 A 
ATOM      9  N   UNL     1       1.104   6.486   0.364  0.00  0.00    -0.209 NA
BRANCH   8  10
ATOM     10  N   UNL     1       1.050   8.356  -1.068  0.00  0.00    -0.343 N 
ATOM     11  H   UNL     1       1.033   9.319  -1.184  0.00  0.00    +0.144 HD
ATOM     12  H   UNL     1       1.048   7.774  -1.844  0.00  0.00    +0.144 HD
ENDBRANCH   8  10
ENDBRANCH   1   2
BRANCH   1  13
ATOM     13  C   UNL     1       1.147   3.597   0.010  0.00  0.00    +0.112 C 
BRANCH  13  15
ATOM     14  C   UNL     1      -0.017   1.381   0.010  0.00  0.00    +0.054 A 
ATOM     15  C   UNL     1       1.171   2.090   0.002  0.00  0.00    -0.032 A 
ATOM     16  C   UNL     1       2.379   1.419  -0.013  0.00  0.00    +0.028 A 
ATOM     17  C   UNL     1       2.406   0.036  -0.021  0.00  0.00    +0.087 A 
ATOM     18  C   UNL     1       1.219  -0.680  -0.014  0.00  0.00    +0.184 A 
ATOM     19  C   UNL     1       0.002  -0.004   0.002  0.00  0.00    +0.168 A 
ATOM     20  O   UNL     1      -1.007  -0.923   0.006  0.00  0.00    -0.453 OA
ATOM     21  C   UNL     1      -0.404  -2.159  -0.419  0.00  0.00    +0.466 C 
ATOM     22  O   UNL     1       0.973  -2.023  -0.020  0.00  0.00    -0.451 OA
ATOM     23 CL   UNL     1       3.926  -0.802  -0.041  0.00  0.00    -0.080 Cl
ENDBRANCH  13  15
ENDBRANCH   1  13
TORSDOF 4
