REMARK  Name = ZINC09045790
REMARK  8 active torsions:
REMARK  status: ('A' for Active; 'I' for Inactive)
REMARK    1  A    between atoms: C_1  and  N_61
REMARK    2  A    between atoms: C_9  and  O_35
REMARK    3  A    between atoms: C_11  and  C_14
REMARK    4  A    between atoms: C_17  and  O_22
REMARK    5  A    between atoms: C_18  and  O_20
REMARK    6  A    between atoms: O_20  and  C_21
REMARK    7  A    between atoms: O_22  and  C_23
REMARK    8  A    between atoms: C_23  and  C_25
REMARK                            x       y       z     vdW  Elec       q    Type
REMARK                         _______ _______ _______ _____ _____    ______ ____
ROOT
ATOM      1  C   UNL     1      -1.286  -4.830  -0.021  0.00  0.00    -0.002 A 
ATOM      2  C   UNL     1      -0.085  -4.146   0.020  0.00  0.00    +0.011 A 
ATOM      3  C   UNL     1      -0.073  -2.764   0.024  0.00  0.00    +0.050 A 
ATOM      4  C   UNL     1      -1.267  -2.060  -0.002  0.00  0.00    +0.173 A 
ATOM      5  C   UNL     1      -2.476  -2.749  -0.043  0.00  0.00    +0.163 A 
ATOM      6  C   UNL     1      -2.481  -4.135  -0.052  0.00  0.00    +0.056 A 
ENDROOT
BRANCH   1  17
ATOM      7  C   UNL     1      -0.927  -7.199   8.358  0.00  0.00    -0.096 C 
ATOM      8  C   UNL     1      -2.199  -7.846   6.401  0.00  0.00    -0.074 C 
ATOM      9  C   UNL     1      -2.663  -7.349   5.029  0.00  0.00    +0.018 C 
ATOM     10  C   UNL     1      -1.433  -7.174   4.145  0.00  0.00    -0.027 A 
ATOM     11  C   UNL     1      -0.203  -7.099   4.707  0.00  0.00    -0.021 A 
ATOM     12  S   UNL     1       0.909  -6.904   3.340  0.00  0.00    -0.080 S 
ATOM     13  C   UNL     1      -0.232  -6.925   2.065  0.00  0.00    +0.080 A 
ATOM     14  C   UNL     1      -1.472  -7.077   2.699  0.00  0.00    +0.067 A 
ATOM     15  C   UNL     1      -2.678  -7.116   1.833  0.00  0.00    +0.220 C 
ATOM     16  N   UNL     1      -2.533  -6.810   0.573  0.00  0.00    -0.223 NA
ATOM     17  C   UNL     1      -1.293  -6.337  -0.030  0.00  0.00    +0.224 C 
ATOM     18  N   UNL     1      -0.110  -6.828   0.700  0.00  0.00    -0.313 N 
ATOM     19  C   UNL     1       0.115  -7.168   6.167  0.00  0.00    -0.036 C 
ATOM     20  H   UNL     1       0.710  -7.069   0.241  0.00  0.00    +0.149 HD
ATOM     21  N   UNL     1      -1.146  -6.948   6.917  0.00  0.00    +0.381 N 
ATOM     22  H   UNL     1      -1.445  -5.974   6.790  0.00  0.00    -0.082 HD
BRANCH  15  23
ATOM     23  O   UNL     1      -3.888  -7.456   2.334  0.00  0.00    -0.492 OA
ATOM     24  H   UNL     1      -4.601  -7.448   1.681  0.00  0.00    +0.294 HD
ENDBRANCH  15  23
ENDBRANCH   1  17
BRANCH   5  25
ATOM     25  O   UNL     1      -3.650  -2.063  -0.074  0.00  0.00    -0.491 OA
ATOM     26  C   UNL     1      -4.851  -2.836  -0.115  0.00  0.00    +0.277 C 
ENDBRANCH   5  25
BRANCH   4  27
ATOM     27  O   UNL     1      -1.257  -0.701   0.006  0.00  0.00    -0.419 OA
BRANCH  27  28
ATOM     28  C   UNL     1      -1.372  -0.096   1.205  0.00  0.00    +0.345 C 
ATOM     29  O   UNL     1      -1.384  -0.760   2.223  0.00  0.00    -0.245 OA
BRANCH  28  30
ATOM     30  C   UNL     1      -1.482   1.371   1.282  0.00  0.00    +0.067 A 
ATOM     31  C   UNL     1      -1.352   2.153   0.141  0.00  0.00    +0.015 A 
ATOM     32  C   UNL     1      -1.461   3.535   0.216  0.00  0.00    +0.001 A 
ATOM     33  C   UNL     1      -1.687   4.175   1.396  0.00  0.00    +0.008 A 
ATOM     34  C   UNL     1      -1.824   3.448   2.591  0.00  0.00    -0.017 A 
ATOM     35  C   UNL     1      -1.725   2.035   2.561  0.00  0.00    -0.004 A 
ATOM     36  C   UNL     1      -1.860   1.307   3.749  0.00  0.00    +0.009 A 
ATOM     37  C   UNL     1      -2.086   1.966   4.921  0.00  0.00    +0.001 A 
ATOM     38  C   UNL     1      -2.183   3.355   4.954  0.00  0.00    +0.001 A 
ATOM     39  C   UNL     1      -2.057   4.094   3.817  0.00  0.00    +0.008 A 
ENDBRANCH  28  30
ENDBRANCH  27  28
ENDBRANCH   4  27
TORSDOF 6
