REMARK  Name = ZINC61865210
REMARK  7 active torsions:
REMARK  status: ('A' for Active; 'I' for Inactive)
REMARK    1  A    between atoms: C_1  and  C_2
REMARK    2  A    between atoms: C_9  and  C_11
REMARK    3  A    between atoms: N_18  and  C_19
REMARK    4  A    between atoms: C_19  and  C_20
REMARK    5  A    between atoms: C_19  and  C_21
REMARK    6  A    between atoms: N_24  and  C_27
REMARK    7  A    between atoms: C_25  and  C_26
REMARK                            x       y       z     vdW  Elec       q    Type
REMARK                         _______ _______ _______ _____ _____    ______ ____
ROOT
ATOM      1  C   UNL     1       0.090  -5.594   2.249  0.00  0.00    +0.143 C 
ATOM      2  C   UNL     1      -1.100  -6.455   1.778  0.00  0.00    +0.032 C 
ATOM      3  C   UNL     1      -1.549  -7.170   3.080  0.00  0.00    +0.021 C 
ATOM      4  C   UNL     1      -1.294  -6.071   4.142  0.00  0.00    +0.110 C 
ATOM      5  N   UNL     1      -0.060  -5.397   3.699  0.00  0.00    -0.276 N 
ATOM      6  C   UNL     1       0.790  -4.714   4.491  0.00  0.00    +0.303 C 
ATOM      7  O   UNL     1       1.782  -4.197   4.015  0.00  0.00    -0.253 OA
ATOM      8  N   UNL     1       0.540  -4.605   5.811  0.00  0.00    -0.293 N 
ATOM      9  H   UNL     1      -0.251  -5.017   6.191  0.00  0.00    +0.151 HD
ENDROOT
BRANCH   1  18
ATOM     10  C   UNL     1      -0.018   1.503   0.010  0.00  0.00    +0.044 C 
ATOM     11  C   UNL     1       0.002  -0.004   0.002  0.00  0.00    -0.048 A 
ATOM     12  C   UNL     1       0.006  -0.687  -1.206  0.00  0.00    +0.005 A 
ATOM     13  C   UNL     1       0.024  -2.052  -1.235  0.00  0.00    +0.030 A 
ATOM     14  C   UNL     1       0.040  -2.774  -0.039  0.00  0.00    +0.089 A 
ATOM     15  C   UNL     1       0.037  -2.083   1.185  0.00  0.00    +0.067 A 
ATOM     16  C   UNL     1       0.023  -0.695   1.195  0.00  0.00    +0.031 A 
ATOM     17  N   UNL     1       0.055  -3.051   2.169  0.00  0.00    -0.340 N 
ATOM     18  C   UNL     1       0.068  -4.261   1.546  0.00  0.00    +0.129 A 
ATOM     19  N   UNL     1       0.059  -4.099   0.255  0.00  0.00    -0.231 NA
ATOM     20  H   UNL     1       0.058  -2.898   3.127  0.00  0.00    +0.167 HD
ENDBRANCH   1  18
BRANCH   8  21
ATOM     21  C   UNL     1       1.464  -3.862   6.672  0.00  0.00    +0.105 C 
ATOM     22  C   UNL     1       2.602  -4.785   7.113  0.00  0.00    +0.033 C 
BRANCH  21  23
ATOM     23  C   UNL     1       0.725  -3.360   7.886  0.00  0.00    +0.013 A 
ATOM     24  C   UNL     1      -0.430  -3.923   8.438  0.00  0.00    +0.140 A 
ATOM     25  N   UNL     1      -0.774  -3.212   9.480  0.00  0.00    -0.179 NA
ATOM     26  N   UNL     1       0.154  -2.172   9.626  0.00  0.00    -0.271 N 
ATOM     27  C   UNL     1       1.066  -2.288   8.638  0.00  0.00    +0.041 A 
ATOM     28  C   UNL     1       2.251  -1.385   8.412  0.00  0.00    +0.065 C 
ATOM     29  C   UNL     1       0.139  -1.143  10.669  0.00  0.00    +0.172 C 
ENDBRANCH  21  23
ENDBRANCH   8  21
TORSDOF 3
