REMARK  Name = ZINC11777511
REMARK  10 active torsions:
REMARK  status: ('A' for Active; 'I' for Inactive)
REMARK    1  A    between atoms: C_1  and  C_2
REMARK    2  A    between atoms: C_5  and  C_27
REMARK    3  A    between atoms: C_6  and  N_8
REMARK    4  A    between atoms: N_8  and  C_9
REMARK    5  A    between atoms: C_9  and  N_11
REMARK    6  A    between atoms: N_11  and  N_12
REMARK    7  A    between atoms: C_13  and  C_15
REMARK    8  A    between atoms: C_16  and  C_17
REMARK    9  A    between atoms: N_19  and  C_26
REMARK   10  A    between atoms: N_22  and  C_25
REMARK                            x       y       z     vdW  Elec       q    Type
REMARK                         _______ _______ _______ _____ _____    ______ ____
ROOT
ATOM      1  N   UNL     1      -1.377   3.671   0.335  0.00  0.00    -0.232 N 
ATOM      2  C   UNL     1      -2.515   4.344   0.074  0.00  0.00    +0.253 C 
ATOM      3  O   UNL     1      -3.472   3.761  -0.402  0.00  0.00    -0.269 OA
ATOM      4  H   UNL     1      -0.615   4.135   0.714  0.00  0.00    +0.173 HD
ENDROOT
BRANCH   1   5
ATOM      5  N   UNL     1      -1.295   2.300   0.058  0.00  0.00    -0.245 N 
ATOM      6  H   UNL     1      -2.058   1.835  -0.321  0.00  0.00    +0.172 HD
BRANCH   5   7
ATOM      7  C   UNL     1      -0.157   1.626   0.318  0.00  0.00    +0.151 C 
ATOM      8  S   UNL     1      -0.058  -0.049  -0.020  0.00  0.00    -0.017 S 
BRANCH   7   9
ATOM      9  N   UNL     1       0.904   2.272   0.840  0.00  0.00    -0.296 N 
ATOM     10  H   UNL     1       0.858   3.228   1.002  0.00  0.00    +0.154 HD
BRANCH   9  16
ATOM     11  C   UNL     1       3.057  -1.756   2.658  0.00  0.00    +0.044 C 
ATOM     12  C   UNL     1       3.144  -0.389   2.030  0.00  0.00    -0.049 A 
ATOM     13  C   UNL     1       4.380   0.169   1.757  0.00  0.00    +0.004 A 
ATOM     14  C   UNL     1       4.465   1.422   1.180  0.00  0.00    +0.005 A 
ATOM     15  C   UNL     1       3.314   2.123   0.875  0.00  0.00    -0.029 A 
ATOM     16  C   UNL     1       2.071   1.566   1.147  0.00  0.00    +0.036 A 
ATOM     17  C   UNL     1       1.990   0.308   1.732  0.00  0.00    +0.027 A 
ATOM     18  C   UNL     1       3.407   3.489   0.246  0.00  0.00    +0.045 C 
ENDBRANCH   9  16
ENDBRANCH   7   9
ENDBRANCH   5   7
ENDBRANCH   1   5
BRANCH   2  19
ATOM     19  C   UNL     1      -2.598   5.730   0.355  0.00  0.00    +0.069 C 
ATOM     20  C   UNL     1      -3.740   6.406   0.093  0.00  0.00    +0.020 C 
BRANCH  20  21
ATOM     21  C   UNL     1      -3.791   7.859   0.281  0.00  0.00    +0.056 A 
ATOM     22  C   UNL     1      -4.979   8.553   0.141  0.00  0.00    +0.103 A 
ATOM     23  N   UNL     1      -4.987   9.900   0.324  0.00  0.00    -0.303 N 
ATOM     24  C   UNL     1      -3.868  10.572   0.636  0.00  0.00    +0.331 A 
ATOM     25  O   UNL     1      -3.929  11.777   0.788  0.00  0.00    -0.246 OA
ATOM     26  N   UNL     1      -2.683   9.958   0.787  0.00  0.00    -0.264 N 
ATOM     27  C   UNL     1      -2.580   8.621   0.631  0.00  0.00    +0.263 A 
ATOM     28  O   UNL     1      -1.510   8.059   0.772  0.00  0.00    -0.267 OA
ATOM     29  C   UNL     1      -1.494  10.744   1.129  0.00  0.00    +0.157 C 
ATOM     30  C   UNL     1      -6.246  10.636   0.175  0.00  0.00    +0.153 C 
ENDBRANCH  20  21
ENDBRANCH   2  19
TORSDOF 6
