REMARK  Name = ZINC05689460
REMARK  7 active torsions:
REMARK  status: ('A' for Active; 'I' for Inactive)
REMARK    1  A    between atoms: C_1  and  C_2
REMARK    2  A    between atoms: C_5  and  N_9
REMARK    3  A    between atoms: C_6  and  C_8
REMARK    4  A    between atoms: N_9  and  C_10
REMARK    5  A    between atoms: C_10  and  N_12
REMARK    6  A    between atoms: N_12  and  N_13
REMARK    7  A    between atoms: C_16  and  C_23
REMARK                            x       y       z     vdW  Elec       q    Type
REMARK                         _______ _______ _______ _____ _____    ______ ____
ROOT
ATOM      1  N   UNL     1       2.964  -2.352  -0.292  0.00  0.00    -0.249 N 
ATOM      2  C   UNL     1       1.692  -1.841  -0.481  0.00  0.00    +0.147 A 
ATOM      3  C   UNL     1       1.221  -0.770   0.324  0.00  0.00    +0.056 A 
ATOM      4  C   UNL     1       1.891  -0.051   1.402  0.00  0.00    +0.002 A 
ATOM      5  C   UNL     1       1.228   0.948   2.030  0.00  0.00    +0.056 A 
ATOM      6  S   UNL     1      -0.351   0.983   1.203  0.00  0.00    -0.076 S 
ATOM      7  C   UNL     1      -0.090  -0.331   0.043  0.00  0.00    +0.114 A 
ATOM      8  N   UNL     1      -0.812  -0.892  -0.908  0.00  0.00    -0.228 NA
ATOM      9  C   UNL     1      -0.321  -1.885  -1.623  0.00  0.00    +0.224 A 
ATOM     10  N   UNL     1       0.899  -2.346  -1.413  0.00  0.00    -0.219 NA
ATOM     11  H   UNL     1       3.686  -1.765  -0.018  0.00  0.00    +0.172 HD
ENDROOT
BRANCH   4  12
ATOM     12  C   UNL     1       3.272  -0.408   1.803  0.00  0.00    -0.017 A 
ATOM     13  C   UNL     1       3.569  -1.708   2.211  0.00  0.00    +0.008 A 
ATOM     14  C   UNL     1       4.858  -2.037   2.578  0.00  0.00    +0.001 A 
ATOM     15  C   UNL     1       5.853  -1.076   2.552  0.00  0.00    +0.000 A 
ATOM     16  C   UNL     1       5.564   0.217   2.154  0.00  0.00    +0.001 A 
ATOM     17  C   UNL     1       4.280   0.555   1.779  0.00  0.00    +0.008 A 
ENDBRANCH   4  12
BRANCH   1  18
ATOM     18  N   UNL     1       3.209  -3.716  -0.498  0.00  0.00    -0.247 N 
ATOM     19  H   UNL     1       2.472  -4.319  -0.682  0.00  0.00    +0.172 HD
BRANCH  18  20
ATOM     20  C   UNL     1       4.470  -4.190  -0.441  0.00  0.00    +0.151 C 
ATOM     21  S   UNL     1       4.758  -5.872  -0.574  0.00  0.00    -0.017 S 
BRANCH  20  22
ATOM     22  N   UNL     1       5.503  -3.339  -0.279  0.00  0.00    -0.296 N 
ATOM     23  H   UNL     1       5.982  -3.314   0.564  0.00  0.00    +0.154 HD
BRANCH  22  28
ATOM     24  C   UNL     1       7.044   0.093  -4.524  0.00  0.00    +0.044 C 
ATOM     25  C   UNL     1       6.635  -0.819  -3.397  0.00  0.00    -0.050 A 
ATOM     26  C   UNL     1       5.518  -1.624  -3.531  0.00  0.00    +0.005 A 
ATOM     27  C   UNL     1       5.140  -2.461  -2.499  0.00  0.00    +0.024 A 
ATOM     28  C   UNL     1       5.883  -2.493  -1.326  0.00  0.00    +0.036 A 
ATOM     29  C   UNL     1       7.001  -1.680  -1.192  0.00  0.00    -0.029 A 
ATOM     30  C   UNL     1       7.376  -0.849  -2.230  0.00  0.00    +0.008 A 
ATOM     31  C   UNL     1       7.806  -1.708   0.081  0.00  0.00    +0.045 C 
ENDBRANCH  22  28
ENDBRANCH  20  22
ENDBRANCH  18  20
ENDBRANCH   1  18
TORSDOF 5
