REMARK  Name = ZINC65476033
REMARK  8 active torsions:
REMARK  status: ('A' for Active; 'I' for Inactive)
REMARK    1  A    between atoms: C_1  and  C_2
REMARK    2  A    between atoms: C_4  and  C_11
REMARK    3  A    between atoms: N_6  and  C_7
REMARK    4  A    between atoms: C_7  and  C_8
REMARK    5  A    between atoms: C_7  and  C_9
REMARK    6  A    between atoms: C_7  and  C_10
REMARK    7  A    between atoms: C_15  and  C_22
REMARK    8  A    between atoms: C_19  and  C_21
REMARK                            x       y       z     vdW  Elec       q    Type
REMARK                         _______ _______ _______ _____ _____    ______ ____
ROOT
ATOM      1  C   UNL     1       0.436  -3.290  -1.161  0.00  0.00    +0.267 C 
ATOM      2  O   UNL     1       0.329  -3.353  -2.370  0.00  0.00    -0.268 OA
ATOM      3  N   UNL     1       0.194  -4.380  -0.405  0.00  0.00    -0.293 N 
ATOM      4  C   UNL     1       0.188  -4.288   1.061  0.00  0.00    +0.121 C 
ATOM      5  C   UNL     1       1.151  -5.338   1.625  0.00  0.00    +0.092 C 
ATOM      6  C   UNL     1       0.772  -6.717   1.080  0.00  0.00    +0.016 C 
ATOM      7  C   UNL     1       0.897  -6.716  -0.445  0.00  0.00    +0.023 C 
ATOM      8  C   UNL     1      -0.074  -5.681  -1.033  0.00  0.00    +0.073 C 
ATOM      9  C   UNL     1       0.139  -5.576  -2.544  0.00  0.00    +0.028 C 
ENDROOT
BRANCH   1  13
ATOM     10  C   UNL     1       1.657   1.561  -0.349  0.00  0.00    +0.065 C 
ATOM     11  C   UNL     1       1.359   0.093  -0.181  0.00  0.00    +0.037 A 
ATOM     12  C   UNL     1       0.997  -0.769  -1.160  0.00  0.00    +0.057 A 
ATOM     13  C   UNL     1       0.831  -2.020  -0.519  0.00  0.00    +0.147 A 
ATOM     14  N   UNL     1       1.095  -1.835   0.759  0.00  0.00    -0.166 NA
ATOM     15  N   UNL     1       1.410  -0.608   0.971  0.00  0.00    -0.263 N 
BRANCH  15  16
ATOM     16  C   UNL     1       1.770  -0.050   2.277  0.00  0.00    +0.056 C 
ATOM     17  C   UNL     1       0.693   0.943   2.721  0.00  0.00    +0.036 C 
ATOM     18  C   UNL     1       1.876  -1.179   3.303  0.00  0.00    +0.036 C 
ATOM     19  C   UNL     1       3.115   0.671   2.170  0.00  0.00    +0.036 C 
ENDBRANCH  15  16
ENDBRANCH   1  13
BRANCH   5  20
ATOM     20  C   UNL     1       1.059  -5.348   3.129  0.00  0.00    +0.215 C 
ATOM     21  O   UNL     1       0.726  -6.359   3.710  0.00  0.00    -0.276 OA
ATOM     22  N   UNL     1       1.347  -4.232   3.829  0.00  0.00    -0.329 N 
ATOM     23  H   UNL     1       1.613  -3.424   3.365  0.00  0.00    +0.145 HD
ATOM     24  H   UNL     1       1.287  -4.239   4.798  0.00  0.00    +0.145 HD
ENDBRANCH   5  20
TORSDOF 3
