REMARK  Name = ZINC62689584
REMARK  6 active torsions:
REMARK  status: ('A' for Active; 'I' for Inactive)
REMARK    1  A    between atoms: C_1  and  C_2
REMARK    2  A    between atoms: C_2  and  C_3
REMARK    3  A    between atoms: C_2  and  C_4
REMARK    4  A    between atoms: C_2  and  C_5
REMARK    5  A    between atoms: C_5  and  C_6
REMARK    6  A    between atoms: C_14  and  C_16
REMARK                            x       y       z     vdW  Elec       q    Type
REMARK                         _______ _______ _______ _____ _____    ______ ____
ROOT
ATOM      1  C   UNL     1       2.034  -0.283  -1.640  0.00  0.00    +0.217 C 
ATOM      2  O   UNL     1       2.172   0.466  -0.697  0.00  0.00    -0.276 OA
ATOM      3  N   UNL     1       3.051  -0.475  -2.503  0.00  0.00    -0.284 N 
ATOM      4  C   UNL     1       2.914  -1.373  -3.662  0.00  0.00    +0.127 C 
ATOM      5  C   UNL     1       3.938  -2.500  -3.517  0.00  0.00    +0.123 C 
ATOM      6  N   UNL     1       5.246  -1.968  -3.163  0.00  0.00    -0.312 N 
ATOM      7  C   UNL     1       5.450  -0.780  -2.591  0.00  0.00    +0.238 C 
ATOM      8  O   UNL     1       6.581  -0.479  -2.272  0.00  0.00    -0.273 OA
ATOM      9  C   UNL     1       4.341   0.208  -2.329  0.00  0.00    +0.194 C 
ATOM     10  H   UNL     1       6.023  -2.515  -3.357  0.00  0.00    +0.149 HD
ENDROOT
BRANCH   9  11
ATOM     11  C   UNL     1       4.441   1.355  -3.301  0.00  0.00    +0.000 A 
ATOM     12  C   UNL     1       5.119   1.193  -4.494  0.00  0.00    +0.007 A 
ATOM     13  C   UNL     1       5.210   2.246  -5.386  0.00  0.00    +0.000 A 
ATOM     14  C   UNL     1       4.623   3.461  -5.085  0.00  0.00    +0.001 A 
ATOM     15  C   UNL     1       3.945   3.624  -3.892  0.00  0.00    +0.020 A 
ATOM     16  C   UNL     1       3.848   2.569  -3.001  0.00  0.00    +0.046 A 
ATOM     17 CL   UNL     1       2.991   2.771  -1.505  0.00  0.00    -0.083 Cl
ENDBRANCH   9  11
BRANCH   1  18
ATOM     18  C   UNL     1       0.724  -0.999  -1.848  0.00  0.00    +0.102 C 
BRANCH  18  20
ATOM     19  C   UNL     1      -0.487   0.903  -0.772  0.00  0.00    +0.011 C 
ATOM     20  C   UNL     1      -0.253  -0.609  -0.738  0.00  0.00    -0.029 C 
ATOM     21  C   UNL     1       0.334  -1.003   0.619  0.00  0.00    +0.011 C 
ATOM     22  C   UNL     1      -1.583  -1.335  -0.949  0.00  0.00    +0.011 C 
ENDBRANCH  18  20
ENDBRANCH   1  18
TORSDOF 3
