REMARK  Name = ZINC47575471
REMARK  6 active torsions:
REMARK  status: ('A' for Active; 'I' for Inactive)
REMARK    1  A    between atoms: C_1  and  C_2
REMARK    2  A    between atoms: C_8  and  C_22
REMARK    3  A    between atoms: C_8  and  C_23
REMARK    4  A    between atoms: C_10  and  N_12
REMARK    5  A    between atoms: N_15  and  C_16
REMARK    6  A    between atoms: C_16  and  C_17
REMARK                            x       y       z     vdW  Elec       q    Type
REMARK                         _______ _______ _______ _____ _____    ______ ____
ROOT
ATOM      1  C   UNL     1      -0.018   1.503   0.010  0.00  0.00    +0.086 C 
ATOM      2  C   UNL     1       0.002  -0.004   0.002  0.00  0.00    +0.103 A 
ATOM      3  C   UNL     1      -1.081  -0.806   0.003  0.00  0.00    +0.050 A 
ATOM      4  C   UNL     1      -0.602  -2.129  -0.007  0.00  0.00    +0.014 A 
ATOM      5  C   UNL     1       0.745  -2.064  -0.011  0.00  0.00    +0.111 A 
ATOM      6  O   UNL     1       1.104  -0.775  -0.013  0.00  0.00    -0.464 OA
ATOM      7  C   UNL     1       1.646  -3.276  -0.019  0.00  0.00    +0.081 C 
ATOM      8  C   UNL     1       0.818  -4.497   0.398  0.00  0.00    -0.026 C 
ATOM      9  C   UNL     1      -0.466  -4.554  -0.433  0.00  0.00    +0.034 C 
ATOM     10  C   UNL     1      -1.397  -3.409  -0.012  0.00  0.00    +0.109 C 
ATOM     11  C   UNL     1       1.634  -5.770   0.162  0.00  0.00    +0.011 C 
ATOM     12  C   UNL     1       0.461  -4.389   1.882  0.00  0.00    +0.011 C 
ENDROOT
BRANCH  10  13
ATOM     13  N   UNL     1      -2.505  -3.298  -0.964  0.00  0.00    -0.292 N 
ATOM     14  C   UNL     1      -3.667  -2.732  -0.582  0.00  0.00    +0.300 C 
ATOM     15  O   UNL     1      -3.796  -2.314   0.552  0.00  0.00    -0.253 OA
ATOM     16  N   UNL     1      -4.686  -2.630  -1.458  0.00  0.00    -0.292 N 
ATOM     17  H   UNL     1      -2.401  -3.631  -1.869  0.00  0.00    +0.151 HD
ATOM     18  H   UNL     1      -4.583  -2.964  -2.363  0.00  0.00    +0.151 HD
BRANCH  16  19
ATOM     19  C   UNL     1      -5.950  -2.016  -1.043  0.00  0.00    +0.180 C 
BRANCH  19  20
ATOM     20  C   UNL     1      -6.916  -2.025  -2.200  0.00  0.00    +0.122 A 
ATOM     21  C   UNL     1      -7.795  -3.003  -2.482  0.00  0.00    +0.046 A 
ATOM     22  C   UNL     1      -8.495  -2.602  -3.643  0.00  0.00    +0.041 A 
ATOM     23  C   UNL     1      -8.002  -1.402  -4.000  0.00  0.00    +0.195 A 
ATOM     24  O   UNL     1      -7.050  -1.055  -3.119  0.00  0.00    -0.466 OA
ENDBRANCH  19  20
ENDBRANCH  16  19
ENDBRANCH  10  13
TORSDOF 3
