REMARK  Name = ZINC11847703
REMARK  3 active torsions:
REMARK  status: ('A' for Active; 'I' for Inactive)
REMARK    1  A    between atoms: C_3  and  S_6
REMARK    2  A    between atoms: S_6  and  N_9
REMARK    3  A    between atoms: C_17  and  N_19
REMARK                            x       y       z     vdW  Elec       q    Type
REMARK                         _______ _______ _______ _____ _____    ______ ____
ROOT
ATOM      1  N   UNL     1       0.626  -0.438  -1.256  0.00  0.00    -0.202 N 
ATOM      2  C   UNL     1      -0.027   0.032  -0.026  0.00  0.00    +0.132 C 
ATOM      3  C   UNL     1      -0.012   1.566  -0.044  0.00  0.00    +0.025 C 
ATOM      4  C   UNL     1       1.438   2.047  -0.018  0.00  0.00    +0.039 C 
ATOM      5  C   UNL     1       2.240   1.365  -1.095  0.00  0.00    -0.023 A 
ATOM      6  C   UNL     1       1.823   0.171  -1.662  0.00  0.00    +0.055 A 
ATOM      7  C   UNL     1       2.590  -0.440  -2.647  0.00  0.00    +0.027 A 
ATOM      8  C   UNL     1       3.769   0.142  -3.067  0.00  0.00    +0.024 A 
ATOM      9  C   UNL     1       4.187   1.341  -2.504  0.00  0.00    +0.025 A 
ATOM     10  C   UNL     1       3.421   1.949  -1.520  0.00  0.00    +0.028 A 
ENDROOT
BRANCH   1  11
ATOM     11  S   UNL     1      -0.039  -1.665  -2.146  0.00  0.00    +0.081 S 
ATOM     12  O   UNL     1      -1.387  -1.796  -1.714  0.00  0.00    -0.149 OA
ATOM     13  O   UNL     1       0.305  -1.416  -3.502  0.00  0.00    -0.149 OA
BRANCH  11  16
ATOM     14  C   UNL     1       1.269  -5.144  -0.515  0.00  0.00    +0.010 A 
ATOM     15  C   UNL     1       0.469  -4.032  -0.701  0.00  0.00    +0.036 A 
ATOM     16  C   UNL     1       0.785  -3.152  -1.681  0.00  0.00    +0.146 A 
ATOM     17  S   UNL     1       2.249  -3.893  -2.386  0.00  0.00    -0.077 S 
ATOM     18  C   UNL     1       2.345  -5.321  -1.319  0.00  0.00    +0.047 A 
ENDBRANCH  11  16
ENDBRANCH   1  11
BRANCH   9  19
ATOM     19  N   UNL     1       5.382   1.935  -2.928  0.00  0.00    -0.358 N 
ATOM     20  H   UNL     1       5.917   1.510  -3.616  0.00  0.00    +0.142 HD
ATOM     21  H   UNL     1       5.674   2.772  -2.534  0.00  0.00    +0.142 HD
ENDBRANCH   9  19
TORSDOF 3
