REMARK  Name = ZINC18259167
REMARK  12 active torsions:
REMARK  status: ('A' for Active; 'I' for Inactive)
REMARK    1  A    between atoms: C_1  and  C_2
REMARK    2  A    between atoms: C_5  and  S_8
REMARK    3  A    between atoms: S_8  and  N_11
REMARK    4  A    between atoms: N_11  and  C_12
REMARK    5  A    between atoms: C_12  and  C_14
REMARK    6  A    between atoms: C_12  and  C_17
REMARK    7  A    between atoms: C_14  and  C_15
REMARK    8  A    between atoms: C_14  and  C_16
REMARK    9  A    between atoms: C_17  and  O_19
REMARK   10  A    between atoms: O_19  and  C_20
REMARK   11  A    between atoms: C_20  and  C_21
REMARK   12  A    between atoms: C_29  and  N_31
REMARK                            x       y       z     vdW  Elec       q    Type
REMARK                         _______ _______ _______ _____ _____    ______ ____
ROOT
ATOM      1  C   UNL     1       2.346   7.370  -1.528  0.00  0.00    +0.327 C 
ATOM      2  O   UNL     1       2.352   8.101  -0.566  0.00  0.00    -0.249 OA
ENDROOT
BRANCH   1   3
ATOM      3  C   UNL     1       2.329   7.953  -2.918  0.00  0.00    +0.187 C 
BRANCH   3   4
ATOM      4  C   UNL     1       3.573   7.492  -3.680  0.00  0.00    +0.012 C 
ATOM      5  C   UNL     1       4.826   7.858  -2.880  0.00  0.00    +0.009 C 
ATOM      6  C   UNL     1       3.519   5.976  -3.876  0.00  0.00    +0.009 C 
ENDBRANCH   3   4
BRANCH   3   7
ATOM      7  N   UNL     1       2.322   9.416  -2.834  0.00  0.00    -0.176 NA
ATOM      8  H   UNL     1       2.808   9.863  -2.124  0.00  0.00    +0.149 HD
BRANCH   7   9
ATOM      9  S   UNL     1       1.483  10.305  -3.951  0.00  0.00    +0.059 S 
ATOM     10  O   UNL     1       1.645  11.669  -3.588  0.00  0.00    -0.153 OA
ATOM     11  O   UNL     1       1.854   9.806  -5.229  0.00  0.00    -0.153 OA
BRANCH   9  16
ATOM     12  C   UNL     1      -4.367   9.015  -3.230  0.00  0.00    +0.044 C 
ATOM     13  C   UNL     1      -2.906   9.337  -3.410  0.00  0.00    -0.050 A 
ATOM     14  C   UNL     1      -2.336  10.380  -2.704  0.00  0.00    +0.005 A 
ATOM     15  C   UNL     1      -0.996  10.676  -2.869  0.00  0.00    +0.029 A 
ATOM     16  C   UNL     1      -0.225   9.928  -3.740  0.00  0.00    +0.105 A 
ATOM     17  C   UNL     1      -0.796   8.889  -4.450  0.00  0.00    +0.029 A 
ATOM     18  C   UNL     1      -2.136   8.590  -4.282  0.00  0.00    +0.005 A 
ENDBRANCH   9  16
ENDBRANCH   7   9
ENDBRANCH   3   7
ENDBRANCH   1   3
BRANCH   1  19
ATOM     19  O   UNL     1       2.356   6.038  -1.359  0.00  0.00    -0.456 OA
BRANCH  19  20
ATOM     20  C   UNL     1       2.372   5.548   0.007  0.00  0.00    +0.308 C 
BRANCH  20  21
ATOM     21  C   UNL     1       2.380   4.041  -0.000  0.00  0.00    +0.169 A 
ATOM     22  N   UNL     1       1.231   3.408   0.009  0.00  0.00    -0.228 NA
ATOM     23  C   UNL     1       1.193   2.067   0.002  0.00  0.00    +0.076 A 
ATOM     24  C   UNL     1      -0.016   1.359   0.009  0.00  0.00    +0.028 A 
ATOM     25  C   UNL     1       0.002  -0.004   0.002  0.00  0.00    +0.002 A 
ATOM     26  C   UNL     1       1.204  -0.705  -0.013  0.00  0.00    +0.001 A 
ATOM     27  C   UNL     1       2.399  -0.047  -0.021  0.00  0.00    +0.013 A 
ATOM     28  C   UNL     1       2.415   1.352  -0.014  0.00  0.00    +0.040 A 
ATOM     29  C   UNL     1       3.623   2.091  -0.023  0.00  0.00    +0.128 A 
ATOM     30  N   UNL     1       3.547   3.416  -0.015  0.00  0.00    -0.214 NA
BRANCH  29  31
ATOM     31  N   UNL     1       4.844   1.452  -0.038  0.00  0.00    -0.343 N 
ATOM     32  H   UNL     1       4.885   0.483  -0.043  0.00  0.00    +0.144 HD
ATOM     33  H   UNL     1       5.663   1.972  -0.043  0.00  0.00    +0.144 HD
ENDBRANCH  29  31
ENDBRANCH  20  21
ENDBRANCH  19  20
ENDBRANCH   1  19
TORSDOF 9
