REMARK  Name = ZINC50033358
REMARK  8 active torsions:
REMARK  status: ('A' for Active; 'I' for Inactive)
REMARK    1  A    between atoms: C_1  and  C_2
REMARK    2  A    between atoms: C_4  and  C_8
REMARK    3  A    between atoms: C_5  and  C_7
REMARK    4  A    between atoms: C_8  and  C_10
REMARK    5  A    between atoms: C_8  and  N_11
REMARK    6  A    between atoms: N_11  and  C_12
REMARK    7  A    between atoms: C_14  and  C_20
REMARK    8  A    between atoms: C_15  and  N_19
REMARK                            x       y       z     vdW  Elec       q    Type
REMARK                         _______ _______ _______ _____ _____    ______ ____
ROOT
ATOM      1  C   UNL     1      -3.604  -4.052  -1.185  0.00  0.00    +0.064 A 
ATOM      2  C   UNL     1      -2.994  -5.292  -1.177  0.00  0.00    +0.040 A 
ATOM      3  C   UNL     1      -3.637  -6.389  -1.757  0.00  0.00    +0.059 A 
ATOM      4  C   UNL     1      -4.901  -6.223  -2.345  0.00  0.00    +0.040 A 
ATOM      5  C   UNL     1      -5.502  -4.973  -2.346  0.00  0.00    +0.063 A 
ATOM      6  C   UNL     1      -4.862  -3.894  -1.765  0.00  0.00    +0.146 A 
ATOM      7  F   UNL     1      -5.455  -2.681  -1.764  0.00  0.00    -0.203 F 
ENDROOT
BRANCH   3   8
ATOM      8  C   UNL     1      -2.991  -7.713  -1.753  0.00  0.00    +0.243 C 
ATOM      9  O   UNL     1      -3.596  -8.687  -2.160  0.00  0.00    -0.270 OA
ATOM     10  N   UNL     1      -1.730  -7.846  -1.297  0.00  0.00    -0.325 N 
ATOM     11  H   UNL     1      -1.247  -7.070  -0.971  0.00  0.00    +0.145 HD
ATOM     12  H   UNL     1      -1.305  -8.718  -1.294  0.00  0.00    +0.145 HD
ENDBRANCH   3   8
BRANCH   4  13
ATOM     13  N   UNL     1      -5.548  -7.309  -2.926  0.00  0.00    -0.357 N 
ATOM     14  H   UNL     1      -5.164  -8.198  -2.855  0.00  0.00    +0.142 HD
ATOM     15  H   UNL     1      -6.383  -7.179  -3.402  0.00  0.00    +0.142 HD
ENDBRANCH   4  13
BRANCH   1  16
ATOM     16  N   UNL     1      -2.960  -2.952  -0.602  0.00  0.00    -0.335 N 
ATOM     17  H   UNL     1      -3.390  -2.082  -0.604  0.00  0.00    +0.147 HD
BRANCH  16  18
ATOM     18  C   UNL     1      -1.639  -3.116   0.008  0.00  0.00    +0.101 C 
ATOM     19  C   UNL     1      -1.800  -3.599   1.451  0.00  0.00    +0.033 C 
BRANCH  18  23
ATOM     20  C   UNL     1      -0.647   1.881  -0.058  0.00  0.00    +0.086 C 
ATOM     21  C   UNL     1      -0.497   0.382  -0.030  0.00  0.00    +0.103 A 
ATOM     22  C   UNL     1      -1.504  -0.510  -0.033  0.00  0.00    +0.050 A 
ATOM     23  C   UNL     1      -0.914  -1.794  -0.001  0.00  0.00    +0.013 A 
ATOM     24  C   UNL     1       0.418  -1.611   0.020  0.00  0.00    +0.107 A 
ATOM     25  O   UNL     1       0.665  -0.291  -0.003  0.00  0.00    -0.465 OA
ATOM     26  C   UNL     1       1.458  -2.701   0.058  0.00  0.00    +0.086 C 
ENDBRANCH  18  23
ENDBRANCH  16  18
ENDBRANCH   1  16
TORSDOF 5
