REMARK  Name = ZINC37671226
REMARK  7 active torsions:
REMARK  status: ('A' for Active; 'I' for Inactive)
REMARK    1  A    between atoms: C_1  and  C_2
REMARK    2  A    between atoms: C_9  and  N_11
REMARK    3  A    between atoms: N_11  and  C_12
REMARK    4  A    between atoms: C_12  and  C_13
REMARK    5  A    between atoms: C_13  and  C_15
REMARK    6  A    between atoms: C_13  and  O_22
REMARK    7  A    between atoms: C_18  and  N_21
REMARK                            x       y       z     vdW  Elec       q    Type
REMARK                         _______ _______ _______ _____ _____    ______ ____
ROOT
ATOM      1  C   UNL     1       0.046  -2.041   3.666  0.00  0.00    +0.139 C 
ENDROOT
BRANCH   1   2
ATOM      2  N   UNL     1       0.050  -2.771   2.395  0.00  0.00    -0.326 N 
ATOM      3  H   UNL     1       0.064  -3.740   2.393  0.00  0.00    +0.148 HD
BRANCH   2  12
ATOM      4  C   UNL     1      -0.018   1.503   0.010  0.00  0.00    +0.044 C 
ATOM      5  C   UNL     1       0.002  -0.004   0.002  0.00  0.00    -0.044 A 
ATOM      6  C   UNL     1       0.006  -0.683  -1.182  0.00  0.00    +0.051 A 
ATOM      7  C   UNL     1       0.025  -2.087  -1.172  0.00  0.00    +0.158 A 
ATOM      8  N   UNL     1       0.033  -2.998  -2.140  0.00  0.00    -0.215 NA
ATOM      9  C   UNL     1       0.052  -4.213  -1.609  0.00  0.00    +0.246 A 
ATOM     10  N   UNL     1       0.057  -4.123  -0.301  0.00  0.00    -0.152 NA
ATOM     11  N   UNL     1       0.040  -2.758   0.019  0.00  0.00    -0.199 N 
ATOM     12  C   UNL     1       0.035  -2.076   1.199  0.00  0.00    +0.123 A 
ATOM     13  C   UNL     1       0.023  -0.712   1.207  0.00  0.00    +0.047 A 
ENDBRANCH   2  12
ENDBRANCH   1   2
BRANCH   1  14
ATOM     14  C   UNL     1       0.065  -3.038   4.826  0.00  0.00    +0.161 C 
BRANCH  14  15
ATOM     15  C   UNL     1      -0.063  -2.294   6.130  0.00  0.00    -0.018 A 
ATOM     16  C   UNL     1       1.043  -1.674   6.682  0.00  0.00    +0.008 A 
ATOM     17  C   UNL     1       0.929  -0.991   7.877  0.00  0.00    +0.023 A 
ATOM     18  C   UNL     1      -0.299  -0.927   8.524  0.00  0.00    +0.025 A 
ATOM     19  C   UNL     1      -1.408  -1.551   7.967  0.00  0.00    +0.023 A 
ATOM     20  C   UNL     1      -1.288  -2.228   6.769  0.00  0.00    +0.008 A 
BRANCH  18  21
ATOM     21  N   UNL     1      -0.417  -0.238   9.733  0.00  0.00    -0.358 N 
ATOM     22  H   UNL     1       0.358   0.197  10.122  0.00  0.00    +0.142 HD
ATOM     23  H   UNL     1      -1.275  -0.194  10.184  0.00  0.00    +0.142 HD
ENDBRANCH  18  21
ENDBRANCH  14  15
BRANCH  14  24
ATOM     24  O   UNL     1       1.296  -3.764   4.811  0.00  0.00    -0.386 OA
ATOM     25  H   UNL     1       2.082  -3.207   4.900  0.00  0.00    +0.210 HD
ENDBRANCH  14  24
ENDBRANCH   1  14
TORSDOF 6
