REMARK  Name = ZINC55541634
REMARK  10 active torsions:
REMARK  status: ('A' for Active; 'I' for Inactive)
REMARK    1  A    between atoms: C_1  and  C_2
REMARK    2  A    between atoms: C_4  and  C_7
REMARK    3  A    between atoms: C_7  and  S_8
REMARK    4  A    between atoms: S_8  and  C_9
REMARK    5  A    between atoms: C_14  and  C_15
REMARK    6  A    between atoms: N_17  and  C_18
REMARK    7  A    between atoms: C_20  and  C_26
REMARK    8  A    between atoms: C_20  and  C_27
REMARK    9  A    between atoms: C_22  and  C_24
REMARK   10  A    between atoms: C_22  and  C_25
REMARK                            x       y       z     vdW  Elec       q    Type
REMARK                         _______ _______ _______ _____ _____    ______ ____
ROOT
ATOM      1  C   UNL     1       4.074  -4.982  -3.329  0.00  0.00    +0.245 C 
ATOM      2  O   UNL     1       4.180  -3.958  -2.680  0.00  0.00    -0.270 OA
ATOM      3  N   UNL     1       5.177  -5.629  -3.751  0.00  0.00    -0.309 N 
ATOM      4  H   UNL     1       5.093  -6.445  -4.268  0.00  0.00    +0.149 HD
ENDROOT
BRANCH   3   5
ATOM      5  C   UNL     1       6.508  -5.099  -3.429  0.00  0.00    +0.071 C 
ATOM      6  C   UNL     1       6.916  -4.082  -4.497  0.00  0.00    +0.009 C 
ATOM      7  C   UNL     1       8.306  -3.529  -4.182  0.00  0.00    -0.072 C 
ATOM      8  N   UNL     1       9.291  -4.587  -4.014  0.00  0.00    +0.386 N 
ATOM      9  C   UNL     1       8.931  -5.719  -3.175  0.00  0.00    -0.072 C 
ATOM     10  C   UNL     1       7.523  -6.242  -3.443  0.00  0.00    +0.009 C 
ATOM     11  C   UNL     1       9.915  -6.868  -3.498  0.00  0.00    -0.010 C 
ATOM     12  C   UNL     1       9.093  -5.396  -1.688  0.00  0.00    -0.010 C 
ATOM     13  C   UNL     1       8.243  -2.602  -2.969  0.00  0.00    -0.010 C 
ATOM     14  C   UNL     1       8.743  -2.672  -5.392  0.00  0.00    -0.010 C 
ATOM     15  H   UNL     1       9.543  -4.940  -4.940  0.00  0.00    -0.084 HD
ATOM     16  H   UNL     1      10.149  -4.171  -3.643  0.00  0.00    -0.084 HD
ENDBRANCH   3   5
BRANCH   1  22
ATOM     17  C   UNL     1       1.585  -4.843  -3.214  0.00  0.00    +0.020 A 
ATOM     18  C   UNL     1       0.330  -5.353  -3.530  0.00  0.00    +0.015 A 
ATOM     19  C   UNL     1       0.223  -6.514  -4.266  0.00  0.00    +0.001 A 
ATOM     20  C   UNL     1       1.359  -7.182  -4.695  0.00  0.00    +0.001 A 
ATOM     21  C   UNL     1       2.611  -6.693  -4.391  0.00  0.00    +0.014 A 
ATOM     22  C   UNL     1       2.738  -5.514  -3.652  0.00  0.00    +0.050 A 
BRANCH  17  23
ATOM     23  S   UNL     1       1.726  -3.359  -2.274  0.00  0.00    -0.117 S 
BRANCH  23  24
ATOM     24  C   UNL     1       0.007  -2.879  -1.950  0.00  0.00    +0.151 C 
BRANCH  24  28
ATOM     25  C   UNL     1      -0.080   2.047  -0.655  0.00  0.00    +0.069 C 
ATOM     26  C   UNL     1      -0.054   0.544  -0.556  0.00  0.00    +0.081 A 
ATOM     27  C   UNL     1      -0.037  -0.355  -1.638  0.00  0.00    +0.071 A 
ATOM     28  C   UNL     1      -0.015  -1.607  -1.143  0.00  0.00    +0.148 A 
ATOM     29  O   UNL     1      -0.018  -1.523   0.197  0.00  0.00    -0.359 OA
ATOM     30  N   UNL     1      -0.037  -0.150   0.546  0.00  0.00    -0.083 NA
ENDBRANCH  24  28
ENDBRANCH  23  24
ENDBRANCH  17  23
ENDBRANCH   1  22
TORSDOF 5
