REMARK  Name = ZINC36584605
REMARK  6 active torsions:
REMARK  status: ('A' for Active; 'I' for Inactive)
REMARK    1  A    between atoms: C_3  and  C_6
REMARK    2  A    between atoms: C_6  and  N_7
REMARK    3  A    between atoms: C_8  and  C_10
REMARK    4  A    between atoms: C_10  and  C_11
REMARK    5  A    between atoms: N_15  and  C_19
REMARK    6  A    between atoms: C_19  and  C_20
REMARK                            x       y       z     vdW  Elec       q    Type
REMARK                         _______ _______ _______ _____ _____    ______ ____
ROOT
ATOM      1  C   UNL     1       7.473   0.520   2.980  0.00  0.00    +0.170 C 
ATOM      2  C   UNL     1       8.019   0.429   4.392  0.00  0.00    +0.244 C 
ATOM      3  O   UNL     1       7.832  -0.461   5.193  0.00  0.00    -0.273 OA
ATOM      4  N   UNL     1       8.755   1.544   4.570  0.00  0.00    -0.220 N 
ATOM      5  C   UNL     1       8.750   2.318   3.479  0.00  0.00    +0.309 C 
ATOM      6  O   UNL     1       9.343   3.376   3.399  0.00  0.00    -0.252 OA
ATOM      7  N   UNL     1       8.016   1.794   2.477  0.00  0.00    -0.287 N 
ATOM      8  H   UNL     1       7.873   2.177   1.598  0.00  0.00    +0.151 HD
ENDROOT
BRANCH   1   9
ATOM      9  C   UNL     1       5.944   0.555   2.996  0.00  0.00    +0.127 C 
BRANCH   9  11
ATOM     10  N   UNL     1       4.101   0.607   1.347  0.00  0.00    -0.308 N 
ATOM     11  C   UNL     1       5.428   0.575   1.580  0.00  0.00    +0.216 C 
ATOM     12  O   UNL     1       6.207   0.561   0.650  0.00  0.00    -0.276 OA
ATOM     13  H   UNL     1       3.478   0.617   2.090  0.00  0.00    +0.149 HD
BRANCH  10  14
ATOM     14  C   UNL     1       3.599   0.625  -0.029  0.00  0.00    +0.178 C 
BRANCH  14  17
ATOM     15  C   UNL     1      -0.016   1.341   0.009  0.00  0.00    +0.041 A 
ATOM     16  C   UNL     1       1.331   1.769  -0.001  0.00  0.00    +0.046 A 
ATOM     17  C   UNL     1       2.092   0.660  -0.014  0.00  0.00    +0.122 A 
ATOM     18  O   UNL     1       1.282  -0.411  -0.012  0.00  0.00    -0.466 OA
ATOM     19  C   UNL     1       0.002  -0.004   0.002  0.00  0.00    +0.195 A 
ENDBRANCH  14  17
ENDBRANCH  10  14
ENDBRANCH   9  11
ENDBRANCH   1   9
BRANCH   4  20
ATOM     20  C   UNL     1       9.471   1.868   5.807  0.00  0.00    +0.153 C 
BRANCH  20  21
ATOM     21  C   UNL     1      10.865   1.299   5.744  0.00  0.00    -0.026 A 
ATOM     22  C   UNL     1      11.108   0.019   6.205  0.00  0.00    +0.009 A 
ATOM     23  C   UNL     1      12.385  -0.508   6.149  0.00  0.00    +0.050 A 
ATOM     24  C   UNL     1      13.425   0.247   5.631  0.00  0.00    +0.166 A 
ATOM     25  C   UNL     1      13.180   1.537   5.167  0.00  0.00    +0.167 A 
ATOM     26  C   UNL     1      11.896   2.056   5.220  0.00  0.00    +0.054 A 
ATOM     27  O   UNL     1      14.352   2.067   4.711  0.00  0.00    -0.453 OA
ATOM     28  C   UNL     1      15.390   1.245   5.275  0.00  0.00    +0.466 C 
ATOM     29  O   UNL     1      14.751  -0.031   5.466  0.00  0.00    -0.453 OA
ENDBRANCH  20  21
ENDBRANCH   4  20
TORSDOF 6
