REMARK  Name = ZINC66582148
REMARK  4 active torsions:
REMARK  status: ('A' for Active; 'I' for Inactive)
REMARK    1  A    between atoms: C_1  and  C_2
REMARK    2  A    between atoms: C_5  and  C_23
REMARK    3  A    between atoms: N_13  and  S_14
REMARK    4  A    between atoms: S_14  and  C_17
REMARK                            x       y       z     vdW  Elec       q    Type
REMARK                         _______ _______ _______ _____ _____    ______ ____
ROOT
ATOM      1  C   UNL     1       0.177   1.854   0.197  0.00  0.00    +0.030 C 
ATOM      2  C   UNL     1       0.159   0.361  -0.136  0.00  0.00    +0.096 C 
ATOM      3  C   UNL     1      -1.285  -0.104  -0.364  0.00  0.00    +0.041 C 
ATOM      4  C   UNL     1      -2.113   0.230   0.877  0.00  0.00    +0.108 C 
ATOM      5  C   UNL     1      -1.436  -0.290   2.117  0.00  0.00    -0.013 A 
ATOM      6  C   UNL     1      -2.191  -0.480   3.263  0.00  0.00    +0.006 A 
ATOM      7  C   UNL     1      -1.599  -0.954   4.417  0.00  0.00    +0.000 A 
ATOM      8  C   UNL     1      -0.246  -1.240   4.437  0.00  0.00    +0.002 A 
ATOM      9  C   UNL     1       0.514  -1.055   3.300  0.00  0.00    +0.025 A 
ATOM     10  C   UNL     1      -0.081  -0.580   2.136  0.00  0.00    +0.055 A 
ATOM     11  N   UNL     1       0.707  -0.407   0.991  0.00  0.00    -0.204 N 
ENDROOT
BRANCH   4  12
ATOM     12  C   UNL     1      -3.474  -0.405   0.753  0.00  0.00    +0.218 C 
ATOM     13  O   UNL     1      -3.592  -1.489   0.222  0.00  0.00    -0.275 OA
ATOM     14  N   UNL     1      -4.561   0.232   1.234  0.00  0.00    -0.329 N 
ATOM     15  H   UNL     1      -4.478   1.129   1.593  0.00  0.00    +0.145 HD
ATOM     16  H   UNL     1      -5.426  -0.207   1.219  0.00  0.00    +0.145 HD
ENDBRANCH   4  12
BRANCH  11  17
ATOM     17  S   UNL     1       2.227  -1.057   0.906  0.00  0.00    +0.049 S 
ATOM     18  O   UNL     1       2.085  -2.379   1.408  0.00  0.00    -0.155 OA
ATOM     19  O   UNL     1       2.644  -0.831  -0.433  0.00  0.00    -0.155 OA
BRANCH  17  20
ATOM     20  C   UNL     1       3.224  -0.059   2.047  0.00  0.00    +0.151 C 
ATOM     21  C   UNL     1       3.102   1.419   1.673  0.00  0.00    +0.028 C 
ATOM     22  C   UNL     1       3.942   2.260   2.636  0.00  0.00    +0.002 C 
ATOM     23  C   UNL     1       5.408   1.830   2.542  0.00  0.00    +0.000 C 
ATOM     24  C   UNL     1       5.530   0.352   2.916  0.00  0.00    +0.002 C 
ATOM     25  C   UNL     1       4.690  -0.489   1.954  0.00  0.00    +0.028 C 
ENDBRANCH  17  20
ENDBRANCH  11  17
TORSDOF 3
