REMARK  Name = ZINC63687971
REMARK  10 active torsions:
REMARK  status: ('A' for Active; 'I' for Inactive)
REMARK    1  A    between atoms: C_1  and  O_2
REMARK    2  A    between atoms: O_2  and  C_3
REMARK    3  A    between atoms: C_6  and  N_9
REMARK    4  A    between atoms: C_10  and  C_12
REMARK    5  A    between atoms: C_12  and  S_13
REMARK    6  A    between atoms: S_13  and  C_14
REMARK    7  A    between atoms: C_20  and  C_21
REMARK    8  A    between atoms: N_23  and  C_24
REMARK    9  A    between atoms: C_24  and  C_25
REMARK   10  A    between atoms: C_25  and  C_26
REMARK                            x       y       z     vdW  Elec       q    Type
REMARK                         _______ _______ _______ _____ _____    ______ ____
ROOT
ATOM      1  C   UNL     1       4.323  -7.447  -7.072  0.00  0.00    +0.188 C 
ATOM      2  N   UNL     1       3.731  -6.787  -8.251  0.00  0.00    -0.326 N 
ATOM      3  C   UNL     1       4.413  -5.780  -8.835  0.00  0.00    +0.020 C 
ATOM      4  C   UNL     1       5.916  -5.775  -8.584  0.00  0.00    +0.122 C 
ATOM      5  S   UNL     1       5.963  -6.618  -6.937  0.00  0.00    -0.122 S 
ATOM      6  C   UNL     1       3.805  -4.841  -9.590  0.00  0.00    +0.086 C 
ATOM      7  H   UNL     1       2.871  -7.071  -8.599  0.00  0.00    +0.148 HD
ENDROOT
BRANCH   6   8
ATOM      8  C   UNL     1       2.394  -4.806  -9.673  0.00  0.00    +0.238 C 
ATOM      9  O   UNL     1       1.724  -5.549  -8.980  0.00  0.00    -0.271 OA
ATOM     10  N   UNL     1       1.790  -3.949 -10.521  0.00  0.00    -0.311 N 
ATOM     11  H   UNL     1       2.324  -3.357 -11.074  0.00  0.00    +0.149 HD
BRANCH  10  12
ATOM     12  C   UNL     1       0.328  -3.913 -10.608  0.00  0.00    +0.109 C 
BRANCH  12  13
ATOM     13  C   UNL     1      -0.096  -2.863 -11.637  0.00  0.00    +0.052 C 
BRANCH  13  14
ATOM     14  C   UNL     1      -1.599  -2.825 -11.726  0.00  0.00    -0.040 C 
ATOM     15  C   UNL     1      -2.432  -1.986 -11.069  0.00  0.00    -0.001 A 
ATOM     16  C   UNL     1      -2.197  -0.900 -10.111  0.00  0.00    +0.010 A 
ATOM     17  C   UNL     1      -3.256  -0.223  -9.612  0.00  0.00    +0.001 A 
ATOM     18  C   UNL     1      -4.571  -0.534  -9.986  0.00  0.00    +0.002 A 
ATOM     19  C   UNL     1      -4.867  -1.518 -10.861  0.00  0.00    +0.026 A 
ATOM     20  C   UNL     1      -3.830  -2.294 -11.448  0.00  0.00    +0.043 A 
ATOM     21  N   UNL     1      -3.860  -3.284 -12.307  0.00  0.00    -0.380 N 
ATOM     22  C   UNL     1      -2.482  -3.714 -12.573  0.00  0.00    +0.144 C 
ATOM     23  H   UNL     1      -4.659  -3.667 -12.702  0.00  0.00    +0.160 HD
ENDBRANCH  13  14
ENDBRANCH  12  13
ENDBRANCH  10  12
ENDBRANCH   6   8
BRANCH   1  24
ATOM     24  S   UNL     1       3.321  -7.144  -5.591  0.00  0.00    -0.119 S 
BRANCH  24  25
ATOM     25  C   UNL     1       3.259  -5.335  -5.466  0.00  0.00    +0.167 C 
BRANCH  25  27
ATOM     26  N   UNL     1       2.262  -3.641  -3.965  0.00  0.00    -0.285 N 
ATOM     27  C   UNL     1       2.446  -4.943  -4.260  0.00  0.00    +0.227 C 
ATOM     28  O   UNL     1       1.956  -5.799  -3.554  0.00  0.00    -0.275 OA
ATOM     29  H   UNL     1       2.588  -2.956  -4.570  0.00  0.00    +0.155 HD
BRANCH  26  33
ATOM     30  C   UNL     1       0.292  -2.554  -0.454  0.00  0.00    +0.120 A 
ATOM     31  C   UNL     1       1.091  -3.688  -0.479  0.00  0.00    +0.047 A 
ATOM     32  C   UNL     1       1.744  -4.048  -1.641  0.00  0.00    +0.027 A 
ATOM     33  C   UNL     1       1.600  -3.276  -2.786  0.00  0.00    +0.034 A 
ATOM     34  C   UNL     1       0.800  -2.141  -2.761  0.00  0.00    +0.027 A 
ATOM     35  C   UNL     1       0.144  -1.784  -1.599  0.00  0.00    +0.047 A 
BRANCH  30  37
ATOM     36  C   UNL     1      -0.152  -3.037   1.831  0.00  0.00    +0.277 C 
ATOM     37  O   UNL     1      -0.350  -2.199   0.690  0.00  0.00    -0.495 OA
ENDBRANCH  30  37
ENDBRANCH  26  33
ENDBRANCH  25  27
ENDBRANCH  24  25
ENDBRANCH   1  24
TORSDOF 9
