REMARK  Name = ZINC59156584
REMARK  6 active torsions:
REMARK  status: ('A' for Active; 'I' for Inactive)
REMARK    1  A    between atoms: C_4  and  C_7
REMARK    2  A    between atoms: C_7  and  C_8
REMARK    3  A    between atoms: C_7  and  N_14
REMARK    4  A    between atoms: N_22  and  N_23
REMARK    5  A    between atoms: N_23  and  S_24
REMARK    6  A    between atoms: S_24  and  C_27
REMARK                            x       y       z     vdW  Elec       q    Type
REMARK                         _______ _______ _______ _____ _____    ______ ____
ROOT
ATOM      1  N   UNL     1       3.459  -1.876  -0.884  0.00  0.00    -0.254 N 
ATOM      2  C   UNL     1       4.247  -2.242  -1.969  0.00  0.00    +0.047 A 
ATOM      3  C   UNL     1       5.389  -1.668  -2.518  0.00  0.00    +0.024 A 
ATOM      4  C   UNL     1       5.991  -2.241  -3.620  0.00  0.00    +0.002 A 
ATOM      5  C   UNL     1       5.469  -3.389  -4.191  0.00  0.00    +0.001 A 
ATOM      6  C   UNL     1       4.336  -3.973  -3.660  0.00  0.00    +0.012 A 
ATOM      7  C   UNL     1       3.723  -3.404  -2.550  0.00  0.00    +0.029 A 
ATOM      8  C   UNL     1       2.527  -3.766  -1.753  0.00  0.00    +0.156 C 
ATOM      9  N   UNL     1       1.723  -4.787  -1.938  0.00  0.00    -0.136 NA
ATOM     10  C   UNL     1       2.440  -2.734  -0.705  0.00  0.00    +0.272 C 
ATOM     11  O   UNL     1       1.594  -2.669   0.167  0.00  0.00    -0.268 OA
ENDROOT
BRANCH   1  12
ATOM     12  C   UNL     1       3.711  -0.707  -0.038  0.00  0.00    +0.142 C 
BRANCH  12  16
ATOM     13  C   UNL     1       0.095   1.517   0.434  0.00  0.00    +0.000 A 
ATOM     14  C   UNL     1       1.006   1.450   1.472  0.00  0.00    +0.000 A 
ATOM     15  C   UNL     1       2.176   0.731   1.319  0.00  0.00    +0.006 A 
ATOM     16  C   UNL     1       2.435   0.077   0.129  0.00  0.00    -0.022 A 
ATOM     17  C   UNL     1       1.524   0.142  -0.908  0.00  0.00    +0.006 A 
ATOM     18  C   UNL     1       0.354   0.863  -0.756  0.00  0.00    +0.000 A 
ENDBRANCH  12  16
BRANCH  12  19
ATOM     19  C   UNL     1       4.202  -1.161   1.313  0.00  0.00    -0.022 A 
ATOM     20  C   UNL     1       3.794  -2.379   1.823  0.00  0.00    +0.006 A 
ATOM     21  C   UNL     1       4.245  -2.796   3.062  0.00  0.00    +0.000 A 
ATOM     22  C   UNL     1       5.103  -1.994   3.791  0.00  0.00    +0.000 A 
ATOM     23  C   UNL     1       5.512  -0.776   3.280  0.00  0.00    +0.000 A 
ATOM     24  C   UNL     1       5.065  -0.361   2.039  0.00  0.00    +0.006 A 
ENDBRANCH  12  19
ENDBRANCH   1  12
BRANCH   9  25
ATOM     25  N   UNL     1       0.717  -4.966  -1.151  0.00  0.00    +0.007 NA
BRANCH  25  26
ATOM     26  S   UNL     1      -0.298  -6.255  -1.384  0.00  0.00    +0.108 S 
ATOM     27  O   UNL     1      -0.955  -6.035  -2.624  0.00  0.00    -0.147 OA
ATOM     28  O   UNL     1       0.466  -7.425  -1.123  0.00  0.00    -0.147 OA
BRANCH  26  29
ATOM     29  C   UNL     1      -1.538  -6.174  -0.135  0.00  0.00    +0.112 A 
ATOM     30  C   UNL     1      -1.339  -6.806   1.079  0.00  0.00    +0.029 A 
ATOM     31  C   UNL     1      -2.312  -6.742   2.059  0.00  0.00    +0.002 A 
ATOM     32  C   UNL     1      -3.483  -6.047   1.825  0.00  0.00    +0.000 A 
ATOM     33  C   UNL     1      -3.682  -5.414   0.612  0.00  0.00    +0.002 A 
ATOM     34  C   UNL     1      -2.707  -5.474  -0.366  0.00  0.00    +0.029 A 
ENDBRANCH  26  29
ENDBRANCH  25  26
ENDBRANCH   9  25
TORSDOF 6
