REMARK  Name = ZINC09229844
REMARK  10 active torsions:
REMARK  status: ('A' for Active; 'I' for Inactive)
REMARK    1  A    between atoms: C_1  and  C_2
REMARK    2  A    between atoms: C_7  and  C_8
REMARK    3  A    between atoms: N_10  and  C_11
REMARK    4  A    between atoms: C_14  and  C_17
REMARK    5  A    between atoms: N_19  and  N_20
REMARK    6  A    between atoms: N_20  and  C_21
REMARK    7  A    between atoms: C_21  and  N_23
REMARK    8  A    between atoms: C_24  and  C_26
REMARK    9  A    between atoms: C_27  and  C_28
REMARK   10  A    between atoms: C_31  and  N_34
REMARK                            x       y       z     vdW  Elec       q    Type
REMARK                         _______ _______ _______ _____ _____    ______ ____
ROOT
ATOM      1  C   UNL     1      -0.108   1.080   0.312  0.00  0.00    +0.260 C 
ATOM      2  O   UNL     1      -0.113  -0.135   0.331  0.00  0.00    -0.269 OA
ATOM      3  N   UNL     1       1.062   1.750   0.321  0.00  0.00    -0.231 N 
ATOM      4  H   UNL     1       1.065   2.720   0.307  0.00  0.00    +0.173 HD
ENDROOT
BRANCH   1   8
ATOM      5  C   UNL     1      -3.777   3.217   0.201  0.00  0.00    +0.034 A 
ATOM      6  C   UNL     1      -3.784   1.826   0.222  0.00  0.00    +0.024 A 
ATOM      7  C   UNL     1      -2.597   1.130   0.258  0.00  0.00    +0.015 A 
ATOM      8  C   UNL     1      -1.383   1.823   0.273  0.00  0.00    +0.038 A 
ATOM      9  C   UNL     1      -1.379   3.220   0.258  0.00  0.00    +0.015 A 
ATOM     10  C   UNL     1      -2.570   3.910   0.216  0.00  0.00    +0.024 A 
BRANCH   5  13
ATOM     11  C   UNL     1      -6.027   3.426  -0.527  0.00  0.00    +0.249 C 
ATOM     12  O   UNL     1      -5.950   2.329  -1.046  0.00  0.00    -0.270 OA
ATOM     13  N   UNL     1      -4.981   3.918   0.165  0.00  0.00    -0.281 N 
ATOM     14  H   UNL     1      -5.066   4.761   0.638  0.00  0.00    +0.155 HD
BRANCH  11  21
ATOM     15  C   UNL     1      -8.328   2.279  -1.855  0.00  0.00    +0.044 C 
ATOM     16  C   UNL     1      -8.383   3.677  -1.295  0.00  0.00    -0.038 A 
ATOM     17  C   UNL     1      -9.538   4.423  -1.412  0.00  0.00    +0.004 A 
ATOM     18  C   UNL     1      -9.591   5.706  -0.898  0.00  0.00    +0.000 A 
ATOM     19  C   UNL     1      -8.488   6.250  -0.264  0.00  0.00    +0.001 A 
ATOM     20  C   UNL     1      -7.329   5.513  -0.135  0.00  0.00    +0.013 A 
ATOM     21  C   UNL     1      -7.267   4.219  -0.656  0.00  0.00    +0.040 A 
ENDBRANCH  11  21
ENDBRANCH   5  13
ENDBRANCH   1   8
BRANCH   3  22
ATOM     22  N   UNL     1       2.272   1.045   0.352  0.00  0.00    -0.245 N 
ATOM     23  H   UNL     1       2.268   0.075   0.367  0.00  0.00    +0.172 HD
BRANCH  22  24
ATOM     24  C   UNL     1       3.442   1.714   0.362  0.00  0.00    +0.153 C 
ATOM     25  S   UNL     1       4.921   0.853   0.400  0.00  0.00    -0.017 S 
BRANCH  24  26
ATOM     26  N   UNL     1       3.447   3.062   0.341  0.00  0.00    -0.263 N 
ATOM     27  C   UNL     1       4.617   3.731   0.350  0.00  0.00    +0.242 C 
ATOM     28  O   UNL     1       5.668   3.119   0.377  0.00  0.00    -0.270 OA
ATOM     29  H   UNL     1       2.609   3.550   0.320  0.00  0.00    +0.157 HD
BRANCH  27  30
ATOM     30  C   UNL     1       4.623   5.194   0.328  0.00  0.00    +0.068 C 
ATOM     31  C   UNL     1       5.793   5.864   0.337  0.00  0.00    +0.013 C 
BRANCH  31  32
ATOM     32  C   UNL     1       5.799   7.336   0.315  0.00  0.00    -0.025 A 
ATOM     33  C   UNL     1       4.593   8.043   0.278  0.00  0.00    +0.010 A 
ATOM     34  C   UNL     1       4.607   9.422   0.264  0.00  0.00    +0.033 A 
ATOM     35  C   UNL     1       5.810  10.105   0.273  0.00  0.00    +0.126 A 
ATOM     36  C   UNL     1       7.008   9.413   0.303  0.00  0.00    +0.033 A 
ATOM     37  C   UNL     1       7.011   8.034   0.324  0.00  0.00    +0.010 A 
BRANCH  35  38
ATOM     38  N   UNL     1       5.816  11.585   0.251  0.00  0.00    +0.056 N 
ATOM     39  O   UNL     1       6.873  12.190   0.259  0.00  0.00    -0.126 OA
ATOM     40  O   UNL     1       4.764  12.198   0.224  0.00  0.00    -0.126 OA
ENDBRANCH  35  38
ENDBRANCH  31  32
ENDBRANCH  27  30
ENDBRANCH  24  26
ENDBRANCH  22  24
ENDBRANCH   3  22
TORSDOF 9
