REMARK  Name = ZINC32911351
REMARK  2 active torsions:
REMARK  status: ('A' for Active; 'I' for Inactive)
REMARK    1  A    between atoms: C_3  and  N_16
REMARK    2  A    between atoms: C_6  and  C_7
REMARK                            x       y       z     vdW  Elec       q    Type
REMARK                         _______ _______ _______ _____ _____    ______ ____
ROOT
ATOM      1  C   UNL     1       1.250  -2.160  -0.021  0.00  0.00    +0.260 C 
ATOM      2  O   UNL     1       0.211  -2.788   0.058  0.00  0.00    -0.269 OA
ATOM      3  N   UNL     1       2.424  -2.812  -0.137  0.00  0.00    -0.233 N 
ATOM      4  C   UNL     1       2.404  -4.253  -0.252  0.00  0.00    +0.127 C 
ATOM      5  C   UNL     1       2.443  -4.878   1.165  0.00  0.00    +0.021 C 
ATOM      6  C   UNL     1       3.769  -4.678   1.775  0.00  0.00    +0.003 C 
ATOM      7  C   UNL     1       4.146  -3.208   1.964  0.00  0.00    +0.017 C 
ATOM      8  C   UNL     1       4.679  -2.655   0.667  0.00  0.00    +0.102 C 
ATOM      9  N   UNL     1       3.586  -2.074  -0.147  0.00  0.00    -0.238 NA
ATOM     10  H   UNL     1       3.890  -1.892  -1.092  0.00  0.00    +0.144 HD
ENDROOT
BRANCH   1  16
ATOM     11  C   UNL     1       2.356   0.029   0.411  0.00  0.00    +0.015 A 
ATOM     12  C   UNL     1       2.326   1.408   0.438  0.00  0.00    +0.033 A 
ATOM     13  C   UNL     1       1.177   2.086   0.069  0.00  0.00    +0.126 A 
ATOM     14  C   UNL     1       0.051   1.386  -0.329  0.00  0.00    +0.033 A 
ATOM     15  C   UNL     1       0.068   0.007  -0.360  0.00  0.00    +0.015 A 
ATOM     16  C   UNL     1       1.224  -0.683   0.011  0.00  0.00    +0.038 A 
BRANCH  13  17
ATOM     17  N   UNL     1       1.151   3.565   0.101  0.00  0.00    +0.056 N 
ATOM     18  O   UNL     1       2.141   4.184   0.451  0.00  0.00    -0.126 OA
ATOM     19  O   UNL     1       0.142   4.164  -0.223  0.00  0.00    -0.126 OA
ENDBRANCH  13  17
ENDBRANCH   1  16
TORSDOF 2
