REMARK  Name = ZINC54982174
REMARK  7 active torsions:
REMARK  status: ('A' for Active; 'I' for Inactive)
REMARK    1  A    between atoms: C_1  and  N_2
REMARK    2  A    between atoms: N_2  and  S_3
REMARK    3  A    between atoms: S_3  and  C_6
REMARK    4  A    between atoms: C_9  and  N_15
REMARK    5  A    between atoms: C_10  and  N_12
REMARK    6  A    between atoms: N_15  and  C_16
REMARK    7  A    between atoms: N_25  and  C_27
REMARK                            x       y       z     vdW  Elec       q    Type
REMARK                         _______ _______ _______ _____ _____    ______ ____
ROOT
ATOM      1  C   UNL     1      -2.473  -0.589  -1.430  0.00  0.00    +0.108 A 
ATOM      2  C   UNL     1      -3.121   0.618  -1.617  0.00  0.00    +0.030 A 
ATOM      3  C   UNL     1      -3.544   0.988  -2.879  0.00  0.00    +0.027 A 
ATOM      4  C   UNL     1      -3.317   0.147  -3.961  0.00  0.00    +0.058 A 
ATOM      5  C   UNL     1      -2.665  -1.065  -3.769  0.00  0.00    +0.149 A 
ATOM      6  C   UNL     1      -2.240  -1.427  -2.505  0.00  0.00    +0.063 A 
ENDROOT
BRANCH   1   7
ATOM      7  S   UNL     1      -1.935  -1.057   0.181  0.00  0.00    +0.058 S 
ATOM      8  O   UNL     1      -1.834  -2.475   0.180  0.00  0.00    -0.153 OA
ATOM      9  O   UNL     1      -2.754  -0.353   1.104  0.00  0.00    -0.153 OA
BRANCH   7  11
ATOM     10  C   UNL     1      -0.159   0.972   0.390  0.00  0.00    +0.127 C 
ATOM     11  N   UNL     1      -0.397  -0.473   0.373  0.00  0.00    -0.193 NA
ATOM     12  H   UNL     1       0.346  -1.089   0.473  0.00  0.00    +0.148 HD
ENDBRANCH   7  11
ENDBRANCH   1   7
BRANCH   5  13
ATOM     13  N   UNL     1      -2.421  -1.965  -4.918  0.00  0.00    +0.058 N 
ATOM     14  O   UNL     1      -3.255  -2.075  -5.787  0.00  0.00    -0.126 OA
ATOM     15  O   UNL     1      -1.389  -2.591  -4.988  0.00  0.00    -0.126 OA
ENDBRANCH   5  13
BRANCH   4  16
ATOM     16  N   UNL     1      -3.743   0.518  -5.238  0.00  0.00    -0.339 N 
ATOM     17  H   UNL     1      -3.509  -0.028  -6.005  0.00  0.00    +0.146 HD
BRANCH  16  18
ATOM     18  C   UNL     1      -4.542   1.729  -5.419  0.00  0.00    +0.073 C 
ATOM     19  C   UNL     1      -3.631   2.948  -5.577  0.00  0.00    -0.007 C 
ATOM     20  C   UNL     1      -4.484   4.210  -5.649  0.00  0.00    +0.003 C 
ATOM     21  C   UNL     1      -5.524   4.154  -6.758  0.00  0.00    +0.001 C 
ATOM     22  C   UNL     1      -6.295   2.844  -6.795  0.00  0.00    +0.003 C 
ATOM     23  C   UNL     1      -5.388   1.623  -6.689  0.00  0.00    -0.007 C 
ATOM     24  C   UNL     1      -4.492   1.481  -7.910  0.00  0.00    -0.073 C 
ATOM     25  N   UNL     1      -3.510   2.553  -8.033  0.00  0.00    +0.382 N 
ATOM     26  C   UNL     1      -2.753   2.794  -6.809  0.00  0.00    -0.073 C 
ATOM     27  H   UNL     1      -3.955   3.402  -8.342  0.00  0.00    -0.081 HD
BRANCH  25  28
ATOM     28  C   UNL     1      -2.559   2.179  -9.089  0.00  0.00    -0.069 C 
ATOM     29  C   UNL     1      -2.293   3.202 -10.195  0.00  0.00    -0.017 C 
ATOM     30  C   UNL     1      -3.119   1.949 -10.494  0.00  0.00    -0.017 C 
ENDBRANCH  25  28
ENDBRANCH  16  18
ENDBRANCH   4  16
TORSDOF 6
