REMARK  Name = ZINC32910519
REMARK  8 active torsions:
REMARK  status: ('A' for Active; 'I' for Inactive)
REMARK    1  A    between atoms: C_1  and  C_2
REMARK    2  A    between atoms: C_2  and  C_4
REMARK    3  A    between atoms: C_2  and  N_16
REMARK    4  A    between atoms: C_4  and  O_6
REMARK    5  A    between atoms: O_6  and  C_7
REMARK    6  A    between atoms: C_7  and  C_8
REMARK    7  A    between atoms: C_13  and  C_14
REMARK    8  A    between atoms: C_17  and  C_19
REMARK                            x       y       z     vdW  Elec       q    Type
REMARK                         _______ _______ _______ _____ _____    ______ ____
ROOT
ATOM      1  C   UNL     1      -1.208   6.288  -1.207  0.00  0.00    +0.040 C 
ATOM      2  C   UNL     1      -1.978   5.861   0.043  0.00  0.00    +0.179 C 
ENDROOT
BRANCH   2   3
ATOM      3  N   UNL     1      -3.292   6.510   0.053  0.00  0.00    -0.299 N 
ATOM      4  C   UNL     1      -3.425   7.754   0.554  0.00  0.00    +0.245 C 
ATOM      5  O   UNL     1      -2.455   8.338   0.997  0.00  0.00    -0.270 OA
ATOM      6  H   UNL     1      -4.169   5.982  -0.348  0.00  0.00    +0.150 HD
BRANCH   4   7
ATOM      7  C   UNL     1      -4.750   8.409   0.564  0.00  0.00    +0.037 A 
ATOM      8  C   UNL     1      -5.865   7.744   0.050  0.00  0.00    +0.013 A 
ATOM      9  C   UNL     1      -7.099   8.359   0.067  0.00  0.00    +0.001 A 
ATOM     10  C   UNL     1      -7.233   9.636   0.582  0.00  0.00    +0.000 A 
ATOM     11  C   UNL     1      -6.131  10.303   1.087  0.00  0.00    +0.001 A 
ATOM     12  C   UNL     1      -4.891   9.698   1.081  0.00  0.00    +0.013 A 
ENDBRANCH   4   7
ENDBRANCH   2   3
BRANCH   2  13
ATOM     13  C   UNL     1      -2.158   4.365   0.036  0.00  0.00    +0.328 C 
ATOM     14  O   UNL     1      -3.268   3.889   0.039  0.00  0.00    -0.249 OA
BRANCH  13  15
ATOM     15  O   UNL     1      -1.083   3.560   0.026  0.00  0.00    -0.459 OA
BRANCH  15  16
ATOM     16  C   UNL     1      -1.331   2.129   0.020  0.00  0.00    +0.269 C 
BRANCH  16  17
ATOM     17  C   UNL     1      -0.017   1.392   0.010  0.00  0.00    +0.007 A 
ATOM     18  C   UNL     1       1.170   2.095   0.002  0.00  0.00    +0.008 A 
ATOM     19  C   UNL     1       2.378   1.419  -0.013  0.00  0.00    +0.000 A 
ATOM     20  C   UNL     1       2.404   0.036  -0.021  0.00  0.00    +0.001 A 
ATOM     21  C   UNL     1       1.224  -0.679  -0.013  0.00  0.00    +0.019 A 
ATOM     22  C   UNL     1       0.002  -0.004   0.002  0.00  0.00    +0.058 A 
BRANCH  22  23
ATOM     23  C   UNL     1      -1.226  -0.740   0.009  0.00  0.00    +0.100 C 
ATOM     24  N   UNL     1      -2.201  -1.324   0.015  0.00  0.00    -0.191 NA
ENDBRANCH  22  23
ENDBRANCH  16  17
ENDBRANCH  15  16
ENDBRANCH  13  15
ENDBRANCH   2  13
TORSDOF 7
