REMARK  Name = ZINC66679668
REMARK  6 active torsions:
REMARK  status: ('A' for Active; 'I' for Inactive)
REMARK    1  A    between atoms: C_1  and  C_2
REMARK    2  A    between atoms: C_7  and  C_8
REMARK    3  A    between atoms: C_7  and  C_9
REMARK    4  A    between atoms: C_11  and  N_13
REMARK    5  A    between atoms: N_16  and  C_17
REMARK    6  A    between atoms: C_21  and  C_23
REMARK                            x       y       z     vdW  Elec       q    Type
REMARK                         _______ _______ _______ _____ _____    ______ ____
ROOT
ATOM      1  N   UNL     1      -2.268  -0.021   1.015  0.00  0.00    -0.296 N 
ATOM      2  C   UNL     1      -3.606  -0.099   0.873  0.00  0.00    +0.304 C 
ATOM      3  O   UNL     1      -4.084  -0.738  -0.043  0.00  0.00    -0.253 OA
ATOM      4  N   UNL     1      -4.413   0.533   1.748  0.00  0.00    -0.269 N 
ATOM      5  H   UNL     1      -1.886   0.489   1.746  0.00  0.00    +0.151 HD
ATOM      6  H   UNL     1      -4.035   0.987   2.517  0.00  0.00    +0.156 HD
ENDROOT
BRANCH   1  16
ATOM      7  C   UNL     1      -0.009   1.517   0.029  0.00  0.00    +0.013 C 
ATOM      8  C   UNL     1       0.005  -0.013   0.013  0.00  0.00    -0.008 C 
ATOM      9  C   UNL     1       0.749  -0.674  -1.188  0.00  0.00    +0.009 C 
ATOM     10  C   UNL     1       1.059  -2.112  -0.711  0.00  0.00    +0.005 C 
ATOM     11  C   UNL     1       0.473  -2.183   0.733  0.00  0.00    -0.003 C 
ATOM     12  C   UNL     1       0.724  -0.712   1.220  0.00  0.00    -0.025 C 
ATOM     13  C   UNL     1       0.025  -0.422   2.550  0.00  0.00    +0.012 C 
ATOM     14  C   UNL     1       2.214  -0.372   1.276  0.00  0.00    +0.012 C 
ATOM     15  C   UNL     1      -1.072  -2.182   0.528  0.00  0.00    +0.027 C 
ATOM     16  C   UNL     1      -1.389  -0.708   0.065  0.00  0.00    +0.081 C 
ENDBRANCH   1  16
BRANCH   4  17
ATOM     17  C   UNL     1      -5.798   0.534   1.546  0.00  0.00    +0.035 A 
ATOM     18  C   UNL     1      -6.422  -0.582   1.002  0.00  0.00    +0.023 A 
ATOM     19  C   UNL     1      -7.789  -0.584   0.800  0.00  0.00    +0.002 A 
ATOM     20  C   UNL     1      -8.543   0.522   1.139  0.00  0.00    +0.010 A 
ATOM     21  C   UNL     1      -7.926   1.645   1.686  0.00  0.00    +0.004 A 
ATOM     22  C   UNL     1      -6.549   1.647   1.895  0.00  0.00    +0.033 A 
BRANCH  21  23
ATOM     23  C   UNL     1      -8.735   2.835   2.050  0.00  0.00    +0.091 A 
ATOM     24  C   UNL     1     -10.134   2.825   1.847  0.00  0.00    +0.035 A 
ATOM     25  C   UNL     1     -10.845   3.936   2.194  0.00  0.00    +0.073 A 
ATOM     26  C   UNL     1     -10.137   5.031   2.736  0.00  0.00    +0.265 A 
ATOM     27  O   UNL     1     -10.731   6.046   3.062  0.00  0.00    -0.266 OA
ATOM     28  N   UNL     1      -8.802   4.946   2.892  0.00  0.00    -0.243 N 
ATOM     29  H   UNL     1      -8.322   5.701   3.266  0.00  0.00    +0.192 HD
ATOM     30  N   UNL     1      -8.149   3.890   2.565  0.00  0.00    -0.171 NA
ENDBRANCH  21  23
ENDBRANCH   4  17
TORSDOF 3
