REMARK  Name = ZINC02058678
REMARK  9 active torsions:
REMARK  status: ('A' for Active; 'I' for Inactive)
REMARK    1  A    between atoms: C_1  and  C_2
REMARK    2  A    between atoms: C_2  and  C_3
REMARK    3  A    between atoms: C_3  and  C_4
REMARK    4  A    between atoms: C_4  and  O_5
REMARK    5  A    between atoms: O_5  and  C_6
REMARK    6  A    between atoms: C_6  and  C_8
REMARK    7  A    between atoms: C_9  and  C_24
REMARK    8  A    between atoms: N_10  and  C_23
REMARK    9  A    between atoms: C_14  and  C_16
REMARK                            x       y       z     vdW  Elec       q    Type
REMARK                         _______ _______ _______ _____ _____    ______ ____
ROOT
ATOM      1  C   UNL     1      -0.881   1.535   1.166  0.00  0.00    +0.078 C 
ATOM      2  C   UNL     1      -0.320   2.332   2.100  0.00  0.00    +0.024 C 
ATOM      3  N   UNL     1       0.987   2.719   2.004  0.00  0.00    -0.262 N 
ATOM      4  C   UNL     1       1.798   2.352   1.004  0.00  0.00    +0.307 C 
ATOM      5  O   UNL     1       2.947   2.748   1.004  0.00  0.00    -0.252 OA
ATOM      6  N   UNL     1       1.382   1.559  -0.003  0.00  0.00    -0.288 N 
ATOM      7  C   UNL     1      -0.013   1.086   0.008  0.00  0.00    +0.143 C 
ATOM      8  C   UNL     1       1.530   3.583   3.054  0.00  0.00    +0.139 C 
ATOM      9  C   UNL     1      -1.147   2.801   3.269  0.00  0.00    +0.061 C 
ATOM     10  H   UNL     1       1.986   1.306  -0.718  0.00  0.00    +0.151 HD
ENDROOT
BRANCH   7  11
ATOM     11  C   UNL     1      -0.669   1.544  -1.269  0.00  0.00    -0.022 A 
ATOM     12  C   UNL     1      -0.468   2.834  -1.724  0.00  0.00    +0.007 A 
ATOM     13  C   UNL     1      -1.065   3.253  -2.898  0.00  0.00    +0.020 A 
ATOM     14  C   UNL     1      -1.872   2.386  -3.612  0.00  0.00    +0.041 A 
ATOM     15  C   UNL     1      -2.078   1.097  -3.152  0.00  0.00    +0.020 A 
ATOM     16  C   UNL     1      -1.476   0.677  -1.981  0.00  0.00    +0.007 A 
ATOM     17 CL   UNL     1      -2.628   2.914  -5.082  0.00  0.00    -0.084 Cl
ENDBRANCH   7  11
BRANCH   1  18
ATOM     18  C   UNL     1      -2.233   1.133   1.265  0.00  0.00    +0.339 C 
ATOM     19  O   UNL     1      -2.912   1.505   2.203  0.00  0.00    -0.245 OA
BRANCH  18  20
ATOM     20  O   UNL     1      -2.771   0.335   0.318  0.00  0.00    -0.461 OA
BRANCH  20  21
ATOM     21  C   UNL     1      -4.143  -0.032   0.481  0.00  0.00    +0.232 C 
BRANCH  21  22
ATOM     22  C   UNL     1      -4.572  -0.930  -0.680  0.00  0.00    +0.041 C 
BRANCH  22  24
ATOM     23  C   UNL     1      -6.469  -2.222  -1.667  0.00  0.00    +0.004 C 
ATOM     24  C   UNL     1      -6.040  -1.323  -0.506  0.00  0.00    -0.000 C 
ENDBRANCH  22  24
ENDBRANCH  21  22
ENDBRANCH  20  21
ENDBRANCH  18  20
ENDBRANCH   1  18
TORSDOF 6
