REMARK  Name = ZINC41548912
REMARK  5 active torsions:
REMARK  status: ('A' for Active; 'I' for Inactive)
REMARK    1  A    between atoms: C_1  and  C_2
REMARK    2  A    between atoms: C_2  and  C_3
REMARK    3  A    between atoms: C_3  and  C_4
REMARK    4  A    between atoms: C_10  and  C_12
REMARK    5  A    between atoms: C_12  and  C_24
REMARK                            x       y       z     vdW  Elec       q    Type
REMARK                         _______ _______ _______ _____ _____    ______ ____
ROOT
ATOM      1  C   UNL     1       0.463  -8.343   1.427  0.00  0.00    +0.258 C 
ATOM      2  C   UNL     1       1.102  -9.204   0.367  0.00  0.00    +0.270 C 
ATOM      3  O   UNL     1       2.134  -8.852  -0.164  0.00  0.00    -0.271 OA
ATOM      4  N   UNL     1       0.522 -10.370   0.013  0.00  0.00    -0.279 N 
ATOM      5  C   UNL     1      -0.733 -10.699   0.545  0.00  0.00    +0.077 A 
ATOM      6  C   UNL     1      -1.252 -11.974   0.386  0.00  0.00    +0.047 A 
ATOM      7  C   UNL     1      -2.486 -12.287   0.929  0.00  0.00    +0.043 A 
ATOM      8  C   UNL     1      -3.200 -11.330   1.629  0.00  0.00    +0.024 A 
ATOM      9  C   UNL     1      -2.688 -10.055   1.786  0.00  0.00    +0.049 A 
ATOM     10  C   UNL     1      -1.457  -9.733   1.240  0.00  0.00    +0.144 A 
ATOM     11  O   UNL     1      -0.958  -8.474   1.361  0.00  0.00    -0.465 OA
ATOM     12 CL   UNL     1      -3.139 -13.883   0.731  0.00  0.00    -0.083 Cl
ATOM     13  C   UNL     1       0.952  -8.788   2.807  0.00  0.00    +0.076 C 
ATOM     14  H   UNL     1       0.967 -10.973  -0.604  0.00  0.00    +0.155 HD
ENDROOT
BRANCH   1  21
ATOM     15  C   UNL     1       0.762  -2.018   1.233  0.00  0.00    +0.104 A 
ATOM     16  N   UNL     1       1.648  -2.848   0.720  0.00  0.00    -0.145 NA
ATOM     17  N   UNL     1       1.461  -4.093   0.833  0.00  0.00    -0.126 NA
ATOM     18  C   UNL     1       0.405  -4.586   1.449  0.00  0.00    +0.188 A 
ATOM     19  S   UNL     1      -0.403  -3.184   1.924  0.00  0.00    -0.035 S 
ATOM     20  N   UNL     1       0.052  -5.915   1.659  0.00  0.00    -0.260 N 
ATOM     21  C   UNL     1       0.846  -6.903   1.200  0.00  0.00    +0.272 C 
ATOM     22  O   UNL     1       1.867  -6.633   0.604  0.00  0.00    -0.270 OA
ATOM     23  H   UNL     1      -0.765  -6.130   2.135  0.00  0.00    +0.157 HD
BRANCH  15  24
ATOM     24  C   UNL     1       0.742  -0.511   1.242  0.00  0.00    +0.064 C 
BRANCH  24  26
ATOM     25  C   UNL     1      -0.019   1.526   0.010  0.00  0.00    +0.004 C 
ATOM     26  C   UNL     1       0.002  -0.004   0.002  0.00  0.00    +0.003 C 
ENDBRANCH  24  26
ENDBRANCH  15  24
ENDBRANCH   1  21
TORSDOF 3
