REMARK  Name = ZINC55082608
REMARK  6 active torsions:
REMARK  status: ('A' for Active; 'I' for Inactive)
REMARK    1  A    between atoms: C_1  and  C_2
REMARK    2  A    between atoms: C_2  and  C_3
REMARK    3  A    between atoms: C_3  and  N_4
REMARK    4  A    between atoms: N_8  and  N_9
REMARK    5  A    between atoms: C_10  and  C_12
REMARK    6  A    between atoms: C_14  and  C_22
REMARK                            x       y       z     vdW  Elec       q    Type
REMARK                         _______ _______ _______ _____ _____    ______ ____
ROOT
ATOM      1  N   UNL     1      -3.628  -6.205   0.982  0.00  0.00    -0.203 N 
ATOM      2  C   UNL     1      -4.140  -7.237   1.681  0.00  0.00    +0.264 C 
ATOM      3  O   UNL     1      -3.506  -7.726   2.596  0.00  0.00    -0.268 OA
ATOM      4  H   UNL     1      -4.134  -5.815   0.252  0.00  0.00    +0.178 HD
ENDROOT
BRANCH   2   5
ATOM      5  C   UNL     1      -5.473  -7.775   1.336  0.00  0.00    +0.049 A 
ATOM      6  C   UNL     1      -6.166  -7.317   0.222  0.00  0.00    +0.036 A 
ATOM      7  C   UNL     1      -7.419  -7.846  -0.074  0.00  0.00    +0.040 A 
ATOM      8  N   UNL     1      -7.973  -8.771   0.670  0.00  0.00    -0.252 NA
ATOM      9  C   UNL     1      -7.366  -9.259   1.755  0.00  0.00    +0.072 A 
ATOM     10  C   UNL     1      -6.085  -8.781   2.127  0.00  0.00    +0.013 A 
ATOM     11  C   UNL     1      -5.452  -9.301   3.263  0.00  0.00    +0.011 A 
ATOM     12  C   UNL     1      -6.073 -10.266   3.997  0.00  0.00    +0.001 A 
ATOM     13  C   UNL     1      -7.330 -10.744   3.633  0.00  0.00    +0.002 A 
ATOM     14  C   UNL     1      -7.978 -10.252   2.542  0.00  0.00    +0.028 A 
ATOM     15  C   UNL     1      -8.160  -7.340  -1.285  0.00  0.00    +0.065 C 
ENDBRANCH   2   5
BRANCH   1  20
ATOM     16  N   UNL     1      -1.444  -1.965   0.075  0.00  0.00    -0.302 NA
ATOM     17  C   UNL     1      -0.839  -2.511   1.296  0.00  0.00    +0.090 C 
ATOM     18  C   UNL     1      -0.609  -4.016   1.122  0.00  0.00    +0.068 C 
ATOM     19  C   UNL     1      -1.921  -4.652   0.714  0.00  0.00    +0.039 C 
ATOM     20  N   UNL     1      -2.365  -5.695   1.310  0.00  0.00    -0.189 NA
ATOM     21  C   UNL     1      -2.692  -4.014  -0.423  0.00  0.00    +0.068 C 
ATOM     22  C   UNL     1      -2.789  -2.509  -0.151  0.00  0.00    +0.090 C 
BRANCH  16  23
ATOM     23  C   UNL     1      -1.468  -0.497   0.110  0.00  0.00    +0.084 C 
BRANCH  23  25
ATOM     24  C   UNL     1      -0.059   1.567   0.132  0.00  0.00    +0.005 C 
ATOM     25  C   UNL     1      -0.034   0.037   0.095  0.00  0.00    +0.012 C 
ENDBRANCH  23  25
ENDBRANCH  16  23
ENDBRANCH   1  20
TORSDOF 4
