REMARK  Name = ZINC41099528
REMARK  8 active torsions:
REMARK  status: ('A' for Active; 'I' for Inactive)
REMARK    1  A    between atoms: C_1  and  C_2
REMARK    2  A    between atoms: C_5  and  N_21
REMARK    3  A    between atoms: C_7  and  C_8
REMARK    4  A    between atoms: C_8  and  O_10
REMARK    5  A    between atoms: O_10  and  C_11
REMARK    6  A    between atoms: C_11  and  C_13
REMARK    7  A    between atoms: C_11  and  C_14
REMARK    8  A    between atoms: N_19  and  C_20
REMARK                            x       y       z     vdW  Elec       q    Type
REMARK                         _______ _______ _______ _____ _____    ______ ____
ROOT
ATOM      1  C   UNL     1       0.242   0.024   2.480  0.00  0.00    +0.340 C 
ATOM      2  O   UNL     1       0.134   1.234   2.500  0.00  0.00    -0.245 OA
ENDROOT
BRANCH   1   9
ATOM      3  C   UNL     1      -0.510   1.453   0.082  0.00  0.00    +0.044 C 
ATOM      4  C   UNL     1      -0.234  -0.028   0.036  0.00  0.00    -0.036 A 
ATOM      5  C   UNL     1      -0.334  -0.713  -1.158  0.00  0.00    +0.006 A 
ATOM      6  C   UNL     1      -0.082  -2.071  -1.205  0.00  0.00    +0.023 A 
ATOM      7  C   UNL     1       0.275  -2.757  -0.050  0.00  0.00    +0.025 A 
ATOM      8  C   UNL     1       0.378  -2.079   1.155  0.00  0.00    +0.038 A 
ATOM      9  C   UNL     1       0.128  -0.707   1.202  0.00  0.00    +0.064 A 
BRANCH   7  10
ATOM     10  N   UNL     1       0.529  -4.130  -0.103  0.00  0.00    -0.358 N 
ATOM     11  H   UNL     1       0.456  -4.604  -0.946  0.00  0.00    +0.142 HD
ATOM     12  H   UNL     1       0.777  -4.608   0.703  0.00  0.00    +0.142 HD
ENDBRANCH   7  10
ENDBRANCH   1   9
BRANCH   1  13
ATOM     13  O   UNL     1       0.464  -0.651   3.625  0.00  0.00    -0.449 OA
BRANCH  13  14
ATOM     14  C   UNL     1       0.563   0.120   4.824  0.00  0.00    +0.259 C 
ATOM     15  C   UNL     1      -0.825   0.266   5.452  0.00  0.00    +0.062 C 
BRANCH  14  16
ATOM     16  C   UNL     1       1.483  -0.575   5.794  0.00  0.00    +0.261 C 
ATOM     17  O   UNL     1       2.003  -1.627   5.488  0.00  0.00    -0.271 OA
ATOM     18  N   UNL     1       1.728  -0.028   7.001  0.00  0.00    -0.237 N 
ATOM     19  C   UNL     1       2.551  -0.649   7.868  0.00  0.00    +0.306 C 
ATOM     20  O   UNL     1       3.073  -1.704   7.562  0.00  0.00    -0.252 OA
ATOM     21  N   UNL     1       2.796  -0.102   9.075  0.00  0.00    -0.302 N 
ATOM     22  C   UNL     1       3.691  -0.778  10.018  0.00  0.00    +0.129 C 
ATOM     23  H   UNL     1       1.312   0.814   7.245  0.00  0.00    +0.159 HD
ATOM     24  H   UNL     1       2.380   0.739   9.320  0.00  0.00    +0.150 HD
ENDBRANCH  14  16
ENDBRANCH  13  14
ENDBRANCH   1  13
TORSDOF 5
