REMARK  Name = ZINC15657736
REMARK  8 active torsions:
REMARK  status: ('A' for Active; 'I' for Inactive)
REMARK    1  A    between atoms: C_1  and  C_2
REMARK    2  A    between atoms: C_2  and  C_3
REMARK    3  A    between atoms: C_2  and  C_4
REMARK    4  A    between atoms: C_4  and  N_5
REMARK    5  A    between atoms: N_14  and  C1*_17
REMARK    6  A    between atoms: C3*_20  and  O3*_27
REMARK    7  A    between atoms: C4*_22  and  C5*_25
REMARK    8  A    between atoms: C5*_25  and  O5*_26
REMARK                            x       y       z     vdW  Elec       q    Type
REMARK                         _______ _______ _______ _____ _____    ______ ____
ROOT
ATOM      1  N   UNL     1       0.289  -1.473  -4.728  0.00  0.00    -0.315 N 
ATOM      2  C   UNL     1      -0.337  -0.364  -4.217  0.00  0.00    +0.198 A 
ATOM      3  N   UNL     1      -1.131   0.383  -5.034  0.00  0.00    -0.293 N 
ATOM      4  H   UNL     1      -1.250   0.118  -5.991  0.00  0.00    +0.172 HD
ATOM      5  C   UNL     1      -1.760   1.481  -4.558  0.00  0.00    +0.280 A 
ATOM      6  O   UNL     1      -2.473   2.155  -5.280  0.00  0.00    -0.265 OA
ATOM      7  C   UNL     1      -1.570   1.827  -3.199  0.00  0.00    +0.172 A 
ATOM      8  C   UNL     1      -0.742   1.020  -2.412  0.00  0.00    +0.171 A 
ATOM      9  N   UNL     1      -0.152  -0.053  -2.953  0.00  0.00    -0.196 NA
ATOM     10  N   UNL     1      -0.740   1.580  -1.163  0.00  0.00    -0.288 N 
ATOM     11  C   UNL     1      -1.546   2.681  -1.208  0.00  0.00    +0.203 A 
ATOM     12  N   UNL     1      -2.028   2.827  -2.407  0.00  0.00    -0.229 NA
ATOM     13  H   UNL     1       0.826  -1.116  -5.493  0.00  0.00    +0.149 HD
ENDROOT
BRANCH  10  14
ATOM     14  C1* UNL     1      -0.013   1.086   0.008  0.00  0.00    +0.225 C 
ATOM     15  C2* UNL     1       1.429   1.629  -0.003  0.00  0.00    +0.088 C 
ATOM     16  C3* UNL     1       1.553   2.402   1.333  0.00  0.00    +0.150 C 
ATOM     17  C4* UNL     1       0.413   1.778   2.177  0.00  0.00    +0.175 C 
ATOM     18  O4* UNL     1      -0.639   1.560   1.212  0.00  0.00    -0.348 OA
BRANCH  16  19
ATOM     19  O3* UNL     1       2.825   2.169   1.941  0.00  0.00    -0.389 OA
ATOM     20  H3* UNL     1       3.576   2.462   1.407  0.00  0.00    +0.210 HD
ENDBRANCH  16  19
BRANCH  17  21
ATOM     21  C5* UNL     1      -0.047   2.750   3.265  0.00  0.00    +0.190 C 
BRANCH  21  22
ATOM     22  O5* UNL     1      -1.014   2.109   4.099  0.00  0.00    -0.392 OA
ATOM     23  H5* UNL     1      -1.350   2.668   4.812  0.00  0.00    +0.210 HD
ENDBRANCH  21  22
ENDBRANCH  17  21
ENDBRANCH  10  14
BRANCH   1  24
ATOM     24  C   UNL     1       1.148  -2.291  -3.868  0.00  0.00    +0.107 C 
BRANCH  24  26
ATOM     25  C   UNL     1       2.712  -4.239  -3.817  0.00  0.00    +0.009 C 
ATOM     26  C   UNL     1       1.719  -3.457  -4.679  0.00  0.00    -0.000 C 
ATOM     27  C   UNL     1       0.580  -4.382  -5.112  0.00  0.00    +0.009 C 
ENDBRANCH  24  26
ENDBRANCH   1  24
TORSDOF 6
