REMARK  Name = ZINC52302343
REMARK  7 active torsions:
REMARK  status: ('A' for Active; 'I' for Inactive)
REMARK    1  A    between atoms: C_1  and  C_2
REMARK    2  A    between atoms: C_5  and  N_7
REMARK    3  A    between atoms: N_7  and  S_8
REMARK    4  A    between atoms: S_8  and  C_11
REMARK    5  A    between atoms: C_13  and  N_20
REMARK    6  A    between atoms: C_16  and  N_17
REMARK    7  A    between atoms: N_20  and  C_21
REMARK                            x       y       z     vdW  Elec       q    Type
REMARK                         _______ _______ _______ _____ _____    ______ ____
ROOT
ATOM      1  C   UNL     1       3.815  -0.169   1.744  0.00  0.00    +0.137 A 
ATOM      2  C   UNL     1       4.928   0.637   1.887  0.00  0.00    +0.053 A 
ATOM      3  C   UNL     1       5.891   0.673   0.887  0.00  0.00    +0.029 A 
ATOM      4  C   UNL     1       5.731  -0.103  -0.255  0.00  0.00    +0.025 A 
ATOM      5  C   UNL     1       4.616  -0.906  -0.392  0.00  0.00    +0.036 A 
ATOM      6  C   UNL     1       3.662  -0.943   0.609  0.00  0.00    +0.152 A 
ENDROOT
BRANCH   1   7
ATOM      7  S   UNL     1       2.593  -0.215   3.013  0.00  0.00    +0.061 S 
ATOM      8  O   UNL     1       1.341   0.006   2.378  0.00  0.00    -0.153 OA
ATOM      9  O   UNL     1       3.070   0.610   4.066  0.00  0.00    -0.153 OA
BRANCH   7  10
ATOM     10  N   UNL     1       2.558  -1.762   3.602  0.00  0.00    -0.187 NA
ATOM     11  H   UNL     1       1.759  -2.303   3.497  0.00  0.00    +0.148 HD
BRANCH  10  15
ATOM     12  C   UNL     1       3.068  -4.603   3.202  0.00  0.00    +0.009 C 
ATOM     13  C   UNL     1       4.025  -3.804   4.089  0.00  0.00    +0.006 C 
ATOM     14  C   UNL     1       3.489  -3.297   5.430  0.00  0.00    +0.025 C 
ATOM     15  C   UNL     1       3.732  -2.314   4.281  0.00  0.00    +0.080 C 
ENDBRANCH  10  15
ENDBRANCH   7  10
ENDBRANCH   1   7
BRANCH   6  16
ATOM     16  N   UNL     1       2.470  -1.809   0.461  0.00  0.00    +0.058 N 
ATOM     17  O   UNL     1       2.269  -2.387  -0.582  0.00  0.00    -0.126 OA
ATOM     18  O   UNL     1       1.699  -1.939   1.383  0.00  0.00    -0.126 OA
ENDBRANCH   6  16
BRANCH   3  19
ATOM     19  N   UNL     1       7.017   1.486   1.028  0.00  0.00    -0.347 N 
ATOM     20  C   UNL     1       8.032   1.523  -0.028  0.00  0.00    +0.125 C 
ATOM     21  H   UNL     1       7.127   2.027   1.826  0.00  0.00    +0.146 HD
ENDBRANCH   3  19
TORSDOF 5
