REMARK  Name = ZINC01639432
REMARK  5 active torsions:
REMARK  status: ('A' for Active; 'I' for Inactive)
REMARK    1  A    between atoms: N_7  and  C_10
REMARK    2  A    between atoms: C_13  and  C_17
REMARK    3  A    between atoms: C_17  and  O_18
REMARK    4  A    between atoms: O_18  and  S_19
REMARK    5  A    between atoms: S_19  and  N_22
REMARK                            x       y       z     vdW  Elec       q    Type
REMARK                         _______ _______ _______ _____ _____    ______ ____
ROOT
ATOM      1  C   UNL     1       2.832   4.558  -1.409  0.00  0.00    +0.113 C 
ATOM      2  C   UNL     1       2.529   4.310   0.087  0.00  0.00    +0.039 C 
ATOM      3  C   UNL     1       1.137   3.640   0.011  0.00  0.00    +0.042 C 
ATOM      4  C   UNL     1       0.548   4.122  -1.294  0.00  0.00    -0.023 C 
ATOM      5  C   UNL     1       1.474   4.623  -2.069  0.00  0.00    -0.006 C 
ENDROOT
BRANCH   1  12
ATOM      6  C   UNL     1       6.842   5.642  -3.108  0.00  0.00    +0.225 A 
ATOM      7  N   UNL     1       7.138   6.929  -3.087  0.00  0.00    -0.219 NA
ATOM      8  C   UNL     1       6.287   7.822  -2.592  0.00  0.00    +0.147 A 
ATOM      9  C   UNL     1       5.058   7.367  -2.086  0.00  0.00    +0.147 A 
ATOM     10  C   UNL     1       4.794   5.988  -2.125  0.00  0.00    +0.166 A 
ATOM     11  N   UNL     1       5.704   5.171  -2.645  0.00  0.00    -0.216 NA
ATOM     12  N   UNL     1       3.545   5.827  -1.581  0.00  0.00    -0.308 N 
ATOM     13  C   UNL     1       3.091   7.062  -1.226  0.00  0.00    +0.202 A 
ATOM     14  N   UNL     1       3.980   7.964  -1.523  0.00  0.00    -0.231 NA
ATOM     15  N   UNL     1       6.606   9.169  -2.575  0.00  0.00    -0.341 N 
ATOM     16  H   UNL     1       5.930   9.678  -3.108  0.00  0.00    +0.144 HD
ATOM     17  H   UNL     1       7.458   9.470  -2.927  0.00  0.00    +0.144 HD
ENDBRANCH   1  12
BRANCH   3  18
ATOM     18  C   UNL     1       1.279   2.117   0.001  0.00  0.00    +0.202 C 
BRANCH  18  19
ATOM     19  O   UNL     1      -0.019   1.518   0.010  0.00  0.00    -0.225 OA
BRANCH  19  20
ATOM     20  S   UNL     1       0.002  -0.004   0.002  0.00  0.00    +0.148 S 
ATOM     21  O   UNL     1      -1.340  -0.427  -0.197  0.00  0.00    -0.130 OA
ATOM     22  O   UNL     1       1.060  -0.391  -0.865  0.00  0.00    -0.130 OA
BRANCH  20  23
ATOM     23  N   UNL     1       0.433  -0.496   1.523  0.00  0.00    -0.183 NA
ATOM     24  H   UNL     1       0.615   0.162   2.213  0.00  0.00    +0.146 HD
ATOM     25  H   UNL     1       0.503  -1.442   1.725  0.00  0.00    +0.146 HD
ENDBRANCH  20  23
ENDBRANCH  19  20
ENDBRANCH  18  19
ENDBRANCH   3  18
TORSDOF 5
