REMARK  Name = ZINC09066209
REMARK  9 active torsions:
REMARK  status: ('A' for Active; 'I' for Inactive)
REMARK    1  A    between atoms: C_1  and  C_2
REMARK    2  A    between atoms: C_2  and  C_3
REMARK    3  A    between atoms: C_2  and  C_4
REMARK    4  A    between atoms: C_4  and  C_5
REMARK    5  A    between atoms: C_5  and  N_6
REMARK    6  A    between atoms: C_7  and  C_9
REMARK    7  A    between atoms: C_9  and  C_10
REMARK    8  A    between atoms: C_10  and  N_11
REMARK    9  A    between atoms: C_16  and  O_24
REMARK                            x       y       z     vdW  Elec       q    Type
REMARK                         _______ _______ _______ _____ _____    ______ ____
ROOT
ATOM      1  N   UNL     1      -7.813  -1.029  -3.602  0.00  0.00    -0.299 N 
ATOM      2  C   UNL     1      -8.626  -0.794  -4.651  0.00  0.00    +0.307 C 
ATOM      3  O   UNL     1      -8.219  -0.161  -5.605  0.00  0.00    -0.252 OA
ATOM      4  N   UNL     1      -9.890  -1.261  -4.641  0.00  0.00    -0.245 N 
ATOM      5  C   UNL     1     -10.418  -2.025  -3.499  0.00  0.00    +0.210 C 
ATOM      6  C   UNL     1     -11.265  -3.158  -4.018  0.00  0.00    +0.206 C 
ATOM      7  N   UNL     1     -11.873  -3.086  -5.159  0.00  0.00    -0.214 NA
ATOM      8  C   UNL     1     -11.770  -1.982  -5.962  0.00  0.00    +0.089 A 
ATOM      9  C   UNL     1     -10.763  -1.034  -5.716  0.00  0.00    +0.064 A 
ATOM     10  C   UNL     1     -10.643   0.084  -6.518  0.00  0.00    +0.026 A 
ATOM     11  C   UNL     1     -11.527   0.276  -7.566  0.00  0.00    +0.002 A 
ATOM     12  C   UNL     1     -12.528  -0.647  -7.812  0.00  0.00    +0.002 A 
ATOM     13  C   UNL     1     -12.653  -1.781  -7.020  0.00  0.00    +0.030 A 
ATOM     14  H   UNL     1      -8.138  -1.534  -2.840  0.00  0.00    +0.150 HD
ENDROOT
BRANCH   6  15
ATOM     15  O   UNL     1     -11.393  -4.277  -3.275  0.00  0.00    -0.494 OA
ATOM     16  H   UNL     1     -11.952  -4.955  -3.678  0.00  0.00    +0.293 HD
ENDBRANCH   6  15
BRANCH   1  17
ATOM     17  C   UNL     1      -6.438  -0.522  -3.612  0.00  0.00    +0.115 C 
BRANCH  17  18
ATOM     18  C   UNL     1      -5.737  -0.925  -2.313  0.00  0.00    +0.114 C 
BRANCH  18  20
ATOM     19  N   UNL     1      -3.510  -0.638  -1.275  0.00  0.00    -0.315 N 
ATOM     20  C   UNL     1      -4.323  -0.403  -2.324  0.00  0.00    +0.215 C 
ATOM     21  O   UNL     1      -3.916   0.228  -3.277  0.00  0.00    -0.276 OA
ATOM     22  H   UNL     1      -3.834  -1.143  -0.513  0.00  0.00    +0.149 HD
BRANCH  19  23
ATOM     23  C   UNL     1      -2.135  -0.131  -1.286  0.00  0.00    +0.104 C 
BRANCH  23  24
ATOM     24  C   UNL     1      -1.433  -0.534   0.013  0.00  0.00    +0.022 C 
BRANCH  24  26
ATOM     25  C   UNL     1      -0.019   1.526   0.010  0.00  0.00    +0.007 C 
ATOM     26  C   UNL     1       0.002  -0.004   0.002  0.00  0.00    -0.016 C 
ATOM     27  C   UNL     1       0.742  -0.511   1.242  0.00  0.00    +0.007 C 
ENDBRANCH  24  26
ENDBRANCH  23  24
ENDBRANCH  19  23
ENDBRANCH  18  20
ENDBRANCH  17  18
ENDBRANCH   1  17
TORSDOF 7
