REMARK  Name = ZINC39669789
REMARK  12 active torsions:
REMARK  status: ('A' for Active; 'I' for Inactive)
REMARK    1  A    between atoms: C_1  and  C_2
REMARK    2  A    between atoms: C_2  and  C_3
REMARK    3  A    between atoms: C_2  and  C_4
REMARK    4  A    between atoms: C_4  and  C_6
REMARK    5  A    between atoms: C_4  and  O_32
REMARK    6  A    between atoms: C_10  and  C_19
REMARK    7  A    between atoms: N_21  and  C_22
REMARK    8  A    between atoms: C_22  and  C_23
REMARK    9  A    between atoms: C_23  and  C_24
REMARK   10  A    between atoms: C_23  and  C_25
REMARK   11  A    between atoms: C_23  and  N_26
REMARK   12  A    between atoms: O_32  and  C_33
REMARK                            x       y       z     vdW  Elec       q    Type
REMARK                         _______ _______ _______ _____ _____    ______ ____
ROOT
ATOM      1  C   UNL     1      -1.211  -0.784  -0.689  0.00  0.00    +0.257 C 
ATOM      2  O   UNL     1      -1.604  -1.060  -1.802  0.00  0.00    -0.272 OA
ATOM      3  N   UNL     1      -0.622  -1.729   0.071  0.00  0.00    -0.297 N 
ATOM      4  C   UNL     1      -0.177  -1.614   1.480  0.00  0.00    +0.121 C 
ATOM      5  C   UNL     1      -0.541  -2.974   2.116  0.00  0.00    +0.100 C 
ATOM      6  C   UNL     1      -0.600  -3.957   0.934  0.00  0.00    -0.004 C 
ATOM      7  C   UNL     1      -0.278  -3.119  -0.312  0.00  0.00    +0.115 C 
ATOM      8  C   UNL     1       0.438  -5.061   1.113  0.00  0.00    -0.010 C 
ATOM      9  C   UNL     1       0.320  -6.057  -0.045  0.00  0.00    -0.082 C 
ATOM     10  N   UNL     1      -1.032  -6.628  -0.066  0.00  0.00    +0.379 N 
ATOM     11  C   UNL     1      -2.017  -5.572  -0.331  0.00  0.00    -0.082 C 
ATOM     12  C   UNL     1      -1.998  -4.555   0.815  0.00  0.00    -0.010 C 
ATOM     13  H   UNL     1      -1.088  -7.328  -0.791  0.00  0.00    -0.086 HD
ATOM     14  H   UNL     1      -1.230  -7.054   0.826  0.00  0.00    -0.086 HD
ENDROOT
BRANCH   5  15
ATOM     15  C   UNL     1      -1.881  -2.892   2.801  0.00  0.00    +0.218 C 
ATOM     16  O   UNL     1      -2.747  -2.170   2.354  0.00  0.00    -0.275 OA
ATOM     17  N   UNL     1      -2.117  -3.621   3.909  0.00  0.00    -0.313 N 
ATOM     18  H   UNL     1      -1.403  -4.143   4.308  0.00  0.00    +0.149 HD
BRANCH  17  19
ATOM     19  C   UNL     1      -3.452  -3.625   4.513  0.00  0.00    +0.126 C 
BRANCH  19  20
ATOM     20  C   UNL     1      -3.418  -4.420   5.820  0.00  0.00    +0.032 C 
ATOM     21  C   UNL     1      -2.534  -3.694   6.835  0.00  0.00    +0.029 C 
ATOM     22  C   UNL     1      -4.838  -4.545   6.377  0.00  0.00    +0.029 C 
BRANCH  20  23
ATOM     23  N   UNL     1      -2.873  -5.760   5.564  0.00  0.00    -0.291 NA
ATOM     24  C   UNL     1      -3.639  -6.450   4.517  0.00  0.00    +0.113 C 
ATOM     25  C   UNL     1      -3.002  -7.815   4.241  0.00  0.00    +0.175 C 
ATOM     26  O   UNL     1      -2.950  -8.565   5.457  0.00  0.00    -0.377 OA
ATOM     27  C   UNL     1      -2.211  -7.923   6.499  0.00  0.00    +0.175 C 
ATOM     28  C   UNL     1      -2.840  -6.559   6.798  0.00  0.00    +0.113 C 
ENDBRANCH  20  23
ENDBRANCH  19  20
ENDBRANCH  17  19
ENDBRANCH   5  15
BRANCH   1  29
ATOM     29  C   UNL     1      -1.381   0.615  -0.154  0.00  0.00    +0.261 C 
BRANCH  29  31
ATOM     30  C   UNL     1      -2.928   2.165   1.047  0.00  0.00    +0.011 C 
ATOM     31  C   UNL     1      -2.765   0.752   0.483  0.00  0.00    +0.033 C 
ATOM     32  C   UNL     1      -3.841   0.498  -0.575  0.00  0.00    +0.011 C 
ENDBRANCH  29  31
BRANCH  29  33
ATOM     33  O   UNL     1      -0.376   0.875   0.828  0.00  0.00    -0.479 OA
BRANCH  33  34
ATOM     34  C   UNL     1       0.847   1.256   0.374  0.00  0.00    +0.122 A 
ATOM     35  C   UNL     1       1.076   1.374  -0.989  0.00  0.00    +0.045 A 
ATOM     36  C   UNL     1       2.320   1.762  -1.448  0.00  0.00    +0.004 A 
ATOM     37  C   UNL     1       3.336   2.031  -0.549  0.00  0.00    +0.000 A 
ATOM     38  C   UNL     1       3.110   1.914   0.809  0.00  0.00    +0.004 A 
ATOM     39  C   UNL     1       1.866   1.532   1.274  0.00  0.00    +0.045 A 
ENDBRANCH  33  34
ENDBRANCH  29  33
ENDBRANCH   1  29
TORSDOF 8
