REMARK  Name = ZINC66714326
REMARK  10 active torsions:
REMARK  status: ('A' for Active; 'I' for Inactive)
REMARK    1  A    between atoms: C_1  and  C_2
REMARK    2  A    between atoms: C_5  and  N_11
REMARK    3  A    between atoms: C_7  and  C_8
REMARK    4  A    between atoms: C_12  and  C_14
REMARK    5  A    between atoms: C_14  and  C_16
REMARK    6  A    between atoms: C_14  and  N_20
REMARK    7  A    between atoms: C_16  and  C_17
REMARK    8  A    between atoms: C_17  and  S_18
REMARK    9  A    between atoms: S_18  and  C_19
REMARK   10  A    between atoms: C_21  and  C_23
REMARK                            x       y       z     vdW  Elec       q    Type
REMARK                         _______ _______ _______ _____ _____    ______ ____
ROOT
ATOM      1  N   UNL     1       0.329  -4.132   0.477  0.00  0.00    -0.284 N 
ATOM      2  C   UNL     1       0.288  -4.999  -0.554  0.00  0.00    +0.238 C 
ATOM      3  O   UNL     1       0.026  -4.602  -1.670  0.00  0.00    -0.273 OA
ATOM      4  H   UNL     1       0.464  -4.459   1.380  0.00  0.00    +0.155 HD
ENDROOT
BRANCH   1   9
ATOM      5  C   UNL     1      -0.274   1.435  -0.496  0.00  0.00    +0.044 C 
ATOM      6  C   UNL     1      -0.116  -0.041  -0.235  0.00  0.00    -0.038 A 
ATOM      7  C   UNL     1       0.522  -0.841  -1.161  0.00  0.00    +0.006 A 
ATOM      8  C   UNL     1       0.670  -2.195  -0.926  0.00  0.00    +0.023 A 
ATOM      9  C   UNL     1       0.177  -2.760   0.244  0.00  0.00    +0.034 A 
ATOM     10  C   UNL     1      -0.464  -1.966   1.181  0.00  0.00    +0.036 A 
ATOM     11  C   UNL     1      -0.609  -0.598   0.946  0.00  0.00    +0.041 A 
BRANCH  11  12
ATOM     12  C   UNL     1      -1.287   0.258   1.943  0.00  0.00    +0.242 C 
ATOM     13  O   UNL     1      -1.310   1.464   1.794  0.00  0.00    -0.270 OA
ATOM     14  N   UNL     1      -1.880  -0.299   3.018  0.00  0.00    -0.325 N 
ATOM     15  H   UNL     1      -1.861  -1.262   3.137  0.00  0.00    +0.145 HD
ATOM     16  H   UNL     1      -2.325   0.262   3.672  0.00  0.00    +0.145 HD
ENDBRANCH  11  12
ENDBRANCH   1   9
BRANCH   2  17
ATOM     17  C   UNL     1       0.567  -6.462  -0.321  0.00  0.00    +0.160 C 
BRANCH  17  18
ATOM     18  N   UNL     1       0.460  -7.188  -1.589  0.00  0.00    -0.297 N 
ATOM     19  C   UNL     1       1.126  -8.347  -1.760  0.00  0.00    +0.280 C 
ATOM     20  O   UNL     1       1.815  -8.791  -0.860  0.00  0.00    -0.267 OA
ATOM     21  H   UNL     1      -0.089  -6.834  -2.306  0.00  0.00    +0.150 HD
BRANCH  19  22
ATOM     22  C   UNL     1       1.019  -9.074  -3.029  0.00  0.00    +0.189 A 
ATOM     23  C   UNL     1       1.633 -10.256  -3.331  0.00  0.00    +0.054 A 
ATOM     24  C   UNL     1       1.254 -10.584  -4.642  0.00  0.00    +0.042 A 
ATOM     25  C   UNL     1       0.436  -9.600  -5.077  0.00  0.00    +0.196 A 
ATOM     26  O   UNL     1       0.293  -8.695  -4.101  0.00  0.00    -0.458 OA
ENDBRANCH  19  22
ENDBRANCH  17  18
BRANCH  17  27
ATOM     27  C   UNL     1      -0.451  -7.022   0.675  0.00  0.00    +0.042 C 
BRANCH  27  28
ATOM     28  C   UNL     1      -0.094  -8.472   1.007  0.00  0.00    +0.071 C 
BRANCH  28  29
ATOM     29  S   UNL     1      -1.300  -9.137   2.187  0.00  0.00    -0.164 S 
ATOM     30  C   UNL     1      -0.742 -10.839   2.474  0.00  0.00    +0.084 C 
ENDBRANCH  28  29
ENDBRANCH  27  28
ENDBRANCH  17  27
ENDBRANCH   2  17
TORSDOF 8
