REMARK  Name = ZINC38051302
REMARK  4 active torsions:
REMARK  status: ('A' for Active; 'I' for Inactive)
REMARK    1  A    between atoms: C_1  and  C_2
REMARK    2  A    between atoms: C_6  and  S_8
REMARK    3  A    between atoms: S_8  and  N_11
REMARK    4  A    between atoms: C_18  and  N_21
REMARK                            x       y       z     vdW  Elec       q    Type
REMARK                         _______ _______ _______ _____ _____    ______ ____
ROOT
ATOM      1  N   UNL     1       1.639  -3.319   3.054  0.00  0.00    -0.201 N 
ATOM      2  C   UNL     1       2.236  -4.510   2.458  0.00  0.00    +0.142 C 
ATOM      3  C   UNL     1       2.833  -5.376   3.578  0.00  0.00    +0.095 C 
ATOM      4  S   UNL     1       4.198  -4.440   4.329  0.00  0.00    -0.122 S 
ATOM      5  C   UNL     1       3.510  -2.830   4.552  0.00  0.00    +0.031 A 
ATOM      6  C   UNL     1       2.340  -2.455   3.896  0.00  0.00    +0.066 A 
ATOM      7  C   UNL     1       1.833  -1.172   4.085  0.00  0.00    +0.048 A 
ATOM      8  C   UNL     1       2.485  -0.276   4.917  0.00  0.00    +0.026 A 
ATOM      9  C   UNL     1       3.651  -0.654   5.569  0.00  0.00    +0.024 A 
ATOM     10  C   UNL     1       4.158  -1.932   5.391  0.00  0.00    +0.018 A 
ENDROOT
BRANCH   1  11
ATOM     11  S   UNL     1       0.057  -2.973   2.709  0.00  0.00    +0.075 S 
ATOM     12  O   UNL     1      -0.455  -2.255   3.823  0.00  0.00    -0.150 OA
ATOM     13  O   UNL     1      -0.531  -4.181   2.246  0.00  0.00    -0.150 OA
BRANCH  11  19
ATOM     14  C   UNL     1      -0.205   1.861   0.737  0.00  0.00    +0.044 C 
ATOM     15  C   UNL     1      -0.073   0.379   0.497  0.00  0.00    -0.049 A 
ATOM     16  C   UNL     1       0.045  -0.104  -0.793  0.00  0.00    +0.003 A 
ATOM     17  C   UNL     1       0.166  -1.464  -1.014  0.00  0.00    +0.002 A 
ATOM     18  C   UNL     1       0.169  -2.340   0.056  0.00  0.00    +0.029 A 
ATOM     19  C   UNL     1       0.052  -1.857   1.346  0.00  0.00    +0.109 A 
ATOM     20  C   UNL     1      -0.064  -0.497   1.566  0.00  0.00    +0.032 A 
ENDBRANCH  11  19
ENDBRANCH   1  11
BRANCH   8  21
ATOM     21  N   UNL     1       1.968   1.012   5.101  0.00  0.00    -0.358 N 
ATOM     22  H   UNL     1       1.153   1.277   4.645  0.00  0.00    +0.142 HD
ATOM     23  H   UNL     1       2.424   1.640   5.683  0.00  0.00    +0.142 HD
ENDBRANCH   8  21
TORSDOF 3
