REMARK  Name = ZINC40084377
REMARK  15 active torsions:
REMARK  status: ('A' for Active; 'I' for Inactive)
REMARK    1  A    between atoms: C_1  and  C_2
REMARK    2  A    between atoms: C_2  and  O_3
REMARK    3  A    between atoms: O_3  and  C_4
REMARK    4  A    between atoms: C_6  and  C_11
REMARK    5  A    between atoms: C_9  and  O_10
REMARK    6  A    between atoms: C_13  and  C_22
REMARK    7  A    between atoms: N_17  and  C_18
REMARK    8  A    between atoms: C_18  and  C_19
REMARK    9  A    between atoms: C_19  and  O_20
REMARK   10  A    between atoms: C_22  and  C_24
REMARK   11  A    between atoms: C_27  and  O_31
REMARK   12  A    between atoms: C_29  and  C_30
REMARK   13  A    between atoms: O_31  and  C_32
REMARK   14  A    between atoms: C_32  and  C_33
REMARK   15  A    between atoms: C_32  and  C_34
REMARK                            x       y       z     vdW  Elec       q    Type
REMARK                         _______ _______ _______ _____ _____    ______ ____
ROOT
ATOM      1  C   UNL     1       1.085  -3.697  -0.096  0.00  0.00    +0.145 C 
ATOM      2  C   UNL     1       1.104  -4.664  -1.256  0.00  0.00    +0.076 C 
ATOM      3  C   UNL     1       0.496  -5.796  -0.831  0.00  0.00    +0.249 C 
ATOM      4  C   UNL     1       0.071  -5.620   0.574  0.00  0.00    +0.288 C 
ATOM      5  O   UNL     1      -0.503  -6.460   1.239  0.00  0.00    -0.266 OA
ATOM      6  N   UNL     1       0.414  -4.393   1.008  0.00  0.00    -0.281 N 
ATOM      7  O   UNL     1       0.307  -6.911  -1.573  0.00  0.00    -0.282 OA
ENDROOT
BRANCH   1  10
ATOM      8  C   UNL     1       0.273  -0.107  -0.948  0.00  0.00    +0.162 A 
ATOM      9  C   UNL     1       0.978  -1.249  -0.605  0.00  0.00    +0.055 A 
ATOM     10  C   UNL     1       0.316  -2.455  -0.469  0.00  0.00    -0.019 A 
ATOM     11  C   UNL     1      -1.049  -2.525  -0.675  0.00  0.00    +0.009 A 
ATOM     12  C   UNL     1      -1.758  -1.390  -1.018  0.00  0.00    +0.049 A 
ATOM     13  C   UNL     1      -1.102  -0.176  -1.150  0.00  0.00    +0.158 A 
BRANCH  13  14
ATOM     14  O   UNL     1      -1.800   0.943  -1.481  0.00  0.00    -0.503 OA
ATOM     15  H   UNL     1      -1.867   1.097  -2.433  0.00  0.00    +0.292 HD
ENDBRANCH  13  14
BRANCH   8  16
ATOM     16  O   UNL     1       0.922   1.081  -1.081  0.00  0.00    -0.489 OA
BRANCH  16  18
ATOM     17  C   UNL     1       2.888   2.486  -1.054  0.00  0.00    +0.048 C 
ATOM     18  C   UNL     1       2.346   1.058  -0.962  0.00  0.00    +0.226 C 
ENDBRANCH  16  18
ENDBRANCH   8  16
ENDBRANCH   1  10
BRANCH   2  19
ATOM     19  C   UNL     1       1.672  -4.423  -2.587  0.00  0.00    +0.195 C 
ATOM     20  O   UNL     1       2.191  -3.353  -2.842  0.00  0.00    -0.287 OA
BRANCH  19  21
ATOM     21  C   UNL     1       1.613  -5.480  -3.616  0.00  0.00    +0.025 A 
ATOM     22  C   UNL     1       0.695  -5.385  -4.667  0.00  0.00    +0.015 A 
ATOM     23  C   UNL     1       0.644  -6.372  -5.624  0.00  0.00    +0.046 A 
ATOM     24  C   UNL     1       1.504  -7.462  -5.549  0.00  0.00    +0.121 A 
ATOM     25  C   UNL     1       2.418  -7.561  -4.506  0.00  0.00    +0.049 A 
ATOM     26  C   UNL     1       2.480  -6.575  -3.547  0.00  0.00    -0.036 A 
ATOM     27  C   UNL     1       3.476  -6.679  -2.421  0.00  0.00    +0.044 C 
BRANCH  24  28
ATOM     28  O   UNL     1       1.450  -8.433  -6.495  0.00  0.00    -0.489 OA
BRANCH  28  29
ATOM     29  C   UNL     1       0.443  -8.304  -7.501  0.00  0.00    +0.167 C 
ATOM     30  C   UNL     1       0.940  -7.365  -8.602  0.00  0.00    +0.051 C 
ATOM     31  C   UNL     1       0.142  -9.679  -8.101  0.00  0.00    +0.051 C 
ENDBRANCH  28  29
ENDBRANCH  24  28
ENDBRANCH  19  21
ENDBRANCH   2  19
BRANCH   6  32
ATOM     32  C   UNL     1       0.163  -3.848   2.345  0.00  0.00    +0.137 C 
BRANCH  32  33
ATOM     33  C   UNL     1      -1.196  -3.145   2.362  0.00  0.00    +0.175 C 
BRANCH  33  34
ATOM     34  O   UNL     1      -2.232  -4.105   2.144  0.00  0.00    -0.393 OA
ATOM     35  H   UNL     1      -3.122  -3.728   2.142  0.00  0.00    +0.209 HD
ENDBRANCH  33  34
ENDBRANCH  32  33
ENDBRANCH   6  32
TORSDOF 11
