REMARK  Name = ZINC09108915
REMARK  7 active torsions:
REMARK  status: ('A' for Active; 'I' for Inactive)
REMARK    1  A    between atoms: C_1  and  O_2
REMARK    2  A    between atoms: O_2  and  C_3
REMARK    3  A    between atoms: C_5  and  C_10
REMARK    4  A    between atoms: C_8  and  O_9
REMARK    5  A    between atoms: N_11  and  N_12
REMARK    6  A    between atoms: C_13  and  C_15
REMARK    7  A    between atoms: C_17  and  C_21
REMARK                            x       y       z     vdW  Elec       q    Type
REMARK                         _______ _______ _______ _____ _____    ______ ____
ROOT
ATOM      1  N   UNL     1      -7.189   0.358   0.056  0.00  0.00    -0.202 N 
ATOM      2  C   UNL     1      -8.379  -0.275   0.064  0.00  0.00    +0.281 C 
ATOM      3  O   UNL     1      -8.421  -1.491   0.063  0.00  0.00    -0.267 OA
ATOM      4  H   UNL     1      -7.156   1.327   0.057  0.00  0.00    +0.178 HD
ENDROOT
BRANCH   2   5
ATOM      5  C   UNL     1      -9.627   0.504   0.075  0.00  0.00    +0.122 A 
ATOM      6  C   UNL     1     -10.908  -0.005   0.089  0.00  0.00    +0.063 A 
ATOM      7  C   UNL     1     -11.797   1.082   0.095  0.00  0.00    +0.100 A 
ATOM      8  N   UNL     1     -11.092   2.197   0.085  0.00  0.00    -0.173 NA
ATOM      9  N   UNL     1      -9.731   1.868   0.078  0.00  0.00    -0.272 N 
ATOM     10  H   UNL     1      -8.992   2.496   0.074  0.00  0.00    +0.189 HD
BRANCH   7  11
ATOM     11  C   UNL     1     -13.273   0.992   0.110  0.00  0.00    +0.041 A 
ATOM     12  C   UNL     1     -14.198   2.000   0.111  0.00  0.00    +0.019 A 
ATOM     13  C   UNL     1     -15.537   1.671   0.125  0.00  0.00    +0.028 A 
ATOM     14  C   UNL     1     -15.896   0.361   0.138  0.00  0.00    +0.079 A 
ATOM     15  S   UNL     1     -14.311  -0.460   0.123  0.00  0.00    -0.075 S 
ATOM     16 CL   UNL     1     -17.486  -0.335   0.159  0.00  0.00    -0.076 Cl
ENDBRANCH   7  11
ENDBRANCH   2   5
BRANCH   1  18
ATOM     17  C   UNL     1      -4.855   0.225   0.038  0.00  0.00    +0.138 C 
ATOM     18  N   UNL     1      -6.001  -0.384   0.046  0.00  0.00    -0.187 NA
BRANCH  17  21
ATOM     19  C   UNL     1      -1.201  -0.638   0.010  0.00  0.00    +0.162 A 
ATOM     20  C   UNL     1      -2.370   0.099   0.019  0.00  0.00    +0.058 A 
ATOM     21  C   UNL     1      -3.605  -0.555   0.028  0.00  0.00    -0.002 A 
ATOM     22  C   UNL     1      -3.651  -1.952   0.026  0.00  0.00    +0.013 A 
ATOM     23  C   UNL     1      -2.481  -2.680   0.017  0.00  0.00    +0.050 A 
ATOM     24  C   UNL     1      -1.255  -2.030   0.003  0.00  0.00    +0.158 A 
BRANCH  19  26
ATOM     25  C   UNL     1      -0.017   1.425   0.010  0.00  0.00    +0.277 C 
ATOM     26  O   UNL     1       0.002  -0.004   0.002  0.00  0.00    -0.491 OA
ENDBRANCH  19  26
BRANCH  24  27
ATOM     27  O   UNL     1      -0.104  -2.753  -0.012  0.00  0.00    -0.503 OA
ATOM     28  H   UNL     1       0.237  -2.967   0.867  0.00  0.00    +0.292 HD
ENDBRANCH  24  27
ENDBRANCH  17  21
ENDBRANCH   1  18
TORSDOF 6
