REMARK  Name = ZINC66978695
REMARK  8 active torsions:
REMARK  status: ('A' for Active; 'I' for Inactive)
REMARK    1  A    between atoms: C_1  and  O_2
REMARK    2  A    between atoms: O_2  and  C_3
REMARK    3  A    between atoms: C_3  and  C_4
REMARK    4  A    between atoms: C_4  and  N_5
REMARK    5  A    between atoms: C_9  and  N_12
REMARK    6  A    between atoms: C_18  and  N_21
REMARK    7  A    between atoms: C_22  and  C_24
REMARK    8  A    between atoms: C_24  and  C_25
REMARK                            x       y       z     vdW  Elec       q    Type
REMARK                         _______ _______ _______ _____ _____    ______ ____
ROOT
ATOM      1  N   UNL     1       0.279  -5.730   2.902  0.00  0.00    -0.298 N 
ATOM      2  C   UNL     1       0.264  -6.316   4.116  0.00  0.00    +0.302 C 
ATOM      3  O   UNL     1       0.047  -5.650   5.110  0.00  0.00    -0.253 OA
ATOM      4  N   UNL     1       0.488  -7.640   4.227  0.00  0.00    -0.286 N 
ATOM      5  C   UNL     1       0.651  -8.475   3.029  0.00  0.00    +0.111 C 
ATOM      6  C   UNL     1      -0.335  -9.646   3.106  0.00  0.00    +0.041 C 
ATOM      7  C   UNL     1      -0.131 -10.393   4.426  0.00  0.00    +0.076 C 
ATOM      8  C   UNL     1      -0.410  -9.449   5.597  0.00  0.00    +0.041 C 
ATOM      9  C   UNL     1       0.580  -8.275   5.549  0.00  0.00    +0.111 C 
ATOM     10  H   UNL     1       0.380  -6.271   2.103  0.00  0.00    +0.150 HD
ENDROOT
BRANCH   1  15
ATOM     11  N   UNL     1      -0.551  -2.461   1.296  0.00  0.00    +0.382 N 
ATOM     12  C   UNL     1       0.771  -1.831   1.388  0.00  0.00    -0.079 C 
ATOM     13  C   UNL     1       1.378  -2.107   2.765  0.00  0.00    -0.017 C 
ATOM     14  C   UNL     1       1.518  -3.620   2.961  0.00  0.00    +0.018 C 
ATOM     15  C   UNL     1       0.144  -4.275   2.790  0.00  0.00    +0.058 C 
ATOM     16  C   UNL     1      -0.417  -3.918   1.412  0.00  0.00    -0.056 C 
ATOM     17  H   UNL     1      -1.137  -2.118   2.043  0.00  0.00    -0.082 HD
BRANCH  11  18
ATOM     18  C   UNL     1      -1.162  -2.128   0.003  0.00  0.00    -0.050 C 
BRANCH  18  19
ATOM     19  C   UNL     1      -2.600  -2.649  -0.031  0.00  0.00    +0.141 C 
BRANCH  19  21
ATOM     20  C   UNL     1      -4.735  -2.406   1.031  0.00  0.00    +0.193 C 
ATOM     21  O   UNL     1      -3.369  -1.990   0.977  0.00  0.00    -0.385 OA
ENDBRANCH  19  21
ENDBRANCH  18  19
ENDBRANCH  11  18
ENDBRANCH   1  15
BRANCH   7  22
ATOM     22  N   UNL     1      -1.050 -11.533   4.488  0.00  0.00    -0.312 N 
ATOM     23  C   UNL     1      -0.748 -12.600   5.254  0.00  0.00    +0.214 C 
ATOM     24  O   UNL     1       0.283 -12.617   5.892  0.00  0.00    -0.276 OA
ATOM     25  H   UNL     1      -1.874 -11.519   3.978  0.00  0.00    +0.149 HD
BRANCH  23  26
ATOM     26  C   UNL     1      -1.693 -13.772   5.318  0.00  0.00    +0.099 C 
BRANCH  26  27
ATOM     27  C   UNL     1      -1.118 -14.840   6.251  0.00  0.00    -0.002 C 
ATOM     28  C   UNL     1       0.149 -15.460   5.627  0.00  0.00    +0.004 C 
ATOM     29  C   UNL     1       0.073 -16.956   6.020  0.00  0.00    +0.000 C 
ATOM     30  C   UNL     1      -1.440 -17.265   5.900  0.00  0.00    +0.000 C 
ATOM     31  C   UNL     1      -2.129 -15.988   6.424  0.00  0.00    +0.004 C 
ENDBRANCH  26  27
ENDBRANCH  23  26
ENDBRANCH   7  22
TORSDOF 7
