REMARK  Name = ZINC40495156
REMARK  11 active torsions:
REMARK  status: ('A' for Active; 'I' for Inactive)
REMARK    1  A    between atoms: C_1  and  C_2
REMARK    2  A    between atoms: C_4  and  S_12
REMARK    3  A    between atoms: C_7  and  C_8
REMARK    4  A    between atoms: C_9  and  C_10
REMARK    5  A    between atoms: C_10  and  O_11
REMARK    6  A    between atoms: S_12  and  N_15
REMARK    7  A    between atoms: N_15  and  C_16
REMARK    8  A    between atoms: C_16  and  C_17
REMARK    9  A    between atoms: C_17  and  C_18
REMARK   10  A    between atoms: C_17  and  C_19
REMARK   11  A    between atoms: C_17  and  C_20
REMARK                            x       y       z     vdW  Elec       q    Type
REMARK                         _______ _______ _______ _____ _____    ______ ____
ROOT
ATOM      1  C   UNL     1      -0.018   1.503   0.010  0.00  0.00    +0.045 C 
ATOM      2  C   UNL     1       0.002  -0.004   0.002  0.00  0.00    -0.033 A 
ATOM      3  C   UNL     1       0.006  -0.689  -1.196  0.00  0.00    +0.033 A 
ATOM      4  C   UNL     1       0.025  -2.072  -1.205  0.00  0.00    +0.106 A 
ATOM      5  C   UNL     1       0.040  -2.778  -0.015  0.00  0.00    +0.030 A 
ATOM      6  C   UNL     1       0.037  -2.105   1.189  0.00  0.00    +0.019 A 
ATOM      7  C   UNL     1       0.023  -0.710   1.206  0.00  0.00    +0.028 A 
ENDROOT
BRANCH   4   8
ATOM      8  S   UNL     1       0.028  -2.939  -2.739  0.00  0.00    +0.058 S 
ATOM      9  O   UNL     1      -0.504  -4.230  -2.477  0.00  0.00    -0.153 OA
ATOM     10  O   UNL     1      -0.540  -2.062  -3.703  0.00  0.00    -0.153 OA
BRANCH   8  11
ATOM     11  N   UNL     1       1.611  -3.158  -3.174  0.00  0.00    -0.189 NA
ATOM     12  H   UNL     1       1.959  -2.728  -3.971  0.00  0.00    +0.148 HD
BRANCH  11  13
ATOM     13  C   UNL     1       2.485  -4.002  -2.356  0.00  0.00    +0.112 C 
BRANCH  13  14
ATOM     14  C   UNL     1       3.750  -4.343  -3.146  0.00  0.00    -0.024 C 
ATOM     15  C   UNL     1       4.485  -3.053  -3.514  0.00  0.00    +0.012 C 
ATOM     16  C   UNL     1       4.663  -5.225  -2.291  0.00  0.00    +0.012 C 
ATOM     17  C   UNL     1       3.367  -5.094  -4.423  0.00  0.00    +0.012 C 
ENDBRANCH  13  14
ENDBRANCH  11  13
ENDBRANCH   8  11
ENDBRANCH   4   8
BRANCH   7  18
ATOM     18  C   UNL     1       0.025  -0.005   2.452  0.00  0.00    -0.064 C 
ATOM     19  C   UNL     1       0.027   0.573   3.474  0.00  0.00    -0.069 C 
BRANCH  19  20
ATOM     20  C   UNL     1       0.029   1.297   4.756  0.00  0.00    +0.244 C 
BRANCH  20  21
ATOM     21  O   UNL     1       0.052   0.359   5.833  0.00  0.00    -0.383 OA
ATOM     22  H   UNL     1       0.055   0.766   6.710  0.00  0.00    +0.211 HD
ENDBRANCH  20  21
ENDBRANCH  19  20
ENDBRANCH   7  18
TORSDOF 7
