REMARK  Name = ZINC46585615
REMARK  9 active torsions:
REMARK  status: ('A' for Active; 'I' for Inactive)
REMARK    1  A    between atoms: C_1  and  C_2
REMARK    2  A    between atoms: C_5  and  C_12
REMARK    3  A    between atoms: C_7  and  S_8
REMARK    4  A    between atoms: S_8  and  N_11
REMARK    5  A    between atoms: C_12  and  O_14
REMARK    6  A    between atoms: O_14  and  C_15
REMARK    7  A    between atoms: C_15  and  C_17
REMARK    8  A    between atoms: C_15  and  C_23
REMARK    9  A    between atoms: N_28  and  C_29
REMARK                            x       y       z     vdW  Elec       q    Type
REMARK                         _______ _______ _______ _____ _____    ______ ____
ROOT
ATOM      1  O   UNL     1       0.061  -4.917  -1.192  0.00  0.00    -0.444 OA
ENDROOT
BRANCH   1   2
ATOM      2  C   UNL     1       0.058  -4.250  -0.021  0.00  0.00    +0.340 C 
ATOM      3  O   UNL     1       0.071  -4.863   1.027  0.00  0.00    -0.245 OA
BRANCH   2   8
ATOM      4  C   UNL     1      -0.018   1.503   0.010  0.00  0.00    +0.046 C 
ATOM      5  C   UNL     1       0.002  -0.004   0.002  0.00  0.00    -0.024 A 
ATOM      6  C   UNL     1       0.006  -0.686  -1.202  0.00  0.00    +0.006 A 
ATOM      7  C   UNL     1       0.024  -2.065  -1.217  0.00  0.00    +0.015 A 
ATOM      8  C   UNL     1       0.039  -2.773  -0.013  0.00  0.00    +0.061 A 
ATOM      9  C   UNL     1       0.036  -2.079   1.198  0.00  0.00    +0.043 A 
ATOM     10  C   UNL     1       0.023  -0.699   1.198  0.00  0.00    +0.109 A 
BRANCH  10  11
ATOM     11  S   UNL     1       0.026   0.180   2.725  0.00  0.00    +0.056 S 
ATOM     12  O   UNL     1      -1.013   1.145   2.640  0.00  0.00    -0.153 OA
ATOM     13  O   UNL     1       0.076  -0.797   3.756  0.00  0.00    -0.153 OA
BRANCH  11  14
ATOM     14  N   UNL     1       1.450   1.022   2.803  0.00  0.00    -0.204 NA
ATOM     15  H   UNL     1       2.088   0.963   2.075  0.00  0.00    +0.144 HD
ATOM     16  H   UNL     1       1.644   1.575   3.575  0.00  0.00    +0.144 HD
ENDBRANCH  11  14
ENDBRANCH  10  11
ENDBRANCH   2   8
ENDBRANCH   1   2
BRANCH   1  17
ATOM     17  C   UNL     1       0.080  -6.345  -1.125  0.00  0.00    +0.292 C 
BRANCH  17  18
ATOM     18  C   UNL     1       0.791  -6.895  -2.334  0.00  0.00    +0.266 C 
ATOM     19  O   UNL     1       1.238  -6.140  -3.170  0.00  0.00    -0.271 OA
ATOM     20  N   UNL     1       0.931  -8.227  -2.486  0.00  0.00    -0.237 N 
ATOM     21  C   UNL     1       1.567  -8.719  -3.567  0.00  0.00    +0.306 C 
ATOM     22  O   UNL     1       2.015  -7.962  -4.405  0.00  0.00    -0.252 OA
ATOM     23  N   UNL     1       1.706 -10.051  -3.719  0.00  0.00    -0.302 N 
ATOM     24  C   UNL     1       2.398 -10.586  -4.894  0.00  0.00    +0.129 C 
ATOM     25  H   UNL     1       0.573  -8.831  -1.816  0.00  0.00    +0.159 HD
ATOM     26  H   UNL     1       1.349 -10.655  -3.049  0.00  0.00    +0.150 HD
ENDBRANCH  17  18
BRANCH  17  27
ATOM     27  C   UNL     1      -1.334  -6.865  -1.094  0.00  0.00    +0.002 A 
ATOM     28  C   UNL     1      -2.302  -6.284  -1.892  0.00  0.00    +0.008 A 
ATOM     29  C   UNL     1      -3.599  -6.761  -1.863  0.00  0.00    +0.000 A 
ATOM     30  C   UNL     1      -3.929  -7.819  -1.038  0.00  0.00    +0.000 A 
ATOM     31  C   UNL     1      -2.961  -8.401  -0.241  0.00  0.00    +0.000 A 
ATOM     32  C   UNL     1      -1.663  -7.927  -0.272  0.00  0.00    +0.008 A 
ENDBRANCH  17  27
ENDBRANCH   1  17
TORSDOF 7
