REMARK  Name = ZINC45079896
REMARK  7 active torsions:
REMARK  status: ('A' for Active; 'I' for Inactive)
REMARK    1  A    between atoms: C_3  and  N_18
REMARK    2  A    between atoms: C_6  and  N_7
REMARK    3  A    between atoms: C_8  and  C_10
REMARK    4  A    between atoms: C_10  and  O_11
REMARK    5  A    between atoms: O_11  and  C_12
REMARK    6  A    between atoms: N_21  and  C_22
REMARK    7  A    between atoms: C_22  and  C_23
REMARK                            x       y       z     vdW  Elec       q    Type
REMARK                         _______ _______ _______ _____ _____    ______ ____
ROOT
ATOM      1  C   UNL     1      -0.093   1.399  -0.337  0.00  0.00    +0.025 A 
ATOM      2  C   UNL     1       1.072   2.138  -0.372  0.00  0.00    +0.025 A 
ATOM      3  C   UNL     1       2.292   1.524  -0.120  0.00  0.00    +0.035 A 
ATOM      4  C   UNL     1       2.340   0.167   0.167  0.00  0.00    +0.025 A 
ATOM      5  C   UNL     1       1.175  -0.573   0.201  0.00  0.00    +0.025 A 
ATOM      6  C   UNL     1      -0.045   0.041  -0.050  0.00  0.00    +0.034 A 
ENDROOT
BRANCH   3   7
ATOM      7  N   UNL     1       3.475   2.275  -0.155  0.00  0.00    -0.269 N 
ATOM      8  C   UNL     1       3.478   3.548   0.286  0.00  0.00    +0.304 C 
ATOM      9  O   UNL     1       2.439   4.073   0.637  0.00  0.00    -0.253 OA
ATOM     10  N   UNL     1       4.634   4.240   0.340  0.00  0.00    -0.297 N 
ATOM     11  H   UNL     1       4.291   1.878  -0.498  0.00  0.00    +0.156 HD
ATOM     12  H   UNL     1       5.463   3.821   0.060  0.00  0.00    +0.150 HD
BRANCH  10  13
ATOM     13  C   UNL     1       4.638   5.624   0.820  0.00  0.00    +0.137 C 
BRANCH  13  14
ATOM     14  C   UNL     1       6.065   6.173   0.779  0.00  0.00    +0.135 C 
ATOM     15  C   UNL     1       6.097   7.626   1.317  0.00  0.00    +0.035 C 
ATOM     16  C   UNL     1       7.572   7.733   1.790  0.00  0.00    +0.031 C 
ATOM     17  C   UNL     1       7.861   6.301   2.290  0.00  0.00    +0.160 C 
ATOM     18  O   UNL     1       6.913   5.425   1.665  0.00  0.00    -0.375 OA
ENDBRANCH  13  14
ENDBRANCH  10  13
ENDBRANCH   3   7
BRANCH   6  19
ATOM     19  N   UNL     1      -1.228  -0.709  -0.015  0.00  0.00    -0.284 N 
ATOM     20  C   UNL     1      -2.249  -0.398  -0.838  0.00  0.00    +0.243 C 
ATOM     21  O   UNL     1      -2.111   0.471  -1.673  0.00  0.00    -0.273 OA
ATOM     22  H   UNL     1      -1.312  -1.453   0.602  0.00  0.00    +0.155 HD
BRANCH  20  23
ATOM     23  C   UNL     1      -3.562  -1.128  -0.719  0.00  0.00    +0.256 C 
BRANCH  23  24
ATOM     24  O   UNL     1      -4.477  -0.622  -1.692  0.00  0.00    -0.367 OA
BRANCH  24  25
ATOM     25  C   UNL     1      -5.760  -1.251  -1.665  0.00  0.00    +0.119 C 
ATOM     26  C   UNL     1      -5.756  -2.460  -2.603  0.00  0.00    +0.031 C 
ATOM     27  C   UNL     1      -7.130  -3.133  -2.574  0.00  0.00    +0.003 C 
ATOM     28  C   UNL     1      -8.196  -2.136  -3.033  0.00  0.00    +0.000 C 
ATOM     29  C   UNL     1      -8.200  -0.927  -2.095  0.00  0.00    +0.003 C 
ATOM     30  C   UNL     1      -6.827  -0.254  -2.124  0.00  0.00    +0.031 C 
ENDBRANCH  24  25
ENDBRANCH  23  24
ENDBRANCH  20  23
ENDBRANCH   6  19
TORSDOF 7
