REMARK  Name = ZINC20733080
REMARK  3 active torsions:
REMARK  status: ('A' for Active; 'I' for Inactive)
REMARK    1  A    between atoms: C_1  and  C_2
REMARK    2  A    between atoms: C_14  and  O_27
REMARK    3  A    between atoms: C_17  and  C_19
REMARK                            x       y       z     vdW  Elec       q    Type
REMARK                         _______ _______ _______ _____ _____    ______ ____
ROOT
ATOM      1  C   UNL     1       0.340   1.348   0.056  0.00  0.00    +0.068 C 
ATOM      2  C   UNL     1       0.349  -0.155  -0.045  0.00  0.00    +0.067 A 
ATOM      3  C   UNL     1       0.093  -0.898  -1.213  0.00  0.00    +0.037 A 
ATOM      4  C   UNL     1       0.200  -2.224  -0.895  0.00  0.00    +0.167 A 
ATOM      5  N   UNL     1       0.510  -2.283   0.452  0.00  0.00    -0.179 N 
ATOM      6  N   UNL     1       0.601  -0.978   0.934  0.00  0.00    -0.167 NA
ATOM      7  C   UNL     1       0.703  -3.445   1.197  0.00  0.00    +0.253 A 
ATOM      8  N   UNL     1       0.595  -4.621   0.599  0.00  0.00    -0.219 NA
ATOM      9  C   UNL     1       0.771  -5.743   1.276  0.00  0.00    +0.116 A 
ATOM     10  C   UNL     1       1.074  -5.677   2.627  0.00  0.00    +0.039 A 
ATOM     11  C   UNL     1       1.181  -4.428   3.221  0.00  0.00    +0.116 A 
ATOM     12  N   UNL     1       0.997  -3.346   2.484  0.00  0.00    -0.219 NA
ATOM     13  N   UNL     1       0.069  -3.338  -1.634  0.00  0.00    -0.197 NA
ATOM     14  C   UNL     1      -0.191  -3.612  -2.828  0.00  0.00    +0.199 C 
ATOM     15  C   UNL     1      -0.533  -2.716  -3.953  0.00  0.00    +0.165 C 
ATOM     16  S   UNL     1       0.388  -1.172  -3.932  0.00  0.00    -0.138 S 
ATOM     17  C   UNL     1      -0.235  -0.248  -2.523  0.00  0.00    +0.118 C 
ENDROOT
BRANCH  17  18
ATOM     18  C   UNL     1       0.365   1.134  -2.545  0.00  0.00    +0.040 A 
ATOM     19  C   UNL     1       1.736   1.293  -2.655  0.00  0.00    +0.131 A 
ATOM     20  C   UNL     1       2.285   2.563  -2.675  0.00  0.00    +0.039 A 
ATOM     21  C   UNL     1       1.466   3.673  -2.583  0.00  0.00    +0.006 A 
ATOM     22  C   UNL     1       0.098   3.516  -2.472  0.00  0.00    +0.039 A 
ATOM     23  C   UNL     1      -0.455   2.246  -2.459  0.00  0.00    +0.131 A 
ATOM     24  F   UNL     1      -1.793   2.093  -2.356  0.00  0.00    -0.205 F 
ATOM     25  F   UNL     1       2.536   0.208  -2.744  0.00  0.00    -0.205 F 
ENDBRANCH  17  18
BRANCH  14  26
ATOM     26  O   UNL     1      -0.153  -4.925  -3.135  0.00  0.00    -0.495 OA
ATOM     27  H   UNL     1       0.073  -5.496  -2.388  0.00  0.00    +0.293 HD
ENDBRANCH  14  26
TORSDOF 2
