REMARK  Name = ZINC01703805
REMARK  3 active torsions:
REMARK  status: ('A' for Active; 'I' for Inactive)
REMARK    1  A    between atoms: C_9  and  C_12
REMARK    2  A    between atoms: C_12  and  C_13
REMARK    3  A    between atoms: C_13  and  O_14
REMARK                            x       y       z     vdW  Elec       q    Type
REMARK                         _______ _______ _______ _____ _____    ______ ____
ROOT
ATOM      1  C   UNL     1      -2.914   1.534   0.015  0.00  0.00    +0.002 C 
ATOM      2  C   UNL     1      -2.178   1.103   1.283  0.00  0.00    +0.004 C 
ATOM      3  C   UNL     1      -0.734   1.582   1.261  0.00  0.00    -0.000 C 
ATOM      4  C   UNL     1      -0.650   3.101   1.338  0.00  0.00    +0.099 C 
ATOM      5  C   UNL     1      -0.901   3.725  -0.002  0.00  0.00    +0.214 C 
ATOM      6  O   UNL     1      -1.126   4.916  -0.042  0.00  0.00    -0.276 OA
ATOM      7  N   UNL     1      -0.893   3.051  -1.152  0.00  0.00    -0.310 N 
ATOM      8  C   UNL     1      -0.760   1.596  -1.228  0.00  0.00    +0.037 C 
ATOM      9  C   UNL     1      -2.173   0.992  -1.219  0.00  0.00    +0.026 C 
ATOM     10  C   UNL     1      -0.013   1.086   0.008  0.00  0.00    +0.029 C 
ATOM     11  H   UNL     1      -0.980   3.550  -1.980  0.00  0.00    +0.149 HD
ENDROOT
BRANCH   8  12
ATOM     12  C   UNL     1      -0.006   1.202  -2.500  0.00  0.00    +0.053 C 
BRANCH  12  13
ATOM     13  C   UNL     1      -0.696   1.824  -3.716  0.00  0.00    +0.158 C 
BRANCH  13  14
ATOM     14  O   UNL     1       0.008   1.456  -4.904  0.00  0.00    -0.395 OA
ATOM     15  H   UNL     1      -0.375   1.816  -5.715  0.00  0.00    +0.209 HD
ENDBRANCH  13  14
ENDBRANCH  12  13
ENDBRANCH   8  12
TORSDOF 3
