REMARK  Name = ZINC15967535
REMARK  7 active torsions:
REMARK  status: ('A' for Active; 'I' for Inactive)
REMARK    1  A    between atoms: C_1  and  C_2
REMARK    2  A    between atoms: C_2  and  C_3
REMARK    3  A    between atoms: C_14  and  C_17
REMARK    4  A    between atoms: C_17  and  C_18
REMARK    5  A    between atoms: C_18  and  C_19
REMARK    6  A    between atoms: N_24  and  C_27
REMARK    7  A    between atoms: C_27  and  C_28
REMARK                            x       y       z     vdW  Elec       q    Type
REMARK                         _______ _______ _______ _____ _____    ______ ____
ROOT
ATOM      1  C   UNL     1      -1.412  -0.526   0.013  0.00  0.00    -0.047 A 
ATOM      2  C   UNL     1      -2.053  -0.767   1.214  0.00  0.00    +0.005 A 
ATOM      3  C   UNL     1      -3.347  -1.243   1.230  0.00  0.00    +0.024 A 
ATOM      4  C   UNL     1      -4.019  -1.486   0.034  0.00  0.00    +0.039 A 
ATOM      5  C   UNL     1      -3.363  -1.242  -1.169  0.00  0.00    +0.004 A 
ATOM      6  C   UNL     1      -2.074  -0.759  -1.179  0.00  0.00    +0.011 A 
ATOM      7  C   UNL     1      -4.341  -1.605  -2.250  0.00  0.00    +0.136 C 
ATOM      8  C   UNL     1      -4.636  -0.414  -3.170  0.00  0.00    +0.122 C 
ATOM      9  C   UNL     1      -4.812  -1.043  -4.580  0.00  0.00    +0.107 C 
ATOM     10  C   UNL     1      -4.608  -2.558  -4.366  0.00  0.00    +0.068 C 
ATOM     11  N   UNL     1      -3.812  -2.669  -3.123  0.00  0.00    -0.295 NA
ATOM     12  C   UNL     1      -6.263  -0.765  -4.905  0.00  0.00    +0.227 C 
ATOM     13  O   UNL     1      -6.826  -1.090  -5.928  0.00  0.00    -0.275 OA
ATOM     14  N   UNL     1      -6.829  -0.106  -3.888  0.00  0.00    -0.237 N 
ATOM     15  C   UNL     1      -6.000   0.154  -2.851  0.00  0.00    +0.229 C 
ATOM     16  O   UNL     1      -6.294   0.741  -1.832  0.00  0.00    -0.275 OA
ATOM     17  C   UNL     1      -5.578  -2.057  -1.523  0.00  0.00    +0.243 C 
ATOM     18  O   UNL     1      -6.615  -2.438  -2.025  0.00  0.00    -0.273 OA
ATOM     19  N   UNL     1      -5.310  -1.959  -0.207  0.00  0.00    -0.283 N 
ATOM     20  H   UNL     1      -2.833  -2.523  -3.317  0.00  0.00    +0.123 HD
ATOM     21  H   UNL     1      -5.942  -2.190   0.493  0.00  0.00    +0.155 HD
ENDROOT
BRANCH   1  23
ATOM     22  C   UNL     1      -0.019   1.526   0.010  0.00  0.00    +0.009 C 
ATOM     23  C   UNL     1       0.002  -0.004   0.002  0.00  0.00    +0.032 C 
ENDBRANCH   1  23
BRANCH  10  24
ATOM     24  C   UNL     1      -3.861  -3.167  -5.554  0.00  0.00    +0.028 C 
BRANCH  24  25
ATOM     25  C   UNL     1      -3.778  -4.685  -5.381  0.00  0.00    +0.097 C 
BRANCH  25  26
ATOM     26  C   UNL     1      -3.042  -5.285  -6.551  0.00  0.00    +0.211 C 
ATOM     27  O   UNL     1      -2.625  -4.569  -7.437  0.00  0.00    -0.276 OA
ATOM     28  N   UNL     1      -2.848  -6.617  -6.614  0.00  0.00    -0.329 N 
ATOM     29  H   UNL     1      -3.182  -7.190  -5.905  0.00  0.00    +0.145 HD
ATOM     30  H   UNL     1      -2.375  -7.004  -7.367  0.00  0.00    +0.145 HD
ENDBRANCH  25  26
ENDBRANCH  24  25
ENDBRANCH  10  24
BRANCH  14  31
ATOM     31  C   UNL     1      -8.233   0.309  -3.896  0.00  0.00    +0.151 C 
BRANCH  31  32
ATOM     32  C   UNL     1      -9.084  -0.784  -3.303  0.00  0.00    -0.026 A 
ATOM     33  C   UNL     1      -9.605  -1.772  -4.117  0.00  0.00    +0.009 A 
ATOM     34  C   UNL     1     -10.386  -2.777  -3.578  0.00  0.00    +0.050 A 
ATOM     35  C   UNL     1     -10.648  -2.796  -2.217  0.00  0.00    +0.166 A 
ATOM     36  C   UNL     1     -10.123  -1.801  -1.396  0.00  0.00    +0.167 A 
ATOM     37  C   UNL     1      -9.337  -0.800  -1.944  0.00  0.00    +0.054 A 
ATOM     38  O   UNL     1     -10.520  -2.040  -0.113  0.00  0.00    -0.453 OA
ATOM     39  C   UNL     1     -11.626  -2.956  -0.216  0.00  0.00    +0.466 C 
ATOM     40  O   UNL     1     -11.374  -3.659  -1.448  0.00  0.00    -0.453 OA
ENDBRANCH  31  32
ENDBRANCH  14  31
TORSDOF 6
