REMARK  Name = ZINC58853676
REMARK  6 active torsions:
REMARK  status: ('A' for Active; 'I' for Inactive)
REMARK    1  A    between atoms: C_3  and  C_6
REMARK    2  A    between atoms: C_6  and  C_8
REMARK    3  A    between atoms: C_6  and  N_23
REMARK    4  A    between atoms: C_8  and  N_9
REMARK    5  A    between atoms: N_12  and  C_13
REMARK    6  A    between atoms: C_17  and  N_19
REMARK                            x       y       z     vdW  Elec       q    Type
REMARK                         _______ _______ _______ _____ _____    ______ ____
ROOT
ATOM      1  N   UNL     1       3.306   2.779  -2.199  0.00  0.00    -0.300 N 
ATOM      2  C   UNL     1       3.471   2.899  -3.531  0.00  0.00    +0.304 C 
ATOM      3  O   UNL     1       4.368   2.298  -4.089  0.00  0.00    -0.253 OA
ATOM      4  N   UNL     1       2.641   3.686  -4.244  0.00  0.00    -0.269 N 
ATOM      5  H   UNL     1       2.590   3.258  -1.753  0.00  0.00    +0.150 HD
ATOM      6  H   UNL     1       1.883   4.110  -3.812  0.00  0.00    +0.156 HD
ENDROOT
BRANCH   4   7
ATOM      7  C   UNL     1       2.873   3.892  -5.609  0.00  0.00    +0.037 A 
ATOM      8  C   UNL     1       2.599   5.127  -6.183  0.00  0.00    +0.025 A 
ATOM      9  C   UNL     1       2.829   5.327  -7.530  0.00  0.00    +0.024 A 
ATOM     10  C   UNL     1       3.332   4.299  -8.308  0.00  0.00    +0.071 A 
ATOM     11  C   UNL     1       3.606   3.068  -7.739  0.00  0.00    +0.146 A 
ATOM     12  C   UNL     1       3.383   2.864  -6.391  0.00  0.00    +0.057 A 
ATOM     13 CL   UNL     1       3.619   4.554 -10.001  0.00  0.00    -0.081 Cl
BRANCH  11  14
ATOM     14  N   UNL     1       4.144   1.971  -8.574  0.00  0.00    +0.058 N 
ATOM     15  O   UNL     1       4.383   0.895  -8.077  0.00  0.00    -0.126 OA
ATOM     16  O   UNL     1       4.344   2.150  -9.752  0.00  0.00    -0.126 OA
ENDBRANCH  11  14
ENDBRANCH   4   7
BRANCH   1  17
ATOM     17  C   UNL     1       4.207   1.923  -1.423  0.00  0.00    +0.095 C 
BRANCH  17  18
ATOM     18  C   UNL     1       3.729   1.862   0.029  0.00  0.00    -0.013 C 
BRANCH  18  19
ATOM     19  N   UNL     1       4.693   1.095   0.830  0.00  0.00    +0.386 N 
ATOM     20  C   UNL     1       5.976   1.835   0.932  0.00  0.00    -0.078 C 
ATOM     21  C   UNL     1       6.635   1.231   2.198  0.00  0.00    -0.020 C 
ATOM     22  C   UNL     1       5.430   1.010   3.142  0.00  0.00    -0.020 C 
ATOM     23  C   UNL     1       4.200   0.949   2.217  0.00  0.00    -0.078 C 
ATOM     24  H   UNL     1       4.845   0.188   0.417  0.00  0.00    -0.081 HD
ENDBRANCH  18  19
BRANCH  18  27
ATOM     25  C   UNL     1       0.041   0.926   0.221  0.00  0.00    +0.008 A 
ATOM     26  C   UNL     1       1.151   1.749   0.185  0.00  0.00    +0.009 A 
ATOM     27  C   UNL     1       2.381   1.189   0.085  0.00  0.00    -0.022 A 
ATOM     28  S   UNL     1       1.991  -0.553   0.038  0.00  0.00    -0.103 S 
ATOM     29  C   UNL     1       0.215  -0.416   0.154  0.00  0.00    +0.045 A 
ENDBRANCH  18  27
ENDBRANCH  17  18
ENDBRANCH   1  17
TORSDOF 6
