REMARK  Name = ZINC03831088
REMARK  8 active torsions:
REMARK  status: ('A' for Active; 'I' for Inactive)
REMARK    1  A    between atoms: C_1  and  C_2
REMARK    2  A    between atoms: C_11  and  C_28
REMARK    3  A    between atoms: C_11  and  O_32
REMARK    4  A    between atoms: C_12  and  C_27
REMARK    5  A    between atoms: C_14  and  O_26
REMARK    6  A    between atoms: C_18  and  C_25
REMARK    7  A    between atoms: C_28  and  C_30
REMARK    8  A    between atoms: C_30  and  O_31
REMARK                            x       y       z     vdW  Elec       q    Type
REMARK                         _______ _______ _______ _____ _____    ______ ____
ROOT
ATOM      1  C   UNL     1       0.899   0.794  -0.604  0.00  0.00    +0.012 C 
ATOM      2  C   UNL     1       0.126   1.480   0.519  0.00  0.00    +0.013 C 
ATOM      3  C   UNL     1       0.652   1.071   1.883  0.00  0.00    +0.012 C 
ATOM      4  C   UNL     1       0.104  -0.275   2.379  0.00  0.00    -0.000 C 
ATOM      5  C   UNL     1       0.643  -0.437   3.808  0.00  0.00    +0.002 C 
ATOM      6  C   UNL     1       2.153  -0.787   3.685  0.00  0.00    +0.008 C 
ATOM      7  C   UNL     1       2.150  -2.303   3.395  0.00  0.00    +0.043 C 
ATOM      8  C   UNL     1       0.904  -2.864   4.118  0.00  0.00    +0.131 C 
ATOM      9  C   UNL     1       0.059  -1.659   4.524  0.00  0.00    +0.009 C 
ATOM     10  C   UNL     1      -1.428  -1.801   4.391  0.00  0.00    +0.041 C 
ATOM     11  C   UNL     1      -2.049  -1.437   3.058  0.00  0.00    +0.120 C 
ATOM     12  C   UNL     1      -1.415  -0.240   2.386  0.00  0.00    +0.035 C 
ATOM     13  C   UNL     1      -1.960  -0.013   0.976  0.00  0.00    +0.013 C 
ATOM     14  C   UNL     1      -1.362   1.245   0.412  0.00  0.00    -0.053 C 
ATOM     15  C   UNL     1      -2.094   2.174  -0.197  0.00  0.00    +0.051 C 
ATOM     16  C   UNL     1      -3.553   2.033  -0.307  0.00  0.00    +0.179 C 
ATOM     17  O   UNL     1      -4.209   2.818  -0.964  0.00  0.00    -0.288 OA
ATOM     18  C   UNL     1      -4.199   0.913   0.398  0.00  0.00    +0.047 C 
ATOM     19  C   UNL     1      -3.454  -0.005   0.989  0.00  0.00    -0.012 C 
ATOM     20  C   UNL     1      -1.540  -1.155   0.047  0.00  0.00    +0.020 C 
ATOM     21  C   UNL     1       0.328  -1.440   6.039  0.00  0.00    +0.015 C 
ENDROOT
BRANCH  11  22
ATOM     22  O   UNL     1      -2.155  -2.591   2.231  0.00  0.00    -0.391 OA
ATOM     23  H   UNL     1      -2.562  -3.352   2.668  0.00  0.00    +0.210 HD
ENDBRANCH  11  22
BRANCH   8  24
ATOM     24  C   UNL     1       0.187  -3.826   3.214  0.00  0.00    +0.190 C 
ATOM     25  O   UNL     1       0.222  -3.670   2.017  0.00  0.00    -0.292 OA
BRANCH  24  26
ATOM     26  C   UNL     1      -0.576  -4.985   3.801  0.00  0.00    +0.233 C 
BRANCH  26  27
ATOM     27  O   UNL     1      -1.270  -5.675   2.760  0.00  0.00    -0.387 OA
ATOM     28  H   UNL     1      -1.784  -6.435   3.066  0.00  0.00    +0.210 HD
ENDBRANCH  26  27
ENDBRANCH  24  26
ENDBRANCH   8  24
BRANCH   8  29
ATOM     29  O   UNL     1       1.333  -3.564   5.299  0.00  0.00    -0.380 OA
ATOM     30  H   UNL     1       1.876  -4.343   5.119  0.00  0.00    +0.211 HD
ENDBRANCH   8  29
TORSDOF 5
