REMARK  Name = ZINC19347295
REMARK  6 active torsions:
REMARK  status: ('A' for Active; 'I' for Inactive)
REMARK    1  A    between atoms: C_9  and  C_11
REMARK    2  A    between atoms: C_11  and  N_12
REMARK    3  A    between atoms: C_15  and  C_18
REMARK    4  A    between atoms: C_15  and  O_30
REMARK    5  A    between atoms: C_18  and  N_19
REMARK    6  A    between atoms: C_23  and  C_25
REMARK                            x       y       z     vdW  Elec       q    Type
REMARK                         _______ _______ _______ _____ _____    ______ ____
ROOT
ATOM      1  N   UNL     1      -0.700   1.559   1.216  0.00  0.00    +0.383 N 
ATOM      2  C   UNL     1      -0.013   1.086   0.008  0.00  0.00    -0.076 C 
ATOM      3  C   UNL     1      -0.752   1.593  -1.232  0.00  0.00    +0.018 C 
ATOM      4  C   UNL     1      -0.788   3.123  -1.209  0.00  0.00    +0.082 C 
ATOM      5  C   UNL     1      -1.465   3.591   0.082  0.00  0.00    +0.018 C 
ATOM      6  C   UNL     1      -0.705   3.026   1.284  0.00  0.00    -0.076 C 
ATOM      7  H   UNL     1      -1.745   1.222   1.161  0.00  0.00    -0.081 HD
ENDROOT
BRANCH   4   8
ATOM      8  O   UNL     1       0.546   3.633  -1.261  0.00  0.00    -0.387 OA
ATOM      9  H   UNL     1       0.720   4.719  -1.253  0.00  0.00    +0.210 HD
ENDBRANCH   4   8
BRANCH   1  10
ATOM     10  C   UNL     1      -0.099   0.979   2.425  0.00  0.00    -0.041 C 
BRANCH  10  19
ATOM     11  C   UNL     1      -0.440   3.289   5.396  0.00  0.00    +0.001 A 
ATOM     12  C   UNL     1      -1.660   2.965   5.906  0.00  0.00    +0.010 A 
ATOM     13  C   UNL     1      -2.427   1.964   5.288  0.00  0.00    +0.001 A 
ATOM     14  C   UNL     1      -3.693   1.599   5.785  0.00  0.00    +0.011 A 
ATOM     15  C   UNL     1      -4.390   0.630   5.122  0.00  0.00    +0.020 A 
ATOM     16  C   UNL     1      -3.835   0.019   3.998  0.00  0.00    +0.111 A 
ATOM     17  N   UNL     1      -2.654   0.358   3.542  0.00  0.00    -0.255 NA
ATOM     18  C   UNL     1      -1.924   1.307   4.138  0.00  0.00    +0.072 A 
ATOM     19  C   UNL     1      -0.658   1.666   3.644  0.00  0.00    -0.038 A 
ATOM     20  C   UNL     1       0.058   2.641   4.267  0.00  0.00    +0.004 A 
ENDBRANCH  10  19
ENDBRANCH   1  10
BRANCH   4  21
ATOM     21  C   UNL     1      -1.578   3.634  -2.416  0.00  0.00    +0.185 C 
BRANCH  21  22
ATOM     22  N   UNL     1      -1.611   5.099  -2.393  0.00  0.00    -0.192 N 
ATOM     23  C   UNL     1      -0.717   5.933  -2.965  0.00  0.00    +0.438 A 
ATOM     24  O   UNL     1       0.270   5.605  -3.596  0.00  0.00    -0.221 OA
ATOM     25  O   UNL     1      -1.115   7.190  -2.709  0.00  0.00    -0.387 OA
ATOM     26  C   UNL     1      -2.253   7.148  -1.981  0.00  0.00    +0.256 A 
ATOM     27  N   UNL     1      -2.582   5.903  -1.778  0.00  0.00    -0.126 NA
BRANCH  26  28
ATOM     28  C   UNL     1      -3.004   8.320  -1.501  0.00  0.00    +0.076 A 
ATOM     29  C   UNL     1      -2.727   9.653  -1.671  0.00  0.00    +0.021 A 
ATOM     30  C   UNL     1      -3.586  10.580  -1.127  0.00  0.00    +0.008 A 
ATOM     31  C   UNL     1      -4.672  10.151  -0.432  0.00  0.00    +0.046 A 
ATOM     32  S   UNL     1      -4.507   8.376  -0.539  0.00  0.00    -0.092 S 
ENDBRANCH  26  28
ENDBRANCH  21  22
ENDBRANCH   4  21
TORSDOF 6
