REMARK  Name = ZINC17480686
REMARK  11 active torsions:
REMARK  status: ('A' for Active; 'I' for Inactive)
REMARK    1  A    between atoms: C_1  and  C_2
REMARK    2  A    between atoms: C_2  and  C_3
REMARK    3  A    between atoms: C_2  and  O_4
REMARK    4  A    between atoms: O_4  and  C_5
REMARK    5  A    between atoms: C_8  and  C_13
REMARK    6  A    between atoms: C_10  and  O_11
REMARK    7  A    between atoms: O_11  and  C_12
REMARK    8  A    between atoms: N_18  and  C_33
REMARK    9  A    between atoms: C_22  and  C_31
REMARK   10  A    between atoms: C_26  and  C_27
REMARK   11  A    between atoms: C_26  and  C_29
REMARK                            x       y       z     vdW  Elec       q    Type
REMARK                         _______ _______ _______ _____ _____    ______ ____
ROOT
ATOM      1  C   UNL     1      -2.336  -5.229  -2.885  0.00  0.00    +0.067 C 
ATOM      2  C   UNL     1      -1.575  -6.391  -2.240  0.00  0.00    +0.041 C 
ATOM      3  C   UNL     1      -2.050  -6.584  -0.808  0.00  0.00    +0.093 C 
ATOM      4  N   UNL     1      -1.033  -7.272  -0.007  0.00  0.00    -0.301 NA
ATOM      5  C   UNL     1       0.176  -6.442   0.100  0.00  0.00    +0.111 C 
ATOM      6  C   UNL     1       0.689  -6.152  -1.283  0.00  0.00    -0.010 C 
ATOM      7  C   UNL     1      -0.098  -6.121  -2.300  0.00  0.00    -0.045 C 
ATOM      8  C   UNL     1       0.518  -5.811  -3.654  0.00  0.00    +0.164 C 
ATOM      9  C   UNL     1      -0.377  -4.798  -4.337  0.00  0.00    +0.065 C 
ATOM     10  N   UNL     1       0.115  -3.762  -4.903  0.00  0.00    -0.304 NA
ATOM     11  C   UNL     1      -1.868  -5.048  -4.332  0.00  0.00    +0.188 C 
ATOM     12  C   UNL     1      -1.554  -7.618   1.322  0.00  0.00    +0.105 C 
ATOM     13  H   UNL     1       1.074  -3.616  -4.899  0.00  0.00    +0.186 HD
ENDROOT
BRANCH   1  17
ATOM     14  C   UNL     1      -1.580  -1.640  -0.687  0.00  0.00    +0.162 A 
ATOM     15  C   UNL     1      -0.532  -2.329  -1.276  0.00  0.00    +0.050 A 
ATOM     16  C   UNL     1      -0.780  -3.489  -1.986  0.00  0.00    +0.008 A 
ATOM     17  C   UNL     1      -2.072  -3.964  -2.110  0.00  0.00    -0.037 A 
ATOM     18  C   UNL     1      -3.122  -3.282  -1.525  0.00  0.00    +0.053 A 
ATOM     19  C   UNL     1      -2.880  -2.122  -0.807  0.00  0.00    +0.162 A 
BRANCH  19  20
ATOM     20  O   UNL     1      -3.912  -1.452  -0.226  0.00  0.00    -0.491 OA
ATOM     21  C   UNL     1      -5.219  -2.005  -0.391  0.00  0.00    +0.277 C 
ENDBRANCH  19  20
BRANCH  14  22
ATOM     22  O   UNL     1      -1.339  -0.499   0.012  0.00  0.00    -0.486 OA
BRANCH  22  24
ATOM     23  C   UNL     1      -0.011   1.505   0.263  0.00  0.00    +0.051 C 
ATOM     24  C   UNL     1       0.001  -0.002  -0.000  0.00  0.00    +0.167 C 
ATOM     25  C   UNL     1       0.815  -0.703   1.089  0.00  0.00    +0.051 C 
ENDBRANCH  22  24
ENDBRANCH  14  22
ENDBRANCH   1  17
BRANCH  11  26
ATOM     26  C   UNL     1      -2.561  -3.897  -4.934  0.00  0.00    +0.091 C 
ATOM     27  N   UNL     1      -3.096  -3.010  -5.399  0.00  0.00    -0.195 NA
ENDBRANCH  11  26
BRANCH  11  28
ATOM     28  C   UNL     1      -2.167  -6.265  -5.103  0.00  0.00    +0.091 C 
ATOM     29  N   UNL     1      -2.398  -7.205  -5.699  0.00  0.00    -0.195 NA
ENDBRANCH  11  28
BRANCH   8  30
ATOM     30  C   UNL     1       0.594  -7.040  -4.462  0.00  0.00    +0.076 C 
ATOM     31  N   UNL     1       0.652  -7.988  -5.085  0.00  0.00    -0.196 NA
ENDBRANCH   8  30
TORSDOF 7
