REMARK  Name = ZINC00936937
REMARK  7 active torsions:
REMARK  status: ('A' for Active; 'I' for Inactive)
REMARK    1  A    between atoms: C_1  and  C_2
REMARK    2  A    between atoms: C_3  and  C_21
REMARK    3  A    between atoms: C_4  and  C_12
REMARK    4  A    between atoms: C_17  and  O_18
REMARK    5  A    between atoms: O_18  and  C_19
REMARK    6  A    between atoms: C_21  and  O_23
REMARK    7  A    between atoms: O_23  and  C_24
REMARK                            x       y       z     vdW  Elec       q    Type
REMARK                         _______ _______ _______ _____ _____    ______ ____
ROOT
ATOM      1  C   UNL     1      -0.018   1.503   0.010  0.00  0.00    +0.061 C 
ATOM      2  C   UNL     1       0.002  -0.004   0.002  0.00  0.00    +0.020 C 
ATOM      3  C   UNL     1      -1.165  -0.668   0.004  0.00  0.00    +0.082 C 
ATOM      4  C   UNL     1      -1.256  -2.171  -0.016  0.00  0.00    +0.184 C 
ATOM      5  N   UNL     1       0.061  -2.739   0.249  0.00  0.00    -0.201 N 
ATOM      6  C   UNL     1       1.210  -2.014   0.244  0.00  0.00    +0.240 A 
ATOM      7  N   UNL     1       2.186  -2.835   0.510  0.00  0.00    -0.092 NA
ATOM      8  N   UNL     1       1.730  -4.028   0.688  0.00  0.00    -0.021 NA
ATOM      9  N   UNL     1       0.444  -4.046   0.545  0.00  0.00    -0.042 NA
ATOM     10  N   UNL     1       1.213  -0.650  -0.013  0.00  0.00    -0.286 N 
ATOM     11  H   UNL     1       2.038  -0.172  -0.193  0.00  0.00    +0.155 HD
ENDROOT
BRANCH   4  12
ATOM     12  C   UNL     1      -1.737  -2.627  -1.369  0.00  0.00    +0.024 A 
ATOM     13  C   UNL     1      -1.004  -2.327  -2.501  0.00  0.00    +0.025 A 
ATOM     14  C   UNL     1      -1.446  -2.746  -3.743  0.00  0.00    +0.018 A 
ATOM     15  C   UNL     1      -2.622  -3.466  -3.855  0.00  0.00    +0.019 A 
ATOM     16  C   UNL     1      -3.358  -3.768  -2.726  0.00  0.00    +0.047 A 
ATOM     17  C   UNL     1      -2.914  -3.354  -1.478  0.00  0.00    +0.126 A 
ATOM     18 BR   UNL     1      -0.441  -2.333  -5.291  0.00  0.00    -0.050 Br
BRANCH  17  19
ATOM     19  O   UNL     1      -3.634  -3.654  -0.365  0.00  0.00    -0.495 OA
ATOM     20  C   UNL     1      -4.835  -4.405  -0.553  0.00  0.00    +0.277 C 
ENDBRANCH  17  19
ENDBRANCH   4  12
BRANCH   3  21
ATOM     21  C   UNL     1      -2.364   0.079   0.027  0.00  0.00    +0.339 C 
ATOM     22  O   UNL     1      -2.323   1.295   0.044  0.00  0.00    -0.245 OA
BRANCH  21  23
ATOM     23  O   UNL     1      -3.554  -0.556   0.029  0.00  0.00    -0.465 OA
ATOM     24  C   UNL     1      -4.726   0.261   0.053  0.00  0.00    +0.280 C 
ENDBRANCH  21  23
ENDBRANCH   3  21
TORSDOF 4
