REMARK  Name = ZINC40309174
REMARK  1 active torsions:
REMARK  status: ('A' for Active; 'I' for Inactive)
REMARK    1  A    between atoms: CA_15  and  C_18
REMARK                            x       y       z     vdW  Elec       q    Type
REMARK                         _______ _______ _______ _____ _____    ______ ____
ROOT
ATOM      1  C   UNL     1      -0.017   1.386   0.010  0.00  0.00    +0.000 A 
ATOM      2  C   UNL     1       1.151   2.121   0.003  0.00  0.00    +0.002 A 
ATOM      3  C   UNL     1       2.399   1.516  -0.013  0.00  0.00    +0.023 A 
ATOM      4  C   UNL     1       2.431   0.121  -0.021  0.00  0.00    +0.039 A 
ATOM      5  C   UNL     1       1.238  -0.613  -0.012  0.00  0.00    +0.009 A 
ATOM      6  C   UNL     1       0.002  -0.004   0.002  0.00  0.00    +0.008 A 
ATOM      7  C   UNL     1       1.635  -2.054  -0.019  0.00  0.00    +0.166 C 
ATOM      8  C   UNL     1       1.117  -2.760  -1.242  0.00  0.00    +0.071 A 
ATOM      9  C   UNL     1       0.099  -3.652  -1.201  0.00  0.00    +0.041 A 
ATOM     10  N   UNL     1      -0.102  -4.090  -2.471  0.00  0.00    -0.349 N 
ATOM     11  C   UNL     1       0.799  -3.453  -3.256  0.00  0.00    +0.171 A 
ATOM     12  N   UNL     1       1.522  -2.659  -2.509  0.00  0.00    -0.347 N 
ATOM     13  H   UNL     1      -0.764  -4.737  -2.760  0.00  0.00    +0.166 HD
ATOM     14  C   UNL     1      -0.624  -4.027   0.067  0.00  0.00    +0.085 C 
ATOM     15  CA  UNL     1      -0.301  -2.967   1.129  0.00  0.00    +0.175 C 
ATOM     16  N   UNL     1       1.151  -2.744   1.182  0.00  0.00    -0.282 NA
ATOM     17  C   UNL     1       3.148  -2.029  -0.033  0.00  0.00    +0.248 C 
ATOM     18  O   UNL     1       3.885  -2.992  -0.041  0.00  0.00    -0.273 OA
ATOM     19  N   UNL     1       3.521  -0.732  -0.035  0.00  0.00    -0.283 N 
ATOM     20  H   UNL     1       1.645  -3.612   1.325  0.00  0.00    +0.124 HD
ATOM     21  H   UNL     1       4.444  -0.433  -0.045  0.00  0.00    +0.155 HD
ATOM     22  H   UNL     1       2.238  -2.087  -2.826  0.00  0.00    +0.167 HD
ENDROOT
BRANCH  15  23
ATOM     23  C   UNL     1      -0.784  -3.443   2.475  0.00  0.00    +0.373 C 
ATOM     24  O   UNL     1       0.021  -3.761   3.334  0.00  0.00    -0.245 OA
ATOM     25  OXT UNL     1      -1.979  -3.509   2.705  0.00  0.00    -0.245 OA
ENDBRANCH  15  23
TORSDOF 1
