REMARK  Name = ZINC19607604
REMARK  8 active torsions:
REMARK  status: ('A' for Active; 'I' for Inactive)
REMARK    1  A    between atoms: C_1  and  C_2
REMARK    2  A    between atoms: C_2  and  C_3
REMARK    3  A    between atoms: C_5  and  C_12
REMARK    4  A    between atoms: N_7  and  O_11
REMARK    5  A    between atoms: C_8  and  C_9
REMARK    6  A    between atoms: C_8  and  C_10
REMARK    7  A    between atoms: C_17  and  O_18
REMARK    8  A    between atoms: O_18  and  C_19
REMARK                            x       y       z     vdW  Elec       q    Type
REMARK                         _______ _______ _______ _____ _____    ______ ____
ROOT
ATOM      1  C   UNL     1      -1.412  -0.526   0.013  0.00  0.00    +0.037 C 
ATOM      2  N   UNL     1      -2.463   0.199   0.021  0.00  0.00    -0.265 NA
ATOM      3  C   UNL     1      -3.671  -0.634   0.027  0.00  0.00    +0.234 C 
ATOM      4  N   UNL     1      -3.226  -1.989   0.433  0.00  0.00    -0.151 NA
ATOM      5  C   UNL     1      -1.802  -1.987   0.009  0.00  0.00    +0.081 C 
ATOM      6  C   UNL     1      -1.658  -2.574  -1.397  0.00  0.00    +0.036 C 
ATOM      7  C   UNL     1      -0.947  -2.771   1.007  0.00  0.00    +0.036 C 
ENDROOT
BRANCH   3   8
ATOM      8  C   UNL     1      -4.670  -0.095   1.019  0.00  0.00    +0.035 A 
ATOM      9  C   UNL     1      -5.449  -0.964   1.758  0.00  0.00    +0.011 A 
ATOM     10  C   UNL     1      -6.366  -0.470   2.667  0.00  0.00    +0.001 A 
ATOM     11  C   UNL     1      -6.504   0.895   2.840  0.00  0.00    +0.004 A 
ATOM     12  C   UNL     1      -5.727   1.768   2.105  0.00  0.00    +0.046 A 
ATOM     13  C   UNL     1      -4.803   1.275   1.195  0.00  0.00    +0.127 A 
BRANCH  13  14
ATOM     14  O   UNL     1      -4.033   2.132   0.474  0.00  0.00    -0.495 OA
ATOM     15  C   UNL     1      -4.224   3.528   0.707  0.00  0.00    +0.277 C 
ENDBRANCH  13  14
ENDBRANCH   3   8
BRANCH   1  17
ATOM     16  C   UNL     1      -0.019   1.526   0.010  0.00  0.00    +0.010 C 
ATOM     17  C   UNL     1       0.002  -0.004   0.002  0.00  0.00    +0.049 C 
ENDBRANCH   1  17
BRANCH   4  18
ATOM     18  O   UNL     1      -3.979  -3.023  -0.276  0.00  0.00    -0.309 OA
ATOM     19  H   UNL     1      -4.933  -2.991  -0.120  0.00  0.00    +0.237 HD
ENDBRANCH   4  18
TORSDOF 4
