REMARK  Name = ZINC40290624
REMARK  6 active torsions:
REMARK  status: ('A' for Active; 'I' for Inactive)
REMARK    1  A    between atoms: C_1  and  C_2
REMARK    2  A    between atoms: C_3  and  C_19
REMARK    3  A    between atoms: C_6  and  O_10
REMARK    4  A    between atoms: C_7  and  C_8
REMARK    5  A    between atoms: C_8  and  N_9
REMARK    6  A    between atoms: O_10  and  C_11
REMARK                            x       y       z     vdW  Elec       q    Type
REMARK                         _______ _______ _______ _____ _____    ______ ____
ROOT
ATOM      1  C   UNL     1       0.167   1.492  -0.010  0.00  0.00    +0.046 C 
ATOM      2  C   UNL     1       0.184  -0.015  -0.009  0.00  0.00    -0.018 A 
ATOM      3  C   UNL     1       0.280  -0.729  -1.195  0.00  0.00    +0.064 A 
ATOM      4  N   UNL     1       0.293  -2.047  -1.171  0.00  0.00    -0.151 NA
ATOM      5  N   UNL     1       0.220  -2.713  -0.077  0.00  0.00    -0.111 NA
ATOM      6  C   UNL     1       0.126  -2.120   1.103  0.00  0.00    +0.244 A 
ATOM      7  C   UNL     1       0.111  -0.730   1.177  0.00  0.00    +0.034 A 
ATOM      8  C   UNL     1       0.368   0.002  -2.510  0.00  0.00    +0.068 C 
ENDROOT
BRANCH   7   9
ATOM      9  C   UNL     1       0.011  -0.023   2.505  0.00  0.00    +0.119 C 
BRANCH   9  10
ATOM     10  N   UNL     1      -1.403   0.191   2.841  0.00  0.00    -0.326 NA
ATOM     11  H   UNL     1      -1.911  -0.682   2.840  0.00  0.00    +0.119 HD
ATOM     12  H   UNL     1      -1.497   0.663   3.727  0.00  0.00    +0.119 HD
ENDBRANCH   9  10
ENDBRANCH   7   9
BRANCH   6  13
ATOM     13  O   UNL     1       0.051  -2.864   2.235  0.00  0.00    -0.433 OA
BRANCH  13  14
ATOM     14  C   UNL     1      -0.037  -4.215   2.107  0.00  0.00    +0.165 A 
ATOM     15  C   UNL     1      -1.278  -4.833   2.105  0.00  0.00    +0.050 A 
ATOM     16  C   UNL     1      -1.365  -6.206   1.974  0.00  0.00    +0.019 A 
ATOM     17  C   UNL     1      -0.215  -6.965   1.846  0.00  0.00    +0.021 A 
ATOM     18  C   UNL     1       1.025  -6.351   1.848  0.00  0.00    +0.057 A 
ATOM     19  C   UNL     1       1.117  -4.977   1.973  0.00  0.00    +0.167 A 
ATOM     20  F   UNL     1       2.327  -4.377   1.969  0.00  0.00    -0.202 F 
ATOM     21 BR   UNL     1      -0.339  -8.843   1.667  0.00  0.00    -0.050 Br
ENDBRANCH  13  14
ENDBRANCH   6  13
TORSDOF 4
