REMARK  Name = ZINC39667550
REMARK  7 active torsions:
REMARK  status: ('A' for Active; 'I' for Inactive)
REMARK    1  A    between atoms: C_1  and  C_2
REMARK    2  A    between atoms: C_6  and  C_9
REMARK    3  A    between atoms: C_7  and  C_8
REMARK    4  A    between atoms: C_9  and  N_10
REMARK    5  A    between atoms: C_11  and  C_13
REMARK    6  A    between atoms: C_24  and  C_26
REMARK    7  A    between atoms: C_29  and  C_33
REMARK                            x       y       z     vdW  Elec       q    Type
REMARK                         _______ _______ _______ _____ _____    ______ ____
ROOT
ATOM      1  C   UNL     1      -2.460  -3.148   5.042  0.00  0.00    +0.100 C 
ATOM      2  C   UNL     1      -3.243  -1.853   5.354  0.00  0.00    +0.121 C 
ATOM      3  N   UNL     1      -4.042  -2.179   6.558  0.00  0.00    -0.296 N 
ATOM      4  C   UNL     1      -3.134  -3.002   7.392  0.00  0.00    +0.115 C 
ATOM      5  C   UNL     1      -2.390  -3.899   6.383  0.00  0.00    -0.004 C 
ATOM      6  C   UNL     1      -0.937  -4.082   6.811  0.00  0.00    -0.010 C 
ATOM      7  C   UNL     1      -0.890  -4.882   8.116  0.00  0.00    -0.082 C 
ATOM      8  N   UNL     1      -1.530  -6.188   7.914  0.00  0.00    +0.379 N 
ATOM      9  C   UNL     1      -2.951  -6.005   7.593  0.00  0.00    -0.082 C 
ATOM     10  C   UNL     1      -3.084  -5.253   6.267  0.00  0.00    -0.010 C 
ATOM     11  C   UNL     1      -5.309  -1.811   6.833  0.00  0.00    +0.247 C 
ATOM     12  O   UNL     1      -5.973  -1.241   5.990  0.00  0.00    -0.270 OA
ATOM     13  H   UNL     1      -1.074  -6.670   7.154  0.00  0.00    -0.086 HD
ATOM     14  H   UNL     1      -1.444  -6.736   8.757  0.00  0.00    -0.086 HD
ENDROOT
BRANCH  11  15
ATOM     15  C   UNL     1      -5.892  -2.102   8.161  0.00  0.00    +0.040 A 
ATOM     16  C   UNL     1      -5.058  -2.347   9.253  0.00  0.00    +0.013 A 
ATOM     17  C   UNL     1      -5.607  -2.617  10.490  0.00  0.00    +0.007 A 
ATOM     18  C   UNL     1      -6.981  -2.645  10.650  0.00  0.00    -0.015 A 
ATOM     19  C   UNL     1      -7.815  -2.403   9.570  0.00  0.00    +0.127 A 
ATOM     20  C   UNL     1      -7.277  -2.126   8.328  0.00  0.00    +0.051 A 
ATOM     21  F   UNL     1      -9.156  -2.433   9.734  0.00  0.00    -0.205 F 
ATOM     22  C   UNL     1      -7.573  -2.941  12.004  0.00  0.00    +0.047 C 
ENDBRANCH  11  15
BRANCH   1  24
ATOM     23  N   UNL     1      -0.450  -3.643   3.689  0.00  0.00    -0.311 N 
ATOM     24  C   UNL     1      -1.073  -2.818   4.553  0.00  0.00    +0.218 C 
ATOM     25  O   UNL     1      -0.519  -1.810   4.936  0.00  0.00    -0.275 OA
ATOM     26  H   UNL     1      -0.893  -4.450   3.383  0.00  0.00    +0.149 HD
BRANCH  23  27
ATOM     27  C   UNL     1       0.898  -3.323   3.213  0.00  0.00    +0.139 C 
BRANCH  27  33
ATOM     28  C   UNL     1       0.896  -5.375  -1.351  0.00  0.00    +0.044 C 
ATOM     29  C   UNL     1       1.364  -5.379   0.081  0.00  0.00    -0.047 A 
ATOM     30  C   UNL     1       2.221  -6.369   0.526  0.00  0.00    +0.003 A 
ATOM     31  C   UNL     1       2.649  -6.373   1.840  0.00  0.00    +0.001 A 
ATOM     32  C   UNL     1       2.221  -5.387   2.710  0.00  0.00    +0.005 A 
ATOM     33  C   UNL     1       1.365  -4.397   2.265  0.00  0.00    -0.027 A 
ATOM     34  C   UNL     1       0.940  -4.391   0.949  0.00  0.00    -0.043 A 
ATOM     35  C   UNL     1       0.011  -3.308   0.463  0.00  0.00    +0.044 C 
ENDBRANCH  27  33
ENDBRANCH  23  27
ENDBRANCH   1  24
TORSDOF 4
