REMARK  Name = ZINC12561032
REMARK  9 active torsions:
REMARK  status: ('A' for Active; 'I' for Inactive)
REMARK    1  A    between atoms: C_1  and  C_2
REMARK    2  A    between atoms: C_2  and  C_3
REMARK    3  A    between atoms: C_2  and  N_4
REMARK    4  A    between atoms: C_8  and  N_11
REMARK    5  A    between atoms: C_12  and  C_14
REMARK    6  A    between atoms: C_15  and  C_16
REMARK    7  A    between atoms: C_19  and  N_22
REMARK    8  A    between atoms: N_22  and  S_23
REMARK    9  A    between atoms: S_23  and  C_26
REMARK                            x       y       z     vdW  Elec       q    Type
REMARK                         _______ _______ _______ _____ _____    ______ ____
ROOT
ATOM      1  N   UNL     1       4.970   1.370   7.362  0.00  0.00    -0.281 N 
ATOM      2  C   UNL     1       4.081   2.347   7.096  0.00  0.00    +0.241 C 
ATOM      3  O   UNL     1       4.012   3.321   7.824  0.00  0.00    -0.270 OA
ATOM      4  H   UNL     1       4.975   0.560   6.828  0.00  0.00    +0.155 HD
ENDROOT
BRANCH   1   9
ATOM      5  N   UNL     1       8.566   2.101  11.444  0.00  0.00    -0.244 N 
ATOM      6  C   UNL     1       7.676   1.708  10.478  0.00  0.00    +0.159 A 
ATOM      7  C   UNL     1       7.295   2.874   9.786  0.00  0.00    +0.040 A 
ATOM      8  C   UNL     1       6.385   2.777   8.727  0.00  0.00    +0.038 A 
ATOM      9  C   UNL     1       5.887   1.523   8.410  0.00  0.00    +0.053 A 
ATOM     10  C   UNL     1       6.311   0.414   9.142  0.00  0.00    +0.136 A 
ATOM     11  N   UNL     1       7.171   0.532  10.129  0.00  0.00    -0.234 NA
ATOM     12  C   UNL     1       8.018   3.979  10.406  0.00  0.00    +0.144 A 
ATOM     13  N   UNL     1       8.746   3.486  11.367  0.00  0.00    -0.177 NA
BRANCH   5  15
ATOM     14  C   UNL     1      10.740   1.300  12.225  0.00  0.00    +0.032 C 
ATOM     15  C   UNL     1       9.223   1.212  12.404  0.00  0.00    +0.103 C 
ATOM     16  C   UNL     1       8.853   1.635  13.827  0.00  0.00    +0.032 C 
ENDBRANCH   5  15
ENDBRANCH   1   9
BRANCH   2  17
ATOM     17  C   UNL     1       3.201   2.238   5.935  0.00  0.00    +0.068 C 
ATOM     18  C   UNL     1       2.310   3.218   5.668  0.00  0.00    +0.013 C 
BRANCH  18  19
ATOM     19  C   UNL     1       1.425   3.108   4.501  0.00  0.00    -0.025 A 
ATOM     20  C   UNL     1       0.501   4.123   4.223  0.00  0.00    +0.010 A 
ATOM     21  C   UNL     1      -0.324   4.016   3.132  0.00  0.00    +0.025 A 
ATOM     22  C   UNL     1      -0.243   2.901   2.302  0.00  0.00    +0.048 A 
ATOM     23  C   UNL     1       0.671   1.887   2.578  0.00  0.00    +0.025 A 
ATOM     24  C   UNL     1       1.503   1.989   3.663  0.00  0.00    +0.010 A 
BRANCH  22  25
ATOM     25  N   UNL     1      -1.081   2.797   1.197  0.00  0.00    -0.221 N 
ATOM     26  H   UNL     1      -2.028   2.987   1.287  0.00  0.00    +0.173 HD
BRANCH  25  27
ATOM     27  S   UNL     1      -0.462   2.350  -0.273  0.00  0.00    +0.040 S 
ATOM     28  O   UNL     1      -1.567   2.408  -1.164  0.00  0.00    -0.155 OA
ATOM     29  O   UNL     1       0.205   1.120  -0.026  0.00  0.00    -0.155 OA
ATOM     30  C   UNL     1       0.741   3.643  -0.685  0.00  0.00    +0.218 C 
ENDBRANCH  25  27
ENDBRANCH  22  25
ENDBRANCH  18  19
ENDBRANCH   2  17
TORSDOF 6
