REMARK  Name = ZINC44785158
REMARK  6 active torsions:
REMARK  status: ('A' for Active; 'I' for Inactive)
REMARK    1  A    between atoms: C_1  and  C_2
REMARK    2  A    between atoms: C_2  and  C_4
REMARK    3  A    between atoms: C_2  and  N_9
REMARK    4  A    between atoms: C_10  and  C_12
REMARK    5  A    between atoms: C_12  and  C_18
REMARK    6  A    between atoms: N_19  and  O_20
REMARK                            x       y       z     vdW  Elec       q    Type
REMARK                         _______ _______ _______ _____ _____    ______ ____
ROOT
ATOM      1  C   UNL     1      -3.415  -1.235   1.098  0.00  0.00    +0.105 C 
ATOM      2  C   UNL     1      -4.282  -0.347   0.202  0.00  0.00    +0.024 C 
ATOM      3  C   UNL     1      -4.349   1.062   0.793  0.00  0.00    +0.001 C 
ATOM      4  C   UNL     1      -4.961   0.999   2.195  0.00  0.00    +0.000 C 
ATOM      5  C   UNL     1      -4.094   0.112   3.090  0.00  0.00    +0.001 C 
ATOM      6  C   UNL     1      -4.026  -1.298   2.499  0.00  0.00    +0.024 C 
ENDROOT
BRANCH   1   7
ATOM      7  C   UNL     1      -3.348  -2.623   0.516  0.00  0.00    +0.147 C 
ATOM      8  N   UNL     1      -3.865  -3.618   1.157  0.00  0.00    -0.076 NA
ATOM      9  N   UNL     1      -2.737  -2.831  -0.701  0.00  0.00    -0.343 N 
ATOM     10  H   UNL     1      -2.415  -2.076  -1.217  0.00  0.00    +0.144 HD
ATOM     11  H   UNL     1      -2.628  -3.733  -1.041  0.00  0.00    +0.144 HD
BRANCH   8  12
ATOM     12  O   UNL     1      -3.803  -4.923   0.611  0.00  0.00    -0.408 OA
ATOM     13  H   UNL     1      -4.216  -5.601   1.163  0.00  0.00    +0.328 HD
ENDBRANCH   8  12
ENDBRANCH   1   7
BRANCH   1  15
ATOM     14  N   UNL     1      -1.125  -1.191   2.031  0.00  0.00    -0.305 N 
ATOM     15  C   UNL     1      -2.025  -0.658   1.182  0.00  0.00    +0.227 C 
ATOM     16  O   UNL     1      -1.716   0.285   0.485  0.00  0.00    -0.275 OA
ATOM     17  H   UNL     1      -1.391  -1.897   2.641  0.00  0.00    +0.149 HD
BRANCH  14  19
ATOM     18  C   UNL     1       1.059  -1.437   0.957  0.00  0.00    +0.036 C 
ATOM     19  C   UNL     1       0.257  -0.704   2.035  0.00  0.00    +0.136 C 
BRANCH  19  20
ATOM     20  C   UNL     1       0.877  -0.961   3.384  0.00  0.00    +0.125 A 
ATOM     21  C   UNL     1       1.689  -0.120   4.050  0.00  0.00    +0.046 A 
ATOM     22  C   UNL     1       2.034  -0.758   5.263  0.00  0.00    +0.041 A 
ATOM     23  C   UNL     1       1.412  -1.951   5.267  0.00  0.00    +0.195 A 
ATOM     24  O   UNL     1       0.708  -2.066   4.129  0.00  0.00    -0.466 OA
ENDBRANCH  19  20
ENDBRANCH  14  19
ENDBRANCH   1  15
TORSDOF 5
