REMARK  Name = ZINC13048850
REMARK  10 active torsions:
REMARK  status: ('A' for Active; 'I' for Inactive)
REMARK    1  A    between atoms: C_1  and  C_2
REMARK    2  A    between atoms: C_5  and  N_9
REMARK    3  A    between atoms: C_10  and  C_12
REMARK    4  A    between atoms: C_12  and  S_13
REMARK    5  A    between atoms: S_13  and  C_14
REMARK    6  A    between atoms: C_18  and  C_29
REMARK    7  A    between atoms: N_24  and  C_25
REMARK    8  A    between atoms: C_25  and  C_26
REMARK    9  A    between atoms: C_26  and  C_27
REMARK   10  A    between atoms: C_26  and  C_28
REMARK                            x       y       z     vdW  Elec       q    Type
REMARK                         _______ _______ _______ _____ _____    ______ ____
ROOT
ATOM      1  C   UNL     1       1.590  -2.719  -0.716  0.00  0.00    +0.173 A 
ATOM      2  N   UNL     1       1.576  -4.029  -0.733  0.00  0.00    -0.223 NA
ATOM      3  C   UNL     1       0.578  -4.719  -1.332  0.00  0.00    +0.080 A 
ATOM      4  C   UNL     1       0.567  -6.117  -1.353  0.00  0.00    +0.043 A 
ATOM      5  C   UNL     1      -0.479  -6.782  -1.980  0.00  0.00    +0.065 A 
ATOM      6  C   UNL     1      -1.517  -6.063  -2.586  0.00  0.00    +0.016 A 
ATOM      7  C   UNL     1      -1.517  -4.698  -2.572  0.00  0.00    +0.016 A 
ATOM      8  C   UNL     1      -0.477  -4.009  -1.948  0.00  0.00    +0.065 A 
ATOM      9  C   UNL     1      -0.439  -2.539  -1.909  0.00  0.00    +0.262 A 
ATOM     10  O   UNL     1      -1.317  -1.871  -2.422  0.00  0.00    -0.267 OA
ATOM     11  N   UNL     1       0.609  -1.956  -1.282  0.00  0.00    -0.287 N 
ENDROOT
BRANCH   5  12
ATOM     12  C   UNL     1      -0.497  -8.261  -2.007  0.00  0.00    +0.387 C 
ATOM     13  O   UNL     1       0.401  -8.889  -1.483  0.00  0.00    -0.241 OA
ATOM     14  O   UNL     1      -1.509  -8.912  -2.613  0.00  0.00    -0.241 OA
ENDBRANCH   5  12
BRANCH   1  15
ATOM     15  S   UNL     1       2.934  -1.904   0.081  0.00  0.00    -0.078 S 
BRANCH  15  16
ATOM     16  C   UNL     1       3.893  -3.338   0.626  0.00  0.00    +0.173 C 
BRANCH  16  18
ATOM     17  N   UNL     1       5.997  -3.770   1.854  0.00  0.00    -0.283 N 
ATOM     18  C   UNL     1       5.127  -2.870   1.354  0.00  0.00    +0.228 C 
ATOM     19  O   UNL     1       5.337  -1.683   1.491  0.00  0.00    -0.275 OA
ATOM     20  H   UNL     1       5.797  -4.718   1.802  0.00  0.00    +0.155 HD
BRANCH  17  25
ATOM     21  C   UNL     1      10.826  -2.014   4.265  0.00  0.00    +0.044 C 
ATOM     22  C   UNL     1       9.544  -2.481   3.624  0.00  0.00    -0.048 A 
ATOM     23  C   UNL     1       8.393  -1.726   3.753  0.00  0.00    +0.005 A 
ATOM     24  C   UNL     1       7.216  -2.151   3.168  0.00  0.00    +0.026 A 
ATOM     25  C   UNL     1       7.189  -3.337   2.448  0.00  0.00    +0.069 A 
ATOM     26  C   UNL     1       8.346  -4.098   2.323  0.00  0.00    +0.145 A 
ATOM     27  C   UNL     1       9.522  -3.664   2.908  0.00  0.00    +0.043 A 
ATOM     28  F   UNL     1       8.323  -5.256   1.628  0.00  0.00    -0.204 F 
ENDBRANCH  17  25
ENDBRANCH  16  18
ENDBRANCH  15  16
ENDBRANCH   1  15
BRANCH  11  29
ATOM     29  C   UNL     1       0.695  -0.495  -1.215  0.00  0.00    +0.130 C 
BRANCH  29  30
ATOM     30  C   UNL     1      -0.010  -0.000   0.050  0.00  0.00    +0.003 C 
ATOM     31  C   UNL     1      -0.029   1.530   0.057  0.00  0.00    +0.009 C 
ATOM     32  C   UNL     1       0.740  -0.507   1.283  0.00  0.00    +0.009 C 
ENDBRANCH  29  30
ENDBRANCH  11  29
TORSDOF 7
