REMARK  Name = ZINC42656608
REMARK  4 active torsions:
REMARK  status: ('A' for Active; 'I' for Inactive)
REMARK    1  A    between atoms: N_9  and  C_12
REMARK    2  A    between atoms: C_12  and  C_13
REMARK    3  A    between atoms: C_13  and  C_15
REMARK    4  A    between atoms: C_13  and  O_23
REMARK                            x       y       z     vdW  Elec       q    Type
REMARK                         _______ _______ _______ _____ _____    ______ ____
ROOT
ATOM      1  C   UNL     1       3.709  -3.428  -0.053  0.00  0.00    +0.153 C 
ENDROOT
BRANCH   1  10
ATOM      2  C   UNL     1      -0.017   1.382   0.010  0.00  0.00    +0.001 A 
ATOM      3  C   UNL     1       1.165   2.099   0.002  0.00  0.00    +0.001 A 
ATOM      4  C   UNL     1       2.385   1.442  -0.013  0.00  0.00    +0.014 A 
ATOM      5  C   UNL     1       2.420   0.056  -0.021  0.00  0.00    +0.049 A 
ATOM      6  C   UNL     1       1.215  -0.675  -0.013  0.00  0.00    +0.049 A 
ATOM      7  C   UNL     1       0.002  -0.004   0.002  0.00  0.00    +0.014 A 
ATOM      8  C   UNL     1       1.606  -2.100  -0.025  0.00  0.00    +0.254 C 
ATOM      9  O   UNL     1       0.843  -3.045  -0.023  0.00  0.00    -0.270 OA
ATOM     10  N   UNL     1       2.949  -2.175  -0.039  0.00  0.00    -0.231 N 
ATOM     11  C   UNL     1       3.503  -0.949  -0.038  0.00  0.00    +0.254 C 
ATOM     12  O   UNL     1       4.693  -0.709  -0.049  0.00  0.00    -0.270 OA
ENDBRANCH   1  10
BRANCH   1  13
ATOM     13  C   UNL     1       3.959  -3.857  -1.501  0.00  0.00    +0.162 C 
BRANCH  13  14
ATOM     14  C   UNL     1       4.740  -5.145  -1.515  0.00  0.00    -0.015 A 
ATOM     15  C   UNL     1       4.079  -6.355  -1.416  0.00  0.00    +0.009 A 
ATOM     16  C   UNL     1       4.793  -7.538  -1.429  0.00  0.00    +0.041 A 
ATOM     17  C   UNL     1       6.173  -7.512  -1.542  0.00  0.00    +0.158 A 
ATOM     18  C   UNL     1       6.836  -6.299  -1.642  0.00  0.00    +0.159 A 
ATOM     19  C   UNL     1       6.117  -5.116  -1.633  0.00  0.00    +0.047 A 
ATOM     20  F   UNL     1       8.182  -6.271  -1.752  0.00  0.00    -0.202 F 
ATOM     21  F   UNL     1       6.872  -8.668  -1.555  0.00  0.00    -0.202 F 
ENDBRANCH  13  14
BRANCH  13  22
ATOM     22  O   UNL     1       2.707  -4.051  -2.163  0.00  0.00    -0.386 OA
ATOM     23  H   UNL     1       2.149  -4.728  -1.757  0.00  0.00    +0.210 HD
ENDBRANCH  13  22
ENDBRANCH   1  13
TORSDOF 4
