REMARK  Name = ZINC44560412
REMARK  6 active torsions:
REMARK  status: ('A' for Active; 'I' for Inactive)
REMARK    1  A    between atoms: C_1  and  N_2
REMARK    2  A    between atoms: C_7  and  C_9
REMARK    3  A    between atoms: C_9  and  N_10
REMARK    4  A    between atoms: N_10  and  C_11
REMARK    5  A    between atoms: C_14  and  N_20
REMARK    6  A    between atoms: C_16  and  C_17
REMARK                            x       y       z     vdW  Elec       q    Type
REMARK                         _______ _______ _______ _____ _____    ______ ____
ROOT
ATOM      1  C   UNL     1      -0.765   1.964   3.438  0.00  0.00    +0.041 A 
ATOM      2  C   UNL     1      -1.158   1.248   4.562  0.00  0.00    +0.025 A 
ATOM      3  C   UNL     1      -1.733   1.899   5.632  0.00  0.00    +0.024 A 
ATOM      4  C   UNL     1      -1.925   3.278   5.597  0.00  0.00    +0.025 A 
ATOM      5  C   UNL     1      -1.540   4.006   4.487  0.00  0.00    +0.039 A 
ATOM      6  C   UNL     1      -0.950   3.356   3.398  0.00  0.00    +0.086 A 
ENDROOT
BRANCH   6   7
ATOM      7  C   UNL     1      -0.532   4.124   2.216  0.00  0.00    +0.388 C 
ATOM      8  O   UNL     1      -0.594   5.346   2.227  0.00  0.00    -0.241 OA
ATOM      9  O   UNL     1      -0.122   3.541   1.221  0.00  0.00    -0.241 OA
ENDBRANCH   6   7
BRANCH   4  10
ATOM     10  N   UNL     1      -2.511   3.928   6.690  0.00  0.00    -0.358 N 
ATOM     11  H   UNL     1      -2.782   3.419   7.470  0.00  0.00    +0.142 HD
ATOM     12  H   UNL     1      -2.646   4.889   6.668  0.00  0.00    +0.142 HD
ENDBRANCH   4  10
BRANCH   1  13
ATOM     13  N   UNL     1      -0.185   1.307   2.359  0.00  0.00    -0.345 N 
ATOM     14  H   UNL     1       0.009   1.793   1.542  0.00  0.00    +0.146 HD
BRANCH  13  15
ATOM     15  C   UNL     1       0.131  -0.120   2.455  0.00  0.00    +0.086 C 
BRANCH  15  22
ATOM     16  C   UNL     1       2.901   0.241   2.171  0.00  0.00    -0.096 C 
ATOM     17  N   UNL     1       2.042   0.291   0.982  0.00  0.00    +0.381 N 
ATOM     18  C   UNL     1       2.798  -0.176  -0.187  0.00  0.00    -0.079 C 
ATOM     19  C   UNL     1       1.933  -0.049  -1.443  0.00  0.00    -0.019 C 
ATOM     20  C   UNL     1       0.671  -0.901  -1.275  0.00  0.00    -0.003 C 
ATOM     21  C   UNL     1      -0.071  -0.454  -0.012  0.00  0.00    -0.014 C 
ATOM     22  C   UNL     1       0.869  -0.566   1.191  0.00  0.00    -0.052 C 
ATOM     23  H   UNL     1       1.739   1.241   0.826  0.00  0.00    -0.082 HD
ENDBRANCH  15  22
ENDBRANCH  13  15
ENDBRANCH   1  13
TORSDOF 5
