REMARK  Name = ZINC04059589
REMARK  3 active torsions:
REMARK  status: ('A' for Active; 'I' for Inactive)
REMARK    1  A    between atoms: C_2  and  N_10
REMARK    2  A    between atoms: C_12  and  N_18
REMARK    3  A    between atoms: C_13  and  N_17
REMARK                            x       y       z     vdW  Elec       q    Type
REMARK                         _______ _______ _______ _____ _____    ______ ____
ROOT
ATOM      1  N   UNL     1       2.394   1.762  -0.012  0.00  0.00    -0.296 N 
ATOM      2  C   UNL     1       3.582   2.471  -0.124  0.00  0.00    +0.159 A 
ATOM      3  C   UNL     1       4.795   1.800  -0.239  0.00  0.00    +0.205 A 
ATOM      4  C   UNL     1       5.958   2.556  -0.355  0.00  0.00    +0.152 A 
ATOM      5  N   UNL     1       5.868   3.885  -0.341  0.00  0.00    -0.219 NA
ATOM      6  C   UNL     1       4.700   4.483  -0.224  0.00  0.00    +0.225 A 
ATOM      7  N   UNL     1       3.577   3.803  -0.118  0.00  0.00    -0.218 NA
ATOM      8  H   UNL     1       2.412   0.797   0.077  0.00  0.00    +0.154 HD
ENDROOT
BRANCH   1  10
ATOM      9  C   UNL     1       1.094   3.725  -0.550  0.00  0.00    +0.046 A 
ATOM     10  C   UNL     1       1.171   2.441  -0.026  0.00  0.00    +0.052 A 
ATOM     11  C   UNL     1       0.030   1.831   0.483  0.00  0.00    +0.064 A 
ATOM     12  C   UNL     1      -1.178   2.502   0.462  0.00  0.00    +0.043 A 
ATOM     13  C   UNL     1      -1.251   3.783  -0.056  0.00  0.00    +0.061 A 
ATOM     14  C   UNL     1      -0.116   4.393  -0.564  0.00  0.00    +0.061 A 
ATOM     15 CL   UNL     1      -0.214   5.997  -1.218  0.00  0.00    -0.082 Cl
ATOM     16 CL   UNL     1      -2.770   4.624  -0.075  0.00  0.00    -0.082 Cl
ATOM     17 CL   UNL     1       0.123   0.227   1.139  0.00  0.00    -0.082 Cl
ENDBRANCH   1  10
BRANCH   4  18
ATOM     18  N   UNL     1       7.191   1.936  -0.479  0.00  0.00    -0.341 N 
ATOM     19  H   UNL     1       7.997   2.470  -0.556  0.00  0.00    +0.144 HD
ATOM     20  H   UNL     1       7.248   0.967  -0.489  0.00  0.00    +0.144 HD
ENDBRANCH   4  18
BRANCH   3  21
ATOM     21  N   UNL     1       4.848   0.321  -0.245  0.00  0.00    +0.063 N 
ATOM     22  O   UNL     1       4.771  -0.288  -1.297  0.00  0.00    -0.126 OA
ATOM     23  O   UNL     1       4.970  -0.288   0.803  0.00  0.00    -0.126 OA
ENDBRANCH   3  21
TORSDOF 3
