REMARK  Name = ZINC48366347
REMARK  5 active torsions:
REMARK  status: ('A' for Active; 'I' for Inactive)
REMARK    1  A    between atoms: C_1  and  C_2
REMARK    2  A    between atoms: N_10  and  C_13
REMARK    3  A    between atoms: C_13  and  C_14
REMARK    4  A    between atoms: C_14  and  C_16
REMARK    5  A    between atoms: C_14  and  O_23
REMARK                            x       y       z     vdW  Elec       q    Type
REMARK                         _______ _______ _______ _____ _____    ______ ____
ROOT
ATOM      1  C   UNL     1      -0.018   1.503   0.010  0.00  0.00    +0.044 C 
ATOM      2  C   UNL     1       0.002  -0.004   0.002  0.00  0.00    -0.050 A 
ATOM      3  C   UNL     1       0.006  -0.686  -1.208  0.00  0.00    +0.005 A 
ATOM      4  C   UNL     1       0.024  -2.062  -1.242  0.00  0.00    +0.029 A 
ATOM      5  C   UNL     1       0.040  -2.783  -0.046  0.00  0.00    +0.078 A 
ATOM      6  C   UNL     1       0.037  -2.087   1.182  0.00  0.00    +0.065 A 
ATOM      7  C   UNL     1       0.023  -0.693   1.195  0.00  0.00    +0.018 A 
ATOM      8  C   UNL     1       0.053  -2.875   2.423  0.00  0.00    +0.262 A 
ATOM      9  O   UNL     1       0.051  -2.337   3.515  0.00  0.00    -0.267 OA
ATOM     10  N   UNL     1       0.071  -4.223   2.304  0.00  0.00    -0.296 N 
ATOM     11  C   UNL     1       0.073  -4.810   1.079  0.00  0.00    +0.202 A 
ATOM     12  N   UNL     1       0.058  -4.140  -0.034  0.00  0.00    -0.237 NA
ENDROOT
BRANCH  10  13
ATOM     13  C   UNL     1       0.087  -5.058   3.508  0.00  0.00    +0.162 C 
BRANCH  13  14
ATOM     14  C   UNL     1      -1.349  -5.368   3.934  0.00  0.00    +0.166 C 
BRANCH  14  15
ATOM     15  C   UNL     1      -1.334  -6.122   5.239  0.00  0.00    +0.001 A 
ATOM     16  C   UNL     1      -1.381  -7.503   5.239  0.00  0.00    +0.007 A 
ATOM     17  C   UNL     1      -1.367  -8.195   6.436  0.00  0.00    +0.000 A 
ATOM     18  C   UNL     1      -1.308  -7.506   7.633  0.00  0.00    +0.001 A 
ATOM     19  C   UNL     1      -1.261  -6.125   7.633  0.00  0.00    +0.020 A 
ATOM     20  C   UNL     1      -1.269  -5.432   6.436  0.00  0.00    +0.047 A 
ATOM     21 CL   UNL     1      -1.204  -3.697   6.436  0.00  0.00    -0.083 Cl
ENDBRANCH  14  15
BRANCH  14  22
ATOM     22  O   UNL     1      -1.982  -6.164   2.931  0.00  0.00    -0.385 OA
ATOM     23  H   UNL     1      -1.545  -7.011   2.766  0.00  0.00    +0.210 HD
ENDBRANCH  14  22
ENDBRANCH  13  14
ENDBRANCH  10  13
TORSDOF 4
