REMARK  Name = ZINC18196521
REMARK  9 active torsions:
REMARK  status: ('A' for Active; 'I' for Inactive)
REMARK    1  A    between atoms: C_1  and  O_2
REMARK    2  A    between atoms: O_2  and  C_3
REMARK    3  A    between atoms: C_5  and  C_13
REMARK    4  A    between atoms: C_6  and  O_11
REMARK    5  A    between atoms: C_8  and  O_9
REMARK    6  A    between atoms: O_9  and  C_10
REMARK    7  A    between atoms: O_11  and  C_12
REMARK    8  A    between atoms: C_20  and  O_21
REMARK    9  A    between atoms: C_28  and  C_31
REMARK                            x       y       z     vdW  Elec       q    Type
REMARK                         _______ _______ _______ _____ _____    ______ ____
ROOT
ATOM      1  C   UNL     1       1.525   0.036   6.149  0.00  0.00    +0.096 C 
ATOM      2  C   UNL     1       0.513  -0.757   6.926  0.00  0.00    +0.067 A 
ATOM      3  C   UNL     1      -0.154  -0.240   8.004  0.00  0.00    +0.126 A 
ATOM      4  N   UNL     1      -0.984  -1.193   8.470  0.00  0.00    -0.260 N 
ATOM      5  H   UNL     1      -1.602  -1.105   9.251  0.00  0.00    +0.190 HD
ATOM      6  N   UNL     1      -0.824  -2.331   7.664  0.00  0.00    -0.134 NA
ATOM      7  C   UNL     1       0.074  -2.065   6.740  0.00  0.00    +0.237 A 
ATOM      8  N   UNL     1       0.078   1.058   8.445  0.00  0.00    -0.303 N 
ATOM      9  C   UNL     1       1.192   1.716   7.986  0.00  0.00    +0.017 C 
ATOM     10  C   UNL     1       1.906   1.276   6.929  0.00  0.00    +0.024 C 
ATOM     11  C   UNL     1       3.057   1.962   6.503  0.00  0.00    +0.162 C 
ATOM     12  O   UNL     1       3.677   1.543   5.545  0.00  0.00    -0.292 OA
ATOM     13  C   UNL     1       3.539   3.202   7.203  0.00  0.00    +0.088 C 
ATOM     14  C   UNL     1       3.108   3.142   8.672  0.00  0.00    +0.039 C 
ATOM     15  C   UNL     1       1.590   2.977   8.719  0.00  0.00    +0.060 C 
ATOM     16  H   UNL     1      -0.533   1.488   9.063  0.00  0.00    +0.153 HD
ENDROOT
BRANCH   1  19
ATOM     17  C   UNL     1      -0.749   1.596   3.566  0.00  0.00    +0.162 A 
ATOM     18  C   UNL     1      -0.204   1.223   4.784  0.00  0.00    +0.057 A 
ATOM     19  C   UNL     1       0.935   0.440   4.822  0.00  0.00    +0.010 A 
ATOM     20  C   UNL     1       1.535   0.027   3.642  0.00  0.00    +0.128 A 
ATOM     21  C   UNL     1       0.990   0.393   2.421  0.00  0.00    +0.095 A 
ATOM     22  C   UNL     1      -0.148   1.182   2.380  0.00  0.00    +0.165 A 
BRANCH  17  24
ATOM     23  C   UNL     1      -2.432   2.754   4.783  0.00  0.00    +0.277 C 
ATOM     24  O   UNL     1      -1.869   2.366   3.528  0.00  0.00    -0.491 OA
ENDBRANCH  17  24
BRANCH  22  25
ATOM     25  O   UNL     1      -0.682   1.547   1.184  0.00  0.00    -0.491 OA
ATOM     26  C   UNL     1      -0.013   1.086   0.008  0.00  0.00    +0.277 C 
ENDBRANCH  22  25
BRANCH  20  27
ATOM     27  O   UNL     1       2.655  -0.742   3.683  0.00  0.00    -0.495 OA
ATOM     28  C   UNL     1       3.221  -1.132   2.430  0.00  0.00    +0.277 C 
ENDBRANCH  20  27
ENDBRANCH   1  19
BRANCH  14  29
ATOM     29  C   UNL     1       3.502   4.418   9.370  0.00  0.00    -0.006 A 
ATOM     30  C   UNL     1       4.319   4.589  10.438  0.00  0.00    +0.011 A 
ATOM     31  C   UNL     1       4.543   5.868  10.913  0.00  0.00    +0.008 A 
ATOM     32  C   UNL     1       3.931   6.912  10.302  0.00  0.00    +0.045 A 
ATOM     33  S   UNL     1       3.010   6.095   9.009  0.00  0.00    -0.101 S 
ENDBRANCH  14  29
BRANCH   7  34
ATOM     34  O   UNL     1       0.499  -2.919   5.771  0.00  0.00    -0.491 OA
ATOM     35  H   UNL     1       0.022  -3.793   5.865  0.00  0.00    +0.294 HD
ENDBRANCH   7  34
TORSDOF 6
