REMARK  Name = ZINC39279801
REMARK  6 active torsions:
REMARK  status: ('A' for Active; 'I' for Inactive)
REMARK    1  A    between atoms: C_1  and  C_2
REMARK    2  A    between atoms: C_3  and  C_15
REMARK    3  A    between atoms: N_6  and  C_8
REMARK    4  A    between atoms: C_19  and  C_29
REMARK    5  A    between atoms: C_24  and  N_28
REMARK    6  A    between atoms: C_25  and  C_26
REMARK                            x       y       z     vdW  Elec       q    Type
REMARK                         _______ _______ _______ _____ _____    ______ ____
ROOT
ATOM      1  C   UNL     1      -2.504  -0.267   0.013  0.00  0.00    +0.083 C 
ATOM      2  C   UNL     1      -3.218  -0.794   1.264  0.00  0.00    +0.140 C 
ATOM      3  C   UNL     1      -2.258  -0.899   2.427  0.00  0.00    +0.084 C 
ATOM      4  N   UNL     1      -2.186  -2.169   2.723  0.00  0.00    -0.150 NA
ATOM      5  N   UNL     1      -2.960  -2.956   1.871  0.00  0.00    -0.115 NA
ATOM      6  C   UNL     1      -3.565  -2.250   0.963  0.00  0.00    +0.227 C 
ATOM      7  O   UNL     1      -4.300  -2.585  -0.119  0.00  0.00    -0.425 OA
ATOM      8  C   UNL     1      -4.029  -1.850  -1.228  0.00  0.00    +0.200 C 
ATOM      9  C   UNL     1      -3.217  -0.771  -1.212  0.00  0.00    +0.095 C 
ENDROOT
BRANCH   1  12
ATOM     10  C   UNL     1      -0.018   1.503   0.010  0.00  0.00    +0.062 C 
ATOM     11  C   UNL     1       0.002  -0.004   0.002  0.00  0.00    +0.022 C 
ATOM     12  C   UNL     1      -1.078  -0.756   0.003  0.00  0.00    -0.006 C 
ATOM     13  C   UNL     1      -0.628  -2.200  -0.007  0.00  0.00    +0.213 C 
ATOM     14  N   UNL     1       0.843  -2.128  -0.013  0.00  0.00    -0.231 N 
ATOM     15  N   UNL     1       1.157  -0.762  -0.014  0.00  0.00    -0.267 N 
ATOM     16 CL   UNL     1      -1.227  -3.035  -1.488  0.00  0.00    -0.094 Cl
ATOM     17  H   UNL     1       2.057  -0.401  -0.021  0.00  0.00    +0.170 HD
BRANCH  14  18
ATOM     18  C   UNL     1       1.739  -3.200  -0.024  0.00  0.00    +0.050 A 
ATOM     19  C   UNL     1       1.263  -4.505  -0.034  0.00  0.00    +0.025 A 
ATOM     20  C   UNL     1       2.152  -5.562  -0.045  0.00  0.00    +0.002 A 
ATOM     21  C   UNL     1       3.514  -5.322  -0.044  0.00  0.00    +0.000 A 
ATOM     22  C   UNL     1       3.991  -4.024  -0.033  0.00  0.00    +0.002 A 
ATOM     23  C   UNL     1       3.107  -2.962  -0.029  0.00  0.00    +0.025 A 
ENDBRANCH  14  18
ENDBRANCH   1  12
BRANCH   3  24
ATOM     24  C   UNL     1      -1.548   0.206   3.090  0.00  0.00    -0.001 A 
ATOM     25  C   UNL     1      -1.735   1.522   2.656  0.00  0.00    +0.011 A 
ATOM     26  C   UNL     1      -1.066   2.552   3.283  0.00  0.00    +0.016 A 
ATOM     27  C   UNL     1      -0.210   2.286   4.339  0.00  0.00    +0.018 A 
ATOM     28  C   UNL     1      -0.020   0.985   4.774  0.00  0.00    +0.016 A 
ATOM     29  C   UNL     1      -0.687  -0.055   4.161  0.00  0.00    +0.011 A 
ATOM     30 BR   UNL     1       0.704   3.706   5.190  0.00  0.00    -0.050 Br
ENDBRANCH   3  24
BRANCH   8  31
ATOM     31  N   UNL     1      -4.607  -2.219  -2.418  0.00  0.00    -0.328 N 
ATOM     32  H   UNL     1      -5.194  -2.990  -2.454  0.00  0.00    +0.145 HD
ATOM     33  H   UNL     1      -4.428  -1.708  -3.223  0.00  0.00    +0.145 HD
ENDBRANCH   8  31
BRANCH   9  34
ATOM     34  C   UNL     1      -3.022  -0.059  -2.439  0.00  0.00    +0.100 C 
ATOM     35  N   UNL     1      -2.868   0.505  -3.413  0.00  0.00    -0.191 NA
ENDBRANCH   9  34
TORSDOF 5
