REMARK  Name = ZINC65461998
REMARK  1 active torsions:
REMARK  status: ('A' for Active; 'I' for Inactive)
REMARK    1  A    between atoms: C_8  and  C_10
REMARK                            x       y       z     vdW  Elec       q    Type
REMARK                         _______ _______ _______ _____ _____    ______ ____
ROOT
ATOM      1  C   UNL     1       3.799  -3.358  -0.053  0.00  0.00    +0.102 C 
ATOM      2  C   UNL     1       4.659  -3.385   1.201  0.00  0.00    +0.112 C 
ATOM      3  C   UNL     1       5.422  -4.671   1.289  0.00  0.00    +0.214 C 
ATOM      4  O   UNL     1       5.138  -5.460   2.165  0.00  0.00    -0.276 OA
ATOM      5  N   UNL     1       6.399  -4.978   0.443  0.00  0.00    -0.310 N 
ATOM      6  C   UNL     1       6.940  -4.009  -0.496  0.00  0.00    +0.160 C 
ATOM      7  C   UNL     1       5.917  -3.606  -1.539  0.00  0.00    +0.071 A 
ATOM      8  C   UNL     1       4.619  -3.371  -1.301  0.00  0.00    +0.027 A 
ATOM      9  S   UNL     1       3.986  -3.037  -2.936  0.00  0.00    -0.057 S 
ATOM     10  C   UNL     1       5.443  -3.156  -3.767  0.00  0.00    +0.156 A 
ATOM     11  N   UNL     1       6.290  -3.459  -2.823  0.00  0.00    -0.228 NA
ATOM     12  N   UNL     1       5.683  -2.981  -5.121  0.00  0.00    -0.338 N 
ATOM     13  H   UNL     1       6.763  -5.877   0.451  0.00  0.00    +0.149 HD
ATOM     14  H   UNL     1       4.952  -2.758  -5.718  0.00  0.00    +0.144 HD
ATOM     15  H   UNL     1       6.582  -3.080  -5.471  0.00  0.00    +0.144 HD
ENDROOT
BRANCH   1  23
ATOM     16  C   UNL     1      -0.017   1.363   0.009  0.00  0.00    +0.001 A 
ATOM     17  C   UNL     1       1.170   2.082   0.002  0.00  0.00    +0.004 A 
ATOM     18  C   UNL     1       2.386   1.432  -0.013  0.00  0.00    +0.047 A 
ATOM     19  C   UNL     1       2.427   0.043  -0.021  0.00  0.00    +0.135 A 
ATOM     20  C   UNL     1       1.222  -0.679  -0.013  0.00  0.00    +0.020 A 
ATOM     21  C   UNL     1       0.002  -0.004   0.002  0.00  0.00    +0.011 A 
ATOM     22  C   UNL     1       1.613  -2.093  -0.025  0.00  0.00    +0.054 A 
ATOM     23  C   UNL     1       2.952  -2.111  -0.038  0.00  0.00    +0.115 A 
ATOM     24  O   UNL     1       3.432  -0.855  -0.036  0.00  0.00    -0.459 OA
ENDBRANCH   1  23
TORSDOF 1
