REMARK  Name = ZINC39857275
REMARK  6 active torsions:
REMARK  status: ('A' for Active; 'I' for Inactive)
REMARK    1  A    between atoms: C_1  and  C_2
REMARK    2  A    between atoms: C_2  and  C_3
REMARK    3  A    between atoms: C_6  and  N_9
REMARK    4  A    between atoms: C_13  and  C_14
REMARK    5  A    between atoms: C_17  and  O_21
REMARK    6  A    between atoms: C_18  and  O_20
REMARK                            x       y       z     vdW  Elec       q    Type
REMARK                         _______ _______ _______ _____ _____    ______ ____
ROOT
ATOM      1  N   UNL     1       2.677  -0.695   5.127  0.00  0.00    -0.197 N 
ATOM      2  C   UNL     1       2.021  -1.367   6.057  0.00  0.00    +0.265 C 
ATOM      3  O   UNL     1       0.806  -1.445   6.053  0.00  0.00    -0.269 OA
ATOM      4  C   UNL     1       2.836  -2.020   7.100  0.00  0.00    +0.080 C 
ATOM      5  C   UNL     1       2.444  -2.767   8.164  0.00  0.00    +0.028 C 
ATOM      6  S   UNL     1       4.482  -1.558   6.578  0.00  0.00    -0.025 S 
ATOM      7  C   UNL     1       4.024  -0.616   5.132  0.00  0.00    +0.290 C 
ATOM      8  O   UNL     1       4.750  -0.040   4.344  0.00  0.00    -0.262 OA
ENDROOT
BRANCH   1  12
ATOM      9  C   UNL     1       0.536   1.212   2.101  0.00  0.00    -0.048 A 
ATOM     10  C   UNL     1       1.379   0.160   1.792  0.00  0.00    +0.005 A 
ATOM     11  C   UNL     1       2.090  -0.474   2.793  0.00  0.00    +0.024 A 
ATOM     12  C   UNL     1       1.957  -0.053   4.109  0.00  0.00    +0.045 A 
ATOM     13  C   UNL     1       1.111   1.003   4.416  0.00  0.00    +0.024 A 
ATOM     14  C   UNL     1       0.407   1.637   3.410  0.00  0.00    +0.005 A 
BRANCH   9  16
ATOM     15  C   UNL     1       0.592   3.057   0.445  0.00  0.00    +0.009 C 
ATOM     16  C   UNL     1      -0.238   1.901   1.007  0.00  0.00    +0.032 C 
ENDBRANCH   9  16
ENDBRANCH   1  12
BRANCH   5  17
ATOM     17  C   UNL     1       3.421  -3.156   9.188  0.00  0.00    -0.020 A 
ATOM     18  C   UNL     1       4.712  -2.615   9.168  0.00  0.00    +0.012 A 
ATOM     19  C   UNL     1       5.627  -2.982  10.131  0.00  0.00    +0.050 A 
ATOM     20  C   UNL     1       5.272  -3.888  11.122  0.00  0.00    +0.158 A 
ATOM     21  C   UNL     1       3.988  -4.431  11.149  0.00  0.00    +0.159 A 
ATOM     22  C   UNL     1       3.063  -4.065  10.192  0.00  0.00    +0.057 A 
BRANCH  21  23
ATOM     23  O   UNL     1       3.646  -5.318  12.121  0.00  0.00    -0.503 OA
ATOM     24  H   UNL     1       3.275  -4.908  12.915  0.00  0.00    +0.292 HD
ENDBRANCH  21  23
BRANCH  20  25
ATOM     25  O   UNL     1       6.179  -4.245  12.068  0.00  0.00    -0.503 OA
ATOM     26  H   UNL     1       6.170  -3.682  12.854  0.00  0.00    +0.292 HD
ENDBRANCH  20  25
ENDBRANCH   5  17
TORSDOF 5
