REMARK  Name = ZINC32558252
REMARK  4 active torsions:
REMARK  status: ('A' for Active; 'I' for Inactive)
REMARK    1  A    between atoms: C_4  and  C_7
REMARK    2  A    between atoms: C_14  and  N_25
REMARK    3  A    between atoms: C_15  and  C_23
REMARK    4  A    between atoms: C_16  and  C_18
REMARK                            x       y       z     vdW  Elec       q    Type
REMARK                         _______ _______ _______ _____ _____    ______ ____
ROOT
ATOM      1  C   UNL     1       4.041  -0.990  -0.206  0.00  0.00    +0.100 A 
ATOM      2  C   UNL     1       4.158  -2.070   0.674  0.00  0.00    +0.055 A 
ATOM      3  C   UNL     1       5.424  -2.569   0.565  0.00  0.00    +0.223 A 
ATOM      4  N   UNL     1       6.079  -1.828  -0.354  0.00  0.00    -0.246 N 
ATOM      5  H   UNL     1       6.997  -1.955  -0.638  0.00  0.00    +0.192 HD
ATOM      6  N   UNL     1       5.195  -0.847  -0.829  0.00  0.00    -0.171 NA
ATOM      7  O   UNL     1       5.859  -3.626   1.294  0.00  0.00    -0.423 OA
ATOM      8  C   UNL     1       5.104  -4.017   2.340  0.00  0.00    +0.200 C 
ATOM      9  C   UNL     1       3.834  -3.602   2.548  0.00  0.00    +0.099 C 
ATOM     10  C   UNL     1       3.131  -2.652   1.611  0.00  0.00    +0.108 C 
ENDROOT
BRANCH   1  14
ATOM     11  C   UNL     1       0.572   1.401  -0.787  0.00  0.00    +0.000 A 
ATOM     12  C   UNL     1       0.943   1.023   0.491  0.00  0.00    +0.001 A 
ATOM     13  C   UNL     1       2.067   0.247   0.685  0.00  0.00    +0.010 A 
ATOM     14  C   UNL     1       2.830  -0.156  -0.409  0.00  0.00    +0.003 A 
ATOM     15  C   UNL     1       2.452   0.228  -1.694  0.00  0.00    +0.010 A 
ATOM     16  C   UNL     1       1.326   1.004  -1.877  0.00  0.00    +0.001 A 
ENDBRANCH   1  14
BRANCH  10  17
ATOM     17  C   UNL     1       2.086  -3.397   0.821  0.00  0.00    +0.003 A 
ATOM     18  C   UNL     1       0.739  -3.243   0.830  0.00  0.00    +0.012 A 
ATOM     19  C   UNL     1      -0.032  -4.046   0.011  0.00  0.00    +0.008 A 
ATOM     20  C   UNL     1       0.580  -4.964  -0.776  0.00  0.00    +0.045 A 
ATOM     21  S   UNL     1       2.301  -4.704  -0.376  0.00  0.00    -0.101 S 
ENDBRANCH  10  17
BRANCH   8  22
ATOM     22  N   UNL     1       5.656  -4.887   3.247  0.00  0.00    -0.328 N 
ATOM     23  H   UNL     1       6.565  -5.202   3.125  0.00  0.00    +0.145 HD
ATOM     24  H   UNL     1       5.137  -5.186   4.010  0.00  0.00    +0.145 HD
ENDBRANCH   8  22
BRANCH   9  25
ATOM     25  C   UNL     1       3.131  -4.083   3.698  0.00  0.00    +0.101 C 
ATOM     26  N   UNL     1       2.573  -4.465   4.611  0.00  0.00    -0.191 NA
ENDBRANCH   9  25
TORSDOF 4
