REMARK  Name = ZINC02146257
REMARK  6 active torsions:
REMARK  status: ('A' for Active; 'I' for Inactive)
REMARK    1  A    between atoms: C_1  and  C_2
REMARK    2  A    between atoms: C_5  and  N_8
REMARK    3  A    between atoms: C_9  and  O_29
REMARK    4  A    between atoms: C_10  and  C_17
REMARK    5  A    between atoms: C_23  and  C_26
REMARK    6  A    between atoms: C_24  and  O_25
REMARK                            x       y       z     vdW  Elec       q    Type
REMARK                         _______ _______ _______ _____ _____    ______ ____
ROOT
ATOM      1  N   UNL     1       2.313   5.347  -0.897  0.00  0.00    -0.260 N 
ATOM      2  C   UNL     1       2.596   4.075  -0.462  0.00  0.00    +0.211 A 
ATOM      3  C   UNL     1       1.962   3.014  -1.037  0.00  0.00    +0.110 A 
ATOM      4  C   UNL     1       1.023   3.250  -2.058  0.00  0.00    +0.262 A 
ATOM      5  O   UNL     1       0.441   2.317  -2.583  0.00  0.00    -0.267 OA
ATOM      6  N   UNL     1       0.771   4.515  -2.450  0.00  0.00    -0.302 N 
ATOM      7  H   UNL     1       0.105   4.686  -3.176  0.00  0.00    +0.171 HD
ATOM      8  C   UNL     1       1.411   5.549  -1.874  0.00  0.00    +0.168 A 
ATOM      9  S   UNL     1       1.071   7.145  -2.393  0.00  0.00    -0.012 S 
ENDROOT
BRANCH   3  10
ATOM     10  C   UNL     1       2.259   1.609  -0.582  0.00  0.00    +0.193 C 
ATOM     11  C   UNL     1       2.853   0.810  -1.714  0.00  0.00    +0.036 A 
ATOM     12  C   UNL     1       2.245  -0.438  -1.705  0.00  0.00    +0.006 A 
ATOM     13  C   UNL     1       2.611  -1.372  -2.650  0.00  0.00    +0.117 A 
ATOM     14  N   UNL     1       3.530  -1.089  -3.555  0.00  0.00    -0.256 NA
ATOM     15  C   UNL     1       4.130   0.085  -3.596  0.00  0.00    +0.080 A 
ATOM     16  C   UNL     1       3.812   1.077  -2.677  0.00  0.00    +0.144 A 
ATOM     17  C   UNL     1       5.171   0.353  -4.652  0.00  0.00    +0.069 C 
ATOM     18  C   UNL     1       1.257  -0.445  -0.565  0.00  0.00    +0.198 C 
ATOM     19  O   UNL     1       1.037   0.936  -0.221  0.00  0.00    -0.362 OA
BRANCH  16  20
ATOM     20  O   UNL     1       4.431   2.286  -2.721  0.00  0.00    -0.505 OA
ATOM     21  H   UNL     1       3.982   2.938  -3.277  0.00  0.00    +0.292 HD
ENDBRANCH  16  20
ENDBRANCH   3  10
BRANCH   1  26
ATOM     22  C   UNL     1       4.952   9.782   1.463  0.00  0.00    +0.044 C 
ATOM     23  C   UNL     1       4.251   8.604   0.836  0.00  0.00    -0.050 A 
ATOM     24  C   UNL     1       4.805   7.979  -0.266  0.00  0.00    +0.005 A 
ATOM     25  C   UNL     1       4.165   6.899  -0.842  0.00  0.00    +0.026 A 
ATOM     26  C   UNL     1       2.965   6.442  -0.314  0.00  0.00    +0.052 A 
ATOM     27  C   UNL     1       2.408   7.076   0.789  0.00  0.00    +0.026 A 
ATOM     28  C   UNL     1       3.056   8.152   1.364  0.00  0.00    +0.005 A 
ENDBRANCH   1  26
BRANCH   2  29
ATOM     29  O   UNL     1       3.498   3.877   0.522  0.00  0.00    -0.493 OA
ATOM     30  H   UNL     1       3.834   4.693   0.918  0.00  0.00    +0.294 HD
ENDBRANCH   2  29
TORSDOF 4
