REMARK  Name = ZINC49146923
REMARK  11 active torsions:
REMARK  status: ('A' for Active; 'I' for Inactive)
REMARK    1  A    between atoms: C_1  and  C_2
REMARK    2  A    between atoms: C_3  and  C_21
REMARK    3  A    between atoms: N_4  and  C_12
REMARK    4  A    between atoms: C_7  and  N_11
REMARK    5  A    between atoms: C_12  and  C_14
REMARK    6  A    between atoms: C_12  and  C_15
REMARK    7  A    between atoms: C_15  and  C_16
REMARK    8  A    between atoms: C_16  and  C_17
REMARK    9  A    between atoms: C_17  and  C_18
REMARK   10  A    between atoms: C_18  and  C_19
REMARK   11  A    between atoms: C_18  and  C_20
REMARK                            x       y       z     vdW  Elec       q    Type
REMARK                         _______ _______ _______ _____ _____    ______ ____
ROOT
ATOM      1  C   UNL     1      -0.018   1.503   0.010  0.00  0.00    +0.046 C 
ATOM      2  C   UNL     1       0.002  -0.004   0.002  0.00  0.00    -0.017 A 
ATOM      3  C   UNL     1       0.008  -0.799  -1.081  0.00  0.00    +0.021 A 
ATOM      4  N   UNL     1       0.028  -2.113  -0.692  0.00  0.00    -0.326 N 
ATOM      5  C   UNL     1       0.035  -2.198   0.673  0.00  0.00    +0.146 A 
ATOM      6  C   UNL     1       0.026  -0.882   1.171  0.00  0.00    +0.062 A 
ATOM      7  C   UNL     1       0.036  -0.687   2.560  0.00  0.00    +0.129 A 
ATOM      8  N   UNL     1       0.058  -1.759   3.347  0.00  0.00    -0.220 NA
ATOM      9  C   UNL     1       0.070  -2.978   2.838  0.00  0.00    +0.225 A 
ATOM     10  N   UNL     1       0.052  -3.207   1.543  0.00  0.00    -0.218 NA
ATOM     11  C   UNL     1      -0.005  -0.318  -2.509  0.00  0.00    +0.064 C 
ENDROOT
BRANCH   7  12
ATOM     12  N   UNL     1       0.025   0.587   3.098  0.00  0.00    -0.343 N 
ATOM     13  H   UNL     1       0.009   1.361   2.512  0.00  0.00    +0.144 HD
ATOM     14  H   UNL     1       0.032   0.708   4.060  0.00  0.00    +0.144 HD
ENDBRANCH   7  12
BRANCH   4  15
ATOM     15  C   UNL     1       0.039  -3.259  -1.605  0.00  0.00    +0.086 C 
ATOM     16  C   UNL     1      -1.198  -4.124  -1.352  0.00  0.00    +0.031 C 
BRANCH  15  17
ATOM     17  C   UNL     1       1.300  -4.091  -1.364  0.00  0.00    +0.025 C 
BRANCH  17  18
ATOM     18  C   UNL     1       1.375  -5.215  -2.399  0.00  0.00    +0.002 C 
BRANCH  18  19
ATOM     19  C   UNL     1       2.637  -6.046  -2.159  0.00  0.00    +0.003 C 
BRANCH  19  20
ATOM     20  C   UNL     1       2.711  -7.171  -3.194  0.00  0.00    -0.017 C 
ATOM     21  C   UNL     1       4.033  -7.925  -3.033  0.00  0.00    +0.007 C 
ATOM     22  C   UNL     1       1.544  -8.137  -2.982  0.00  0.00    +0.007 C 
ENDBRANCH  19  20
ENDBRANCH  18  19
ENDBRANCH  17  18
ENDBRANCH  15  17
ENDBRANCH   4  15
TORSDOF 6
