REMARK  Name = ZINC40370890
REMARK  7 active torsions:
REMARK  status: ('A' for Active; 'I' for Inactive)
REMARK    1  A    between atoms: C_1  and  C_2
REMARK    2  A    between atoms: C_2  and  C_3
REMARK    3  A    between atoms: C_3  and  C_4
REMARK    4  A    between atoms: C_4  and  C_6
REMARK    5  A    between atoms: C_4  and  N_10
REMARK    6  A    between atoms: N_7  and  O_8
REMARK    7  A    between atoms: C_11  and  C_13
REMARK                            x       y       z     vdW  Elec       q    Type
REMARK                         _______ _______ _______ _____ _____    ______ ____
ROOT
ATOM      1  N   UNL     1      -0.810  -2.550   1.248  0.00  0.00    -0.300 N 
ATOM      2  C   UNL     1      -0.227  -3.765   1.284  0.00  0.00    +0.263 C 
ATOM      3  O   UNL     1      -0.200  -4.456   0.284  0.00  0.00    -0.269 OA
ATOM      4  H   UNL     1      -0.832  -1.999   2.046  0.00  0.00    +0.150 HD
ENDROOT
BRANCH   2   5
ATOM      5  C   UNL     1       0.383  -4.258   2.542  0.00  0.00    +0.126 A 
ATOM      6  C   UNL     1       0.991  -5.522   2.560  0.00  0.00    +0.033 A 
ATOM      7  C   UNL     1       1.556  -5.987   3.712  0.00  0.00    +0.012 A 
ATOM      8  C   UNL     1       1.506  -5.168   4.856  0.00  0.00    +0.000 A 
ATOM      9  C   UNL     1       2.068  -5.583   6.074  0.00  0.00    +0.010 A 
ATOM     10  C   UNL     1       2.002  -4.765   7.160  0.00  0.00    +0.001 A 
ATOM     11  C   UNL     1       1.383  -3.518   7.080  0.00  0.00    +0.002 A 
ATOM     12  C   UNL     1       0.828  -3.083   5.917  0.00  0.00    +0.028 A 
ATOM     13  C   UNL     1       0.876  -3.900   4.772  0.00  0.00    +0.072 A 
ATOM     14  N   UNL     1       0.345  -3.496   3.618  0.00  0.00    -0.242 NA
ENDBRANCH   2   5
BRANCH   1  15
ATOM     15  C   UNL     1      -1.413  -2.063   0.004  0.00  0.00    +0.140 C 
BRANCH  15  16
ATOM     16  C   UNL     1      -2.822  -2.584  -0.109  0.00  0.00    +0.152 C 
ATOM     17  N   UNL     1      -3.134  -3.404  -1.058  0.00  0.00    -0.075 NA
ATOM     18  N   UNL     1      -3.778  -2.187   0.799  0.00  0.00    -0.342 N 
ATOM     19  H   UNL     1      -3.544  -1.572   1.512  0.00  0.00    +0.144 HD
ATOM     20  H   UNL     1      -4.685  -2.522   0.727  0.00  0.00    +0.144 HD
BRANCH  17  21
ATOM     21  O   UNL     1      -4.458  -3.893  -1.164  0.00  0.00    -0.408 OA
ATOM     22  H   UNL     1      -4.595  -4.500  -1.904  0.00  0.00    +0.328 HD
ENDBRANCH  17  21
ENDBRANCH  15  16
BRANCH  15  23
ATOM     23  C   UNL     1      -1.433  -0.534   0.013  0.00  0.00    +0.030 C 
BRANCH  23  25
ATOM     24  C   UNL     1      -0.019   1.526   0.010  0.00  0.00    +0.004 C 
ATOM     25  C   UNL     1       0.002  -0.004   0.002  0.00  0.00    -0.001 C 
ENDBRANCH  23  25
ENDBRANCH  15  23
ENDBRANCH   1  15
TORSDOF 6
