REMARK  Name = ZINC19979355
REMARK  6 active torsions:
REMARK  status: ('A' for Active; 'I' for Inactive)
REMARK    1  A    between atoms: C_1  and  C_2
REMARK    2  A    between atoms: C_8  and  N_10
REMARK    3  A    between atoms: N_10  and  S_11
REMARK    4  A    between atoms: S_11  and  C_14
REMARK    5  A    between atoms: C_17  and  O_21
REMARK    6  A    between atoms: C_18  and  N_20
REMARK                            x       y       z     vdW  Elec       q    Type
REMARK                         _______ _______ _______ _____ _____    ______ ____
ROOT
ATOM      1  S   UNL     1       4.227   2.481  -2.703  0.00  0.00    +0.059 S 
ATOM      2  O   UNL     1       5.527   2.956  -2.383  0.00  0.00    -0.153 OA
ATOM      3  O   UNL     1       4.011   1.394  -3.593  0.00  0.00    -0.153 OA
ENDROOT
BRANCH   1   4
ATOM      4  C   UNL     1       3.337   3.853  -3.358  0.00  0.00    +0.107 A 
ATOM      5  C   UNL     1       2.262   3.639  -4.201  0.00  0.00    +0.032 A 
ATOM      6  C   UNL     1       1.556   4.712  -4.714  0.00  0.00    +0.049 A 
ATOM      7  C   UNL     1       1.932   6.005  -4.392  0.00  0.00    +0.137 A 
ATOM      8  C   UNL     1       3.018   6.222  -3.547  0.00  0.00    +0.068 A 
ATOM      9  C   UNL     1       3.718   5.141  -3.032  0.00  0.00    +0.055 A 
BRANCH   8  10
ATOM     10  N   UNL     1       3.402   7.527  -3.219  0.00  0.00    -0.355 N 
ATOM     11  H   UNL     1       4.260   7.697  -2.552  0.00  0.00    +0.142 HD
ATOM     12  H   UNL     1       2.846   8.384  -3.629  0.00  0.00    +0.142 HD
ENDBRANCH   8  10
BRANCH   7  13
ATOM     13  O   UNL     1       1.241   7.062  -4.900  0.00  0.00    -0.505 OA
ATOM     14  H   UNL     1       1.541   8.089  -4.644  0.00  0.00    +0.292 HD
ENDBRANCH   7  13
ENDBRANCH   1   4
BRANCH   1  15
ATOM     15  N   UNL     1       3.507   2.069  -1.270  0.00  0.00    -0.187 NA
ATOM     16  H   UNL     1       4.004   2.332  -0.324  0.00  0.00    +0.148 HD
BRANCH  15  23
ATOM     17  C   UNL     1       1.396   3.585   0.008  0.00  0.00    +0.009 C 
ATOM     18  C   UNL     1       1.417   2.055  -0.000  0.00  0.00    +0.005 C 
ATOM     19  C   UNL     1      -0.019   1.526   0.010  0.00  0.00    +0.005 C 
ATOM     20  C   UNL     1       0.002  -0.004   0.002  0.00  0.00    +0.000 C 
ATOM     21  C   UNL     1       0.718  -0.497  -1.257  0.00  0.00    +0.002 C 
ATOM     22  C   UNL     1       2.154   0.032  -1.268  0.00  0.00    +0.020 C 
ATOM     23  C   UNL     1       2.133   1.562  -1.259  0.00  0.00    +0.079 C 
ENDBRANCH  15  23
ENDBRANCH   1  15
TORSDOF 5
