REMARK  Name = ZINC16698246
REMARK  5 active torsions:
REMARK  status: ('A' for Active; 'I' for Inactive)
REMARK    1  A    between atoms: C_4  and  C_7
REMARK    2  A    between atoms: CA_9  and  C_23
REMARK    3  A    between atoms: C_11  and  C_14
REMARK    4  A    between atoms: C_17  and  N_20
REMARK    5  A    between atoms: C_23  and  O_24
REMARK                            x       y       z     vdW  Elec       q    Type
REMARK                         _______ _______ _______ _____ _____    ______ ____
ROOT
ATOM      1  C   UNL     1       3.696  -0.686  -0.038  0.00  0.00    +0.219 C 
ATOM      2  N   UNL     1       4.843  -0.081  -0.041  0.00  0.00    -0.241 NA
ATOM      3  CA  UNL     1       5.909  -1.101  -0.069  0.00  0.00    +0.179 C 
ATOM      4  C   UNL     1       5.127  -2.374  -0.474  0.00  0.00    +0.232 C 
ATOM      5  O   UNL     1       3.790  -2.032  -0.047  0.00  0.00    -0.466 OA
ENDROOT
BRANCH   1   9
ATOM      6  C   UNL     1      -0.017   1.379   0.010  0.00  0.00    +0.000 A 
ATOM      7  C   UNL     1       1.168   2.093   0.002  0.00  0.00    +0.001 A 
ATOM      8  C   UNL     1       2.377   1.428  -0.013  0.00  0.00    +0.013 A 
ATOM      9  C   UNL     1       2.403   0.033  -0.021  0.00  0.00    +0.036 A 
ATOM     10  C   UNL     1       1.205  -0.680  -0.013  0.00  0.00    +0.013 A 
ATOM     11  C   UNL     1       0.002  -0.004   0.002  0.00  0.00    +0.001 A 
ENDBRANCH   1   9
BRANCH   4  12
ATOM     12  C   UNL     1       5.637  -3.582   0.269  0.00  0.00    -0.005 A 
ATOM     13  C   UNL     1       5.152  -3.874   1.530  0.00  0.00    +0.009 A 
ATOM     14  C   UNL     1       5.620  -4.982   2.211  0.00  0.00    +0.033 A 
ATOM     15  C   UNL     1       6.573  -5.798   1.631  0.00  0.00    +0.126 A 
ATOM     16  C   UNL     1       7.058  -5.506   0.369  0.00  0.00    +0.033 A 
ATOM     17  C   UNL     1       6.587  -4.401  -0.314  0.00  0.00    +0.009 A 
BRANCH  15  18
ATOM     18  N   UNL     1       7.076  -6.984   2.360  0.00  0.00    +0.056 N 
ATOM     19  O   UNL     1       6.652  -7.239   3.463  0.00  0.00    -0.126 OA
ATOM     20  O   UNL     1       7.909  -7.698   1.853  0.00  0.00    -0.126 OA
ENDBRANCH  15  18
ENDBRANCH   4  12
BRANCH   3  21
ATOM     21  C   UNL     1       6.544  -1.265   1.313  0.00  0.00    +0.186 C 
BRANCH  21  22
ATOM     22  O   UNL     1       7.239  -0.066   1.664  0.00  0.00    -0.393 OA
ATOM     23  H   UNL     1       7.667  -0.099   2.530  0.00  0.00    +0.209 HD
ENDBRANCH  21  22
ENDBRANCH   3  21
TORSDOF 5
