REMARK  Name = ZINC44783380
REMARK  7 active torsions:
REMARK  status: ('A' for Active; 'I' for Inactive)
REMARK    1  A    between atoms: C_1  and  C_2
REMARK    2  A    between atoms: C_2  and  C_3
REMARK    3  A    between atoms: C_3  and  C_5
REMARK    4  A    between atoms: C_3  and  N_6
REMARK    5  A    between atoms: C_7  and  C_9
REMARK    6  A    between atoms: C_9  and  C_15
REMARK    7  A    between atoms: N_16  and  O_17
REMARK                            x       y       z     vdW  Elec       q    Type
REMARK                         _______ _______ _______ _____ _____    ______ ____
ROOT
ATOM      1  C   UNL     1      -3.996   0.388   2.652  0.00  0.00    +0.109 C 
ATOM      2  C   UNL     1      -3.582  -0.610   3.739  0.00  0.00    +0.052 C 
ATOM      3  C   UNL     1      -4.179  -1.982   3.416  0.00  0.00    +0.161 C 
ATOM      4  O   UNL     1      -5.601  -1.870   3.318  0.00  0.00    -0.380 OA
ATOM      5  C   UNL     1      -6.047  -0.987   2.287  0.00  0.00    +0.161 C 
ATOM      6  C   UNL     1      -5.524   0.425   2.565  0.00  0.00    +0.052 C 
ENDROOT
BRANCH   1   7
ATOM      7  C   UNL     1      -3.477   1.759   3.000  0.00  0.00    +0.147 C 
ATOM      8  N   UNL     1      -4.304   2.715   3.263  0.00  0.00    -0.076 NA
ATOM      9  N   UNL     1      -2.120   1.993   3.037  0.00  0.00    -0.343 N 
ATOM     10  H   UNL     1      -1.498   1.259   2.914  0.00  0.00    +0.144 HD
ATOM     11  H   UNL     1      -1.786   2.891   3.185  0.00  0.00    +0.144 HD
BRANCH   8  12
ATOM     12  O   UNL     1      -3.816   4.004   3.589  0.00  0.00    -0.408 OA
ATOM     13  H   UNL     1      -4.510   4.653   3.770  0.00  0.00    +0.328 HD
ENDBRANCH   8  12
ENDBRANCH   1   7
BRANCH   1  15
ATOM     14  N   UNL     1      -3.781   0.597   0.197  0.00  0.00    -0.312 N 
ATOM     15  C   UNL     1      -3.425  -0.046   1.326  0.00  0.00    +0.227 C 
ATOM     16  O   UNL     1      -2.647  -0.975   1.276  0.00  0.00    -0.275 OA
ATOM     17  H   UNL     1      -4.460   1.289   0.226  0.00  0.00    +0.149 HD
BRANCH  14  18
ATOM     18  C   UNL     1      -3.142   0.251  -1.075  0.00  0.00    +0.070 C 
ATOM     19  C   UNL     1      -1.833   1.031  -1.217  0.00  0.00    +0.028 C 
BRANCH  18  21
ATOM     20  C   UNL     1      -5.334  -0.259  -2.159  0.00  0.00    +0.005 C 
ATOM     21  C   UNL     1      -4.078   0.611  -2.231  0.00  0.00    +0.018 C 
ENDBRANCH  18  21
ENDBRANCH  14  18
ENDBRANCH   1  15
TORSDOF 5
