REMARK  Name = ZINC43275868
REMARK  4 active torsions:
REMARK  status: ('A' for Active; 'I' for Inactive)
REMARK    1  A    between atoms: C_3  and  N_9
REMARK    2  A    between atoms: N_12  and  C_13
REMARK    3  A    between atoms: C_13  and  C_14
REMARK    4  A    between atoms: C_14  and  C_15
REMARK                            x       y       z     vdW  Elec       q    Type
REMARK                         _______ _______ _______ _____ _____    ______ ____
ROOT
ATOM      1  N   UNL     1       3.585   2.130  -0.021  0.00  0.00    -0.267 N 
ATOM      2  C   UNL     1       3.568   3.474  -0.116  0.00  0.00    +0.304 C 
ATOM      3  O   UNL     1       2.509   4.071  -0.103  0.00  0.00    -0.253 OA
ATOM      4  N   UNL     1       4.725   4.156  -0.225  0.00  0.00    -0.299 N 
ATOM      5  H   UNL     1       4.430   1.659   0.051  0.00  0.00    +0.156 HD
ATOM      6  H   UNL     1       5.570   3.680  -0.236  0.00  0.00    +0.150 HD
ENDROOT
BRANCH   1   9
ATOM      7  C   UNL     1       0.066   1.243  -0.626  0.00  0.00    +0.022 A 
ATOM      8  C   UNL     1       1.251   1.953  -0.622  0.00  0.00    +0.027 A 
ATOM      9  C   UNL     1       2.381   1.411  -0.026  0.00  0.00    +0.070 A 
ATOM     10  C   UNL     1       2.318   0.154   0.564  0.00  0.00    +0.146 A 
ATOM     11  C   UNL     1       1.129  -0.552   0.557  0.00  0.00    +0.060 A 
ATOM     12  C   UNL     1       0.004  -0.007  -0.038  0.00  0.00    +0.044 A 
ATOM     13 CL   UNL     1      -1.488  -0.895  -0.046  0.00  0.00    -0.083 Cl
ATOM     14  F   UNL     1       3.416  -0.377   1.145  0.00  0.00    -0.203 F 
ENDBRANCH   1   9
BRANCH   4  15
ATOM     15  C   UNL     1       4.706   5.618  -0.329  0.00  0.00    +0.113 C 
BRANCH  15  16
ATOM     16  C   UNL     1       6.140   6.139  -0.441  0.00  0.00    +0.095 C 
BRANCH  16  17
ATOM     17  C   UNL     1       6.121   7.642  -0.547  0.00  0.00    +0.135 A 
ATOM     18  N   UNL     1       6.051   8.342  -1.649  0.00  0.00    -0.134 NA
ATOM     19  N   UNL     1       6.048   9.598  -1.366  0.00  0.00    -0.134 NA
ATOM     20  C   UNL     1       6.113   9.754  -0.074  0.00  0.00    +0.133 A 
ATOM     21  N   UNL     1       6.168   8.520   0.480  0.00  0.00    -0.315 N 
ATOM     22  C   UNL     1       6.275   8.209   1.905  0.00  0.00    +0.125 C 
ATOM     23  C   UNL     1       5.634   9.336   2.720  0.00  0.00    +0.022 C 
ATOM     24  C   UNL     1       6.679  10.405   3.032  0.00  0.00    +0.002 C 
ATOM     25  C   UNL     1       7.220  11.016   1.742  0.00  0.00    +0.008 C 
ATOM     26  C   UNL     1       6.117  11.054   0.687  0.00  0.00    +0.076 C 
ENDBRANCH  16  17
ENDBRANCH  15  16
ENDBRANCH   4  15
TORSDOF 4
