REMARK  Name = ZINC07006671
REMARK  9 active torsions:
REMARK  status: ('A' for Active; 'I' for Inactive)
REMARK    1  A    between atoms: C_1  and  C_2
REMARK    2  A    between atoms: C_2  and  O_3
REMARK    3  A    between atoms: O_3  and  C_4
REMARK    4  A    between atoms: C_4  and  C_6
REMARK    5  A    between atoms: C_7  and  C_31
REMARK    6  A    between atoms: C_10  and  C_30
REMARK    7  A    between atoms: C_11  and  S_12
REMARK    8  A    between atoms: S_12  and  N_15
REMARK    9  A    between atoms: C_19  and  C_22
REMARK                            x       y       z     vdW  Elec       q    Type
REMARK                         _______ _______ _______ _____ _____    ______ ____
ROOT
ATOM      1  S   UNL     1      -3.381   6.462   1.442  0.00  0.00    +0.063 S 
ATOM      2  O   UNL     1      -3.695   7.737   0.898  0.00  0.00    -0.153 OA
ATOM      3  O   UNL     1      -4.370   5.606   1.996  0.00  0.00    -0.153 OA
ENDROOT
BRANCH   1   9
ATOM      4  C   UNL     1      -1.271   7.877   2.822  0.00  0.00    +0.106 A 
ATOM      5  C   UNL     1      -0.531   7.657   3.964  0.00  0.00    +0.029 A 
ATOM      6  N   UNL     1      -0.939   6.497   4.512  0.00  0.00    -0.360 N 
ATOM      7  H   UNL     1      -0.577   6.111   5.326  0.00  0.00    +0.165 HD
ATOM      8  C   UNL     1      -1.936   5.942   3.764  0.00  0.00    +0.041 A 
ATOM      9  C   UNL     1      -2.186   6.735   2.708  0.00  0.00    +0.140 A 
ATOM     10  C   UNL     1      -2.641   4.646   4.071  0.00  0.00    +0.065 C 
ATOM     11  C   UNL     1       0.547   8.560   4.506  0.00  0.00    +0.064 C 
BRANCH   4  12
ATOM     12  C   UNL     1      -1.166   9.023   1.906  0.00  0.00    +0.343 C 
ATOM     13  O   UNL     1      -1.841  10.016   2.094  0.00  0.00    -0.245 OA
BRANCH  12  14
ATOM     14  O   UNL     1      -0.320   8.971   0.857  0.00  0.00    -0.461 OA
BRANCH  14  16
ATOM     15  C   UNL     1       0.740   9.896  -1.131  0.00  0.00    +0.048 C 
ATOM     16  C   UNL     1      -0.268  10.138  -0.005  0.00  0.00    +0.229 C 
ENDBRANCH  14  16
ENDBRANCH  12  14
ENDBRANCH   4  12
ENDBRANCH   1   9
BRANCH   1  17
ATOM     17  N   UNL     1      -2.632   5.606   0.239  0.00  0.00    -0.176 NA
ATOM     18  C   UNL     1      -1.951   6.300  -0.862  0.00  0.00    +0.109 C 
ATOM     19  C   UNL     1      -0.514   5.777  -0.960  0.00  0.00    +0.018 C 
ATOM     20  C   UNL     1      -0.538   4.253  -1.098  0.00  0.00    +0.015 C 
ATOM     21  C   UNL     1      -1.192   3.638   0.141  0.00  0.00    +0.091 C 
ATOM     22  C   UNL     1      -2.637   4.136   0.252  0.00  0.00    +0.122 C 
BRANCH  21  23
ATOM     23  C   UNL     1      -1.187   2.136   0.019  0.00  0.00    +0.220 C 
ATOM     24  O   UNL     1      -2.160   1.559  -0.419  0.00  0.00    -0.275 OA
ATOM     25  N   UNL     1      -0.100   1.433   0.397  0.00  0.00    -0.301 N 
ATOM     26  C   UNL     1       1.128   2.122   0.816  0.00  0.00    +0.108 C 
ATOM     27  C   UNL     1       1.544   1.594   2.193  0.00  0.00    +0.019 C 
ATOM     28  C   UNL     1       1.667   0.070   2.134  0.00  0.00    +0.003 C 
ATOM     29  C   UNL     1       0.310  -0.540   1.773  0.00  0.00    +0.019 C 
ATOM     30  C   UNL     1      -0.120  -0.036   0.392  0.00  0.00    +0.108 C 
ENDBRANCH  21  23
ENDBRANCH   1  17
TORSDOF 6
