REMARK  Name = ZINC12553301
REMARK  4 active torsions:
REMARK  status: ('A' for Active; 'I' for Inactive)
REMARK    1  A    between atoms: N_9  and  C_20
REMARK    2  A    between atoms: C_10  and  C_13
REMARK    3  A    between atoms: C_16  and  O_19
REMARK    4  A    between atoms: C_20  and  C_21
REMARK                            x       y       z     vdW  Elec       q    Type
REMARK                         _______ _______ _______ _____ _____    ______ ____
ROOT
ATOM      1  C   UNL     1       1.202  -0.225  -4.663  0.00  0.00    +0.001 A 
ATOM      2  C   UNL     1       2.388  -0.024  -3.975  0.00  0.00    +0.002 A 
ATOM      3  C   UNL     1       2.411  -0.046  -2.594  0.00  0.00    +0.024 A 
ATOM      4  C   UNL     1       1.239  -0.271  -1.893  0.00  0.00    +0.041 A 
ATOM      5  C   UNL     1       0.034  -0.478  -2.588  0.00  0.00    +0.058 A 
ATOM      6  C   UNL     1       0.025  -0.451  -3.980  0.00  0.00    +0.015 A 
ATOM      7  C   UNL     1      -1.194  -0.719  -1.808  0.00  0.00    +0.250 C 
ATOM      8  O   UNL     1      -2.194  -1.145  -2.352  0.00  0.00    -0.270 OA
ATOM      9  N   UNL     1      -1.194  -0.461  -0.484  0.00  0.00    -0.272 N 
ATOM     10  C   UNL     1      -0.028   0.126   0.175  0.00  0.00    +0.193 C 
ATOM     11  N   UNL     1       1.204  -0.294  -0.503  0.00  0.00    -0.321 N 
ATOM     12  H   UNL     1       1.978  -0.582   0.007  0.00  0.00    +0.148 HD
ENDROOT
BRANCH  10  13
ATOM     13  C   UNL     1      -0.134   1.629   0.131  0.00  0.00    -0.009 A 
ATOM     14  C   UNL     1      -1.371   2.230  -0.014  0.00  0.00    +0.010 A 
ATOM     15  C   UNL     1      -1.471   3.607  -0.048  0.00  0.00    +0.046 A 
ATOM     16  C   UNL     1      -0.328   4.387   0.051  0.00  0.00    +0.117 A 
ATOM     17  C   UNL     1       0.912   3.782   0.190  0.00  0.00    +0.046 A 
ATOM     18  C   UNL     1       1.007   2.404   0.230  0.00  0.00    +0.010 A 
BRANCH  16  19
ATOM     19  O   UNL     1      -0.424   5.742   0.011  0.00  0.00    -0.507 OA
ATOM     20  H   UNL     1      -0.362   6.115  -0.878  0.00  0.00    +0.292 HD
ENDBRANCH  16  19
ENDBRANCH  10  13
BRANCH   9  21
ATOM     21  C   UNL     1      -2.385  -0.775   0.309  0.00  0.00    +0.141 C 
BRANCH  21  22
ATOM     22  C   UNL     1      -2.255  -2.185   0.889  0.00  0.00    +0.136 C 
ATOM     23  C   UNL     1      -3.555  -2.590   1.617  0.00  0.00    +0.035 C 
ATOM     24  C   UNL     1      -3.066  -3.399   2.839  0.00  0.00    +0.031 C 
ATOM     25  C   UNL     1      -1.527  -3.387   2.705  0.00  0.00    +0.160 C 
ATOM     26  O   UNL     1      -1.235  -2.216   1.911  0.00  0.00    -0.375 OA
ENDBRANCH  21  22
ENDBRANCH   9  21
TORSDOF 4
