REMARK  Name = ZINC61448905
REMARK  4 active torsions:
REMARK  status: ('A' for Active; 'I' for Inactive)
REMARK    1  A    between atoms: C_8  and  C_10
REMARK    2  A    between atoms: C_10  and  N_11
REMARK    3  A    between atoms: N_14  and  C_15
REMARK    4  A    between atoms: C_20  and  N_21
REMARK                            x       y       z     vdW  Elec       q    Type
REMARK                         _______ _______ _______ _____ _____    ______ ____
ROOT
ATOM      1  N   UNL     1       4.029  -3.769  -1.451  0.00  0.00    -0.292 N 
ATOM      2  C   UNL     1       4.785  -4.856  -1.707  0.00  0.00    +0.304 C 
ATOM      3  O   UNL     1       5.245  -5.506  -0.789  0.00  0.00    -0.252 OA
ATOM      4  N   UNL     1       5.030  -5.221  -2.981  0.00  0.00    -0.268 N 
ATOM      5  H   UNL     1       3.662  -3.250  -2.184  0.00  0.00    +0.151 HD
ATOM      6  H   UNL     1       4.610  -4.741  -3.712  0.00  0.00    +0.156 HD
ENDROOT
BRANCH   4   7
ATOM      7  C   UNL     1       5.891  -6.292  -3.249  0.00  0.00    +0.060 A 
ATOM      8  C   UNL     1       5.926  -7.387  -2.397  0.00  0.00    +0.025 A 
ATOM      9  C   UNL     1       6.776  -8.443  -2.663  0.00  0.00    +0.002 A 
ATOM     10  C   UNL     1       7.594  -8.413  -3.778  0.00  0.00    +0.002 A 
ATOM     11  C   UNL     1       7.566  -7.327  -4.632  0.00  0.00    +0.029 A 
ATOM     12  C   UNL     1       6.712  -6.265  -4.376  0.00  0.00    +0.087 A 
BRANCH  12  13
ATOM     13  N   UNL     1       6.677  -5.164  -5.244  0.00  0.00    -0.238 N 
ATOM     14  C   UNL     1       7.336  -5.058  -6.420  0.00  0.00    +0.114 A 
ATOM     15  C   UNL     1       7.040  -3.848  -6.950  0.00  0.00    +0.041 A 
ATOM     16  C   UNL     1       6.172  -3.193  -6.070  0.00  0.00    +0.135 A 
ATOM     17  N   UNL     1       5.950  -3.983  -5.050  0.00  0.00    -0.175 NA
ENDBRANCH  12  13
ENDBRANCH   4   7
BRANCH   1  18
ATOM     18  C   UNL     1       3.763  -3.372  -0.067  0.00  0.00    +0.180 C 
BRANCH  18  26
ATOM     19  C   UNL     1      -0.111   1.301  -0.019  0.00  0.00    +0.001 A 
ATOM     20  C   UNL     1       1.067   2.034  -0.028  0.00  0.00    +0.004 A 
ATOM     21  C   UNL     1       2.291   1.400  -0.041  0.00  0.00    +0.047 A 
ATOM     22  C   UNL     1       2.349   0.012  -0.045  0.00  0.00    +0.135 A 
ATOM     23  C   UNL     1       1.153  -0.725  -0.036  0.00  0.00    +0.020 A 
ATOM     24  C   UNL     1      -0.075  -0.066  -0.023  0.00  0.00    +0.011 A 
ATOM     25  C   UNL     1       1.561  -2.135  -0.043  0.00  0.00    +0.055 A 
ATOM     26  C   UNL     1       2.901  -2.136  -0.055  0.00  0.00    +0.123 A 
ATOM     27  O   UNL     1       3.365  -0.874  -0.056  0.00  0.00    -0.458 OA
ENDBRANCH  18  26
ENDBRANCH   1  18
TORSDOF 4
