REMARK  Name = ZINC14307795
REMARK  11 active torsions:
REMARK  status: ('A' for Active; 'I' for Inactive)
REMARK    1  A    between atoms: C_1  and  C_2
REMARK    2  A    between atoms: C_5  and  C_27
REMARK    3  A    between atoms: C_6  and  N_8
REMARK    4  A    between atoms: N_8  and  C_9
REMARK    5  A    between atoms: C_9  and  N_11
REMARK    6  A    between atoms: N_11  and  N_12
REMARK    7  A    between atoms: C_13  and  C_15
REMARK    8  A    between atoms: C_15  and  C_16
REMARK    9  A    between atoms: C_16  and  C_18
REMARK   10  A    between atoms: C_16  and  N_23
REMARK   11  A    between atoms: C_24  and  C_26
REMARK                            x       y       z     vdW  Elec       q    Type
REMARK                         _______ _______ _______ _____ _____    ______ ____
ROOT
ATOM      1  N   UNL     1       2.185   6.193   2.569  0.00  0.00    -0.235 N 
ATOM      2  C   UNL     1       1.889   5.596   1.397  0.00  0.00    +0.231 C 
ATOM      3  O   UNL     1       1.385   6.238   0.500  0.00  0.00    -0.274 OA
ATOM      4  H   UNL     1       2.588   5.679   3.286  0.00  0.00    +0.173 HD
ENDROOT
BRANCH   1   5
ATOM      5  N   UNL     1       1.909   7.554   2.751  0.00  0.00    -0.246 N 
ATOM      6  H   UNL     1       1.505   8.067   2.034  0.00  0.00    +0.172 HD
BRANCH   5   7
ATOM      7  C   UNL     1       2.204   8.151   3.923  0.00  0.00    +0.151 C 
ATOM      8  S   UNL     1       1.867   9.814   4.146  0.00  0.00    -0.017 S 
BRANCH   7   9
ATOM      9  N   UNL     1       2.764   7.437   4.920  0.00  0.00    -0.296 N 
ATOM     10  H   UNL     1       2.883   6.479   4.824  0.00  0.00    +0.154 HD
BRANCH   9  16
ATOM     11  C   UNL     1       5.028  11.214   7.107  0.00  0.00    +0.044 C 
ATOM     12  C   UNL     1       4.275   9.911   7.183  0.00  0.00    -0.049 A 
ATOM     13  C   UNL     1       3.990   9.347   8.413  0.00  0.00    +0.004 A 
ATOM     14  C   UNL     1       3.300   8.152   8.486  0.00  0.00    +0.005 A 
ATOM     15  C   UNL     1       2.892   7.516   7.330  0.00  0.00    -0.029 A 
ATOM     16  C   UNL     1       3.176   8.079   6.093  0.00  0.00    +0.036 A 
ATOM     17  C   UNL     1       3.874   9.277   6.022  0.00  0.00    +0.027 A 
ATOM     18  C   UNL     1       2.140   6.213   7.411  0.00  0.00    +0.045 C 
ENDBRANCH   9  16
ENDBRANCH   7   9
ENDBRANCH   5   7
ENDBRANCH   1   5
BRANCH   2  19
ATOM     19  C   UNL     1       2.186   4.132   1.201  0.00  0.00    +0.125 C 
BRANCH  19  20
ATOM     20  C   UNL     1       1.758   3.708  -0.205  0.00  0.00    +0.119 C 
BRANCH  20  21
ATOM     21  C   UNL     1       1.941   2.220  -0.359  0.00  0.00    +0.010 A 
ATOM     22  C   UNL     1       1.015   1.234  -0.277  0.00  0.00    +0.013 A 
ATOM     23  C   UNL     1       1.415  -0.077  -0.456  0.00  0.00    +0.008 A 
ATOM     24  C   UNL     1       2.721  -0.338  -0.707  0.00  0.00    +0.045 A 
ATOM     25  S   UNL     1       3.432   1.300  -0.698  0.00  0.00    -0.100 S 
ENDBRANCH  20  21
BRANCH  20  26
ATOM     26  N   UNL     1       2.580   4.406  -1.197  0.00  0.00    -0.308 N 
ATOM     27  C   UNL     1       2.107   4.607  -2.443  0.00  0.00    +0.210 C 
ATOM     28  O   UNL     1       1.000   4.211  -2.743  0.00  0.00    -0.276 OA
ATOM     29  C   UNL     1       2.952   5.326  -3.463  0.00  0.00    +0.109 C 
ATOM     30  H   UNL     1       3.464   4.724  -0.957  0.00  0.00    +0.149 HD
ENDBRANCH  20  26
ENDBRANCH  19  20
ENDBRANCH   2  19
TORSDOF 8
