REMARK  Name = ZINC01885215
REMARK  10 active torsions:
REMARK  status: ('A' for Active; 'I' for Inactive)
REMARK    1  A    between atoms: C_1  and  C_2
REMARK    2  A    between atoms: C_2  and  C_3
REMARK    3  A    between atoms: C_3  and  C_4
REMARK    4  A    between atoms: C_4  and  C_5
REMARK    5  A    between atoms: C_5  and  C_6
REMARK    6  A    between atoms: C_6  and  C_7
REMARK    7  A    between atoms: C_11  and  C_28
REMARK    8  A    between atoms: C_16  and  O_17
REMARK    9  A    between atoms: N_18  and  N_19
REMARK   10  A    between atoms: C_20  and  C_22
REMARK                            x       y       z     vdW  Elec       q    Type
REMARK                         _______ _______ _______ _____ _____    ______ ____
ROOT
ATOM      1  C   UNL     1      -4.903  -3.256  -0.189  0.00  0.00    -0.005 A 
ATOM      2  C   UNL     1      -3.711  -2.609  -0.200  0.00  0.00    +0.018 A 
ATOM      3  C   UNL     1      -3.670  -1.205  -0.089  0.00  0.00    +0.019 A 
ATOM      4  C   UNL     1      -2.443  -0.522  -0.103  0.00  0.00    +0.030 A 
ATOM      5  C   UNL     1      -2.453   0.870   0.015  0.00  0.00    +0.098 A 
ATOM      6  C   UNL     1      -3.679   1.546   0.134  0.00  0.00    +0.224 A 
ATOM      7  O   UNL     1      -4.837   0.877   0.140  0.00  0.00    -0.437 OA
ATOM      8  C   UNL     1      -4.872  -0.468   0.033  0.00  0.00    +0.141 A 
ATOM      9  C   UNL     1      -6.080  -1.135   0.043  0.00  0.00    +0.092 A 
ATOM     10  C   UNL     1      -6.105  -2.530  -0.067  0.00  0.00    +0.124 A 
ATOM     11  N   UNL     1      -3.688   2.900   0.244  0.00  0.00    -0.273 N 
ATOM     12  H   UNL     1      -2.809   3.425   0.647  0.00  0.00    +0.188 HD
ENDROOT
BRANCH   5  13
ATOM     13  C   UNL     1      -1.188   1.624   0.010  0.00  0.00    +0.247 C 
ATOM     14  O   UNL     1      -1.204   2.840   0.003  0.00  0.00    -0.270 OA
ATOM     15  N   UNL     1      -0.011   0.967   0.013  0.00  0.00    -0.325 N 
ATOM     16  H   UNL     1       0.934   1.530   0.009  0.00  0.00    +0.145 HD
ATOM     17  H   UNL     1       0.004  -0.133   0.020  0.00  0.00    +0.145 HD
ENDBRANCH   5  13
BRANCH  11  18
ATOM     18  N   UNL     1      -4.816   3.628  -0.157  0.00  0.00    -0.223 N 
ATOM     19  C   UNL     1      -4.825   4.971  -0.047  0.00  0.00    +0.262 C 
ATOM     20  O   UNL     1      -3.854   5.551   0.399  0.00  0.00    -0.269 OA
ATOM     21  H   UNL     1      -5.694   3.103  -0.560  0.00  0.00    +0.175 HD
BRANCH  19  22
ATOM     22  C   UNL     1      -6.015   5.740  -0.470  0.00  0.00    +0.038 A 
ATOM     23  C   UNL     1      -7.129   5.077  -0.988  0.00  0.00    +0.013 A 
ATOM     24  C   UNL     1      -8.239   5.799  -1.375  0.00  0.00    +0.001 A 
ATOM     25  C   UNL     1      -8.245   7.178  -1.262  0.00  0.00    +0.000 A 
ATOM     26  C   UNL     1      -7.142   7.842  -0.755  0.00  0.00    +0.001 A 
ATOM     27  C   UNL     1      -6.028   7.131  -0.358  0.00  0.00    +0.013 A 
ENDBRANCH  19  22
ENDBRANCH  11  18
BRANCH  10  28
ATOM     28  O   UNL     1      -7.177  -3.124  -0.057  0.00  0.00    -0.506 OA
ATOM     29  H   UNL     1      -8.117  -2.560   0.038  0.00  0.00    +0.292 HD
ENDBRANCH  10  28
BRANCH   1  30
ATOM     30  C   UNL     1      -4.943  -4.757  -0.308  0.00  0.00    +0.039 C 
BRANCH  30  31
ATOM     31  C   UNL     1      -5.131  -5.374   1.080  0.00  0.00    +0.005 C 
BRANCH  31  32
ATOM     32  C   UNL     1      -5.172  -6.899   0.960  0.00  0.00    +0.000 C 
BRANCH  32  33
ATOM     33  C   UNL     1      -5.361  -7.515   2.347  0.00  0.00    -0.000 C 
BRANCH  33  35
ATOM     34  C   UNL     1      -5.590  -9.656   3.614  0.00  0.00    +0.004 C 
ATOM     35  C   UNL     1      -5.401  -9.040   2.227  0.00  0.00    -0.003 C 
ENDBRANCH  33  35
ENDBRANCH  32  33
ENDBRANCH  31  32
ENDBRANCH  30  31
ENDBRANCH   1  30
TORSDOF 9
