REMARK  Name = ZINC40287183
REMARK  4 active torsions:
REMARK  status: ('A' for Active; 'I' for Inactive)
REMARK    1  A    between atoms: C_1  and  C_2
REMARK    2  A    between atoms: C_2  and  C_27
REMARK    3  A    between atoms: C_6  and  C_17
REMARK    4  A    between atoms: C_10  and  C_13
REMARK                            x       y       z     vdW  Elec       q    Type
REMARK                         _______ _______ _______ _____ _____    ______ ____
ROOT
ATOM      1  C   UNL     1      -0.019   1.526   0.010  0.00  0.00    +0.011 C 
ATOM      2  C   UNL     1       0.002  -0.004   0.002  0.00  0.00    -0.023 C 
ATOM      3  C   UNL     1      -1.431  -0.539   0.041  0.00  0.00    +0.058 C 
ATOM      4  C   UNL     1      -1.407  -2.049   0.074  0.00  0.00    +0.019 C 
ATOM      5  C   UNL     1      -0.398  -2.715   0.674  0.00  0.00    +0.041 C 
ATOM      6  C   UNL     1      -0.355  -4.225   0.740  0.00  0.00    +0.174 C 
ATOM      7  N   UNL     1      -1.319  -4.795  -0.199  0.00  0.00    -0.238 N 
ATOM      8  C   UNL     1      -2.298  -4.061  -0.781  0.00  0.00    +0.134 A 
ATOM      9  C   UNL     1      -3.025  -4.907  -1.596  0.00  0.00    +0.096 A 
ATOM     10  C   UNL     1      -2.435  -6.190  -1.482  0.00  0.00    +0.149 A 
ATOM     11  N   UNL     1      -1.429  -6.107  -0.653  0.00  0.00    -0.176 NA
ATOM     12  N   UNL     1      -2.446  -2.711  -0.535  0.00  0.00    -0.302 N 
ATOM     13  C   UNL     1       0.672  -2.018   1.268  0.00  0.00    +0.164 C 
ATOM     14  O   UNL     1       1.559  -2.645   1.812  0.00  0.00    -0.292 OA
ATOM     15  C   UNL     1       0.742  -0.517   1.242  0.00  0.00    +0.086 C 
ATOM     16  C   UNL     1       0.705  -0.503  -1.262  0.00  0.00    +0.011 C 
ATOM     17  H   UNL     1      -3.259  -2.243  -0.784  0.00  0.00    +0.153 HD
ENDROOT
BRANCH   6  18
ATOM     18  C   UNL     1      -0.695  -4.675   2.137  0.00  0.00    -0.018 A 
ATOM     19  C   UNL     1      -1.922  -4.354   2.687  0.00  0.00    +0.007 A 
ATOM     20  C   UNL     1      -2.235  -4.767   3.968  0.00  0.00    +0.015 A 
ATOM     21  C   UNL     1      -1.320  -5.501   4.701  0.00  0.00    +0.018 A 
ATOM     22  C   UNL     1      -0.091  -5.821   4.151  0.00  0.00    +0.015 A 
ATOM     23  C   UNL     1       0.218  -5.412   2.867  0.00  0.00    +0.007 A 
ATOM     24 BR   UNL     1      -1.747  -6.065   6.455  0.00  0.00    -0.050 Br
ENDBRANCH   6  18
BRANCH   9  25
ATOM     25  C   UNL     1      -4.184  -4.545  -2.421  0.00  0.00    +0.246 C 
ATOM     26  O   UNL     1      -4.592  -3.399  -2.429  0.00  0.00    -0.270 OA
ATOM     27  N   UNL     1      -4.797  -5.483  -3.171  0.00  0.00    -0.325 N 
ATOM     28  H   UNL     1      -4.472  -6.397  -3.165  0.00  0.00    +0.145 HD
ATOM     29  H   UNL     1      -5.563  -5.245  -3.716  0.00  0.00    +0.145 HD
ENDBRANCH   9  25
TORSDOF 2
