REMARK  Name = ZINC35456712
REMARK  9 active torsions:
REMARK  status: ('A' for Active; 'I' for Inactive)
REMARK    1  A    between atoms: C_1  and  C_2
REMARK    2  A    between atoms: C_2  and  O_3
REMARK    3  A    between atoms: O_3  and  C_4
REMARK    4  A    between atoms: C_12  and  C_28
REMARK    5  A    between atoms: N_13  and  C_16
REMARK    6  A    between atoms: C_16  and  C_17
REMARK    7  A    between atoms: N_19  and  C_20
REMARK    8  A    between atoms: C_25  and  C_26
REMARK    9  A    between atoms: C_31  and  C_34
REMARK                            x       y       z     vdW  Elec       q    Type
REMARK                         _______ _______ _______ _____ _____    ______ ____
ROOT
ATOM      1  C   UNL     1       0.641  -1.377   1.852  0.00  0.00    +0.403 C 
ATOM      2  O   UNL     1       0.032  -2.023   1.022  0.00  0.00    -0.226 OA
ATOM      3  N   UNL     1       1.308  -2.008   2.838  0.00  0.00    -0.261 N 
ATOM      4  C   UNL     1       1.324  -3.477   2.935  0.00  0.00    +0.116 C 
ATOM      5  C   UNL     1       2.768  -3.942   2.750  0.00  0.00    +0.061 C 
ATOM      6  C   UNL     1       3.707  -3.127   3.596  0.00  0.00    +0.041 A 
ATOM      7  C   UNL     1       3.394  -1.901   4.087  0.00  0.00    +0.069 A 
ATOM      8  N   UNL     1       4.292  -1.226   4.814  0.00  0.00    -0.232 NA
ATOM      9  C   UNL     1       5.480  -1.720   5.084  0.00  0.00    +0.144 A 
ATOM     10  N   UNL     1       5.845  -2.953   4.631  0.00  0.00    -0.284 N 
ATOM     11  C   UNL     1       4.979  -3.672   3.890  0.00  0.00    +0.258 A 
ATOM     12  O   UNL     1       5.287  -4.778   3.478  0.00  0.00    -0.267 OA
ATOM     13  C   UNL     1       2.053  -1.258   3.856  0.00  0.00    +0.167 C 
ENDROOT
BRANCH   9  14
ATOM     14  C   UNL     1       6.433  -0.928   5.888  0.00  0.00    +0.018 A 
ATOM     15  C   UNL     1       7.715  -0.669   5.401  0.00  0.00    +0.012 A 
ATOM     16  C   UNL     1       8.600   0.072   6.157  0.00  0.00    +0.004 A 
ATOM     17  C   UNL     1       8.219   0.558   7.395  0.00  0.00    -0.050 A 
ATOM     18  C   UNL     1       6.949   0.305   7.883  0.00  0.00    +0.004 A 
ATOM     19  C   UNL     1       6.052  -0.430   7.136  0.00  0.00    +0.012 A 
ATOM     20  C   UNL     1       9.191   1.366   8.216  0.00  0.00    +0.044 C 
ENDBRANCH   9  14
BRANCH   1  21
ATOM     21  O   UNL     1       0.650  -0.033   1.786  0.00  0.00    -0.451 OA
BRANCH  21  23
ATOM     22  C   UNL     1       0.046   2.091   0.803  0.00  0.00    +0.048 C 
ATOM     23  C   UNL     1      -0.079   0.569   0.713  0.00  0.00    +0.230 C 
ENDBRANCH  21  23
ENDBRANCH   1  21
BRANCH  10  24
ATOM     24  C   UNL     1       7.170  -3.493   4.948  0.00  0.00    +0.222 C 
BRANCH  24  25
ATOM     25  C   UNL     1       7.078  -4.361   6.176  0.00  0.00    +0.237 C 
ATOM     26  O   UNL     1       6.011  -4.514   6.732  0.00  0.00    -0.274 OA
ATOM     27  N   UNL     1       8.181  -4.968   6.657  0.00  0.00    -0.284 N 
ATOM     28  H   UNL     1       9.045  -4.798   6.249  0.00  0.00    +0.155 HD
BRANCH  27  29
ATOM     29  C   UNL     1       8.081  -5.842   7.745  0.00  0.00    +0.039 A 
ATOM     30  C   UNL     1       7.154  -5.600   8.749  0.00  0.00    +0.062 A 
ATOM     31  C   UNL     1       7.058  -6.466   9.823  0.00  0.00    +0.125 A 
ATOM     32  C   UNL     1       7.886  -7.575   9.895  0.00  0.00    +0.039 A 
ATOM     33  C   UNL     1       8.809  -7.817   8.895  0.00  0.00    +0.008 A 
ATOM     34  C   UNL     1       8.905  -6.958   7.818  0.00  0.00    -0.029 A 
ATOM     35  C   UNL     1       9.908  -7.228   6.725  0.00  0.00    +0.045 C 
ATOM     36  F   UNL     1       6.157  -6.232  10.802  0.00  0.00    -0.205 F 
ENDBRANCH  27  29
ENDBRANCH  24  25
ENDBRANCH  10  24
TORSDOF 6
