REMARK  Name = ZINC15069062
REMARK  9 active torsions:
REMARK  status: ('A' for Active; 'I' for Inactive)
REMARK    1  A    between atoms: C_1  and  C_2
REMARK    2  A    between atoms: C_5  and  N_9
REMARK    3  A    between atoms: C_7  and  C_8
REMARK    4  A    between atoms: C_14  and  N_54
REMARK    5  A    between atoms: C_19  and  C_20
REMARK    6  A    between atoms: C_19  and  N_54
REMARK    7  A    between atoms: C_22  and  O_28
REMARK    8  A    between atoms: C_23  and  O_27
REMARK    9  A    between atoms: O_28  and  C_29
REMARK                            x       y       z     vdW  Elec       q    Type
REMARK                         _______ _______ _______ _____ _____    ______ ____
ROOT
ATOM      1  N   UNL     1      -0.075   5.671   0.034  0.00  0.00    -0.237 N 
ATOM      2  C   UNL     1       0.754   6.471   0.730  0.00  0.00    +0.047 A 
ATOM      3  C   UNL     1       0.406   7.757   0.468  0.00  0.00    -0.020 A 
ATOM      4  C   UNL     1      -0.669   7.741  -0.419  0.00  0.00    +0.137 A 
ATOM      5  N   UNL     1      -0.957   6.490  -0.687  0.00  0.00    -0.174 NA
ATOM      6  C   UNL     1       1.099   8.958   1.062  0.00  0.00    -0.037 C 
ATOM      7  C   UNL     1       1.921   8.493   2.270  0.00  0.00    -0.011 C 
ATOM      8  C   UNL     1       2.781   7.291   1.871  0.00  0.00    +0.005 C 
ATOM      9  C   UNL     1       1.882   6.070   1.647  0.00  0.00    +0.056 C 
ENDROOT
BRANCH   1  14
ATOM     10  C   UNL     1       0.001  -0.004   0.001  0.00  0.00    +0.044 C 
ATOM     11  C   UNL     1      -0.019   1.503   0.009  0.00  0.00    -0.047 A 
ATOM     12  C   UNL     1       0.152   2.188   1.198  0.00  0.00    +0.006 A 
ATOM     13  C   UNL     1       0.135   3.569   1.210  0.00  0.00    +0.028 A 
ATOM     14  C   UNL     1      -0.056   4.269   0.025  0.00  0.00    +0.066 A 
ATOM     15  C   UNL     1      -0.228   3.578  -1.166  0.00  0.00    +0.031 A 
ATOM     16  C   UNL     1      -0.203   2.197  -1.172  0.00  0.00    -0.046 A 
ATOM     17  C   UNL     1      -0.384   1.446  -2.466  0.00  0.00    +0.044 C 
ENDBRANCH   1  14
BRANCH   6  18
ATOM     18  N   UNL     1       0.094   9.944   1.504  0.00  0.00    +0.386 N 
ATOM     19  H   UNL     1       0.494  10.523   2.251  0.00  0.00    -0.085 HD
ATOM     20  H   UNL     1      -0.732   9.448   1.860  0.00  0.00    -0.085 HD
BRANCH  18  21
ATOM     21  C   UNL     1      -0.305  10.809   0.378  0.00  0.00    -0.046 C 
BRANCH  21  22
ATOM     22  C   UNL     1      -1.330  11.803   0.859  0.00  0.00    -0.059 A 
ATOM     23  C   UNL     1      -0.923  13.027   1.358  0.00  0.00    +0.051 A 
ATOM     24  C   UNL     1      -1.864  13.943   1.801  0.00  0.00    +0.163 A 
ATOM     25  C   UNL     1      -3.218  13.629   1.741  0.00  0.00    +0.177 A 
ATOM     26  C   UNL     1      -3.620  12.400   1.239  0.00  0.00    +0.086 A 
ATOM     27  C   UNL     1      -2.675  11.493   0.794  0.00  0.00    +0.025 A 
ATOM     28 CL   UNL     1      -5.309  12.004   1.163  0.00  0.00    -0.080 Cl
BRANCH  25  29
ATOM     29  O   UNL     1      -4.145  14.524   2.175  0.00  0.00    -0.502 OA
ATOM     30  H   UNL     1      -4.458  15.130   1.489  0.00  0.00    +0.292 HD
ENDBRANCH  25  29
BRANCH  24  31
ATOM     31  O   UNL     1      -1.464  15.146   2.293  0.00  0.00    -0.491 OA
ATOM     32  C   UNL     1      -0.059  15.400   2.324  0.00  0.00    +0.277 C 
ENDBRANCH  24  31
ENDBRANCH  21  22
ENDBRANCH  18  21
ENDBRANCH   6  18
TORSDOF 6
