REMARK  Name = ZINC39678825
REMARK  9 active torsions:
REMARK  status: ('A' for Active; 'I' for Inactive)
REMARK    1  A    between atoms: C_1  and  C_2
REMARK    2  A    between atoms: C_2  and  C_3
REMARK    3  A    between atoms: C_2  and  O_4
REMARK    4  A    between atoms: O_4  and  C_5
REMARK    5  A    between atoms: C_5  and  C_7
REMARK    6  A    between atoms: C_7  and  N_8
REMARK    7  A    between atoms: C_9  and  C_11
REMARK    8  A    between atoms: C_22  and  C_24
REMARK    9  A    between atoms: C_27  and  C_29
REMARK                            x       y       z     vdW  Elec       q    Type
REMARK                         _______ _______ _______ _____ _____    ______ ____
ROOT
ATOM      1  C   UNL     1      -4.032  -5.571  -2.210  0.00  0.00    +0.100 C 
ATOM      2  C   UNL     1      -3.045  -6.545  -1.528  0.00  0.00    +0.121 C 
ATOM      3  N   UNL     1      -3.887  -7.352  -0.613  0.00  0.00    -0.294 N 
ATOM      4  C   UNL     1      -5.135  -7.593  -1.376  0.00  0.00    +0.115 C 
ATOM      5  C   UNL     1      -5.402  -6.264  -2.111  0.00  0.00    -0.004 C 
ATOM      6  C   UNL     1      -5.958  -6.535  -3.506  0.00  0.00    -0.010 C 
ATOM      7  C   UNL     1      -7.346  -7.171  -3.382  0.00  0.00    -0.082 C 
ATOM      8  N   UNL     1      -8.237  -6.267  -2.645  0.00  0.00    +0.379 N 
ATOM      9  C   UNL     1      -7.744  -6.086  -1.274  0.00  0.00    -0.082 C 
ATOM     10  C   UNL     1      -6.373  -5.404  -1.309  0.00  0.00    -0.010 C 
ATOM     11  C   UNL     1      -3.586  -7.772   0.632  0.00  0.00    +0.282 C 
ATOM     12  O   UNL     1      -4.390  -8.433   1.262  0.00  0.00    -0.267 OA
ATOM     13  H   UNL     1      -8.267  -5.372  -3.111  0.00  0.00    -0.086 HD
ATOM     14  H   UNL     1      -9.165  -6.660  -2.618  0.00  0.00    -0.086 HD
ENDROOT
BRANCH  11  15
ATOM     15  C   UNL     1      -2.290  -7.432   1.226  0.00  0.00    +0.190 A 
ATOM     16  C   UNL     1      -1.854  -7.800   2.480  0.00  0.00    +0.055 A 
ATOM     17  C   UNL     1      -0.571  -7.265   2.634  0.00  0.00    +0.050 A 
ATOM     18  C   UNL     1      -0.273  -6.597   1.481  0.00  0.00    +0.136 A 
ATOM     19  O   UNL     1      -1.313  -6.710   0.638  0.00  0.00    -0.450 OA
BRANCH  18  20
ATOM     20  C   UNL     1       0.986  -5.876   1.204  0.00  0.00    +0.017 A 
ATOM     21  C   UNL     1       2.000  -5.842   2.163  0.00  0.00    +0.011 A 
ATOM     22  C   UNL     1       3.174  -5.168   1.898  0.00  0.00    +0.001 A 
ATOM     23  C   UNL     1       3.346  -4.525   0.685  0.00  0.00    +0.000 A 
ATOM     24  C   UNL     1       2.345  -4.554  -0.270  0.00  0.00    +0.001 A 
ATOM     25  C   UNL     1       1.169  -5.230  -0.020  0.00  0.00    +0.011 A 
ENDBRANCH  18  20
ENDBRANCH  11  15
BRANCH   1  27
ATOM     26  N   UNL     1      -4.356  -3.120  -2.145  0.00  0.00    -0.305 N 
ATOM     27  C   UNL     1      -4.058  -4.253  -1.480  0.00  0.00    +0.219 C 
ATOM     28  O   UNL     1      -3.809  -4.212  -0.293  0.00  0.00    -0.275 OA
ATOM     29  H   UNL     1      -4.555  -3.153  -3.094  0.00  0.00    +0.149 HD
BRANCH  26  30
ATOM     30  C   UNL     1      -4.381  -1.839  -1.436  0.00  0.00    +0.224 C 
BRANCH  30  31
ATOM     31  C   UNL     1      -4.739  -0.737  -2.400  0.00  0.00    +0.325 C 
ATOM     32  O   UNL     1      -4.952  -0.996  -3.561  0.00  0.00    -0.249 OA
BRANCH  31  33
ATOM     33  O   UNL     1      -4.822   0.531  -1.969  0.00  0.00    -0.461 OA
BRANCH  33  35
ATOM     34  C   UNL     1      -5.920   2.665  -2.252  0.00  0.00    +0.052 C 
ATOM     35  C   UNL     1      -5.166   1.524  -2.938  0.00  0.00    +0.170 C 
ATOM     36  C   UNL     1      -3.891   2.071  -3.582  0.00  0.00    +0.052 C 
ENDBRANCH  33  35
ENDBRANCH  31  33
ENDBRANCH  30  31
ENDBRANCH  26  30
ENDBRANCH   1  27
TORSDOF 7
