REMARK  Name = ZINC36273490
REMARK  9 active torsions:
REMARK  status: ('A' for Active; 'I' for Inactive)
REMARK    1  A    between atoms: C_1  and  C_2
REMARK    2  A    between atoms: C_2  and  C_3
REMARK    3  A    between atoms: C_3  and  C_4
REMARK    4  A    between atoms: C_4  and  N_5
REMARK    5  A    between atoms: N_5  and  C_6
REMARK    6  A    between atoms: N_5  and  C_7
REMARK    7  A    between atoms: C_7  and  C_8
REMARK    8  A    between atoms: C_9  and  C_18
REMARK    9  A    between atoms: C_14  and  N_17
REMARK                            x       y       z     vdW  Elec       q    Type
REMARK                         _______ _______ _______ _____ _____    ______ ____
ROOT
ATOM      1  C   UNL     1      -4.296  -4.316   0.282  0.00  0.00    +0.035 A 
ATOM      2  C   UNL     1      -4.837  -4.823   1.425  0.00  0.00    +0.091 A 
ATOM      3  N   UNL     1      -5.958  -5.486   1.102  0.00  0.00    -0.228 NA
ATOM      4  C   UNL     1      -6.143  -5.413  -0.209  0.00  0.00    +0.138 A 
ATOM      5  N   UNL     1      -5.118  -4.680  -0.747  0.00  0.00    -0.303 N 
ATOM      6  C   UNL     1      -5.067  -4.445  -2.094  0.00  0.00    +0.115 A 
ATOM      7  C   UNL     1      -6.030  -4.930  -2.915  0.00  0.00    +0.041 A 
ATOM      8  C   UNL     1      -7.097  -5.684  -2.386  0.00  0.00    +0.028 A 
ATOM      9  C   UNL     1      -7.150  -5.930  -1.050  0.00  0.00    +0.048 A 
ENDROOT
BRANCH   2  10
ATOM     10  C   UNL     1      -4.281  -4.670   2.793  0.00  0.00    +0.004 A 
ATOM     11  C   UNL     1      -5.127  -4.374   3.860  0.00  0.00    +0.014 A 
ATOM     12  C   UNL     1      -4.612  -4.232   5.133  0.00  0.00    +0.048 A 
ATOM     13  C   UNL     1      -3.253  -4.383   5.353  0.00  0.00    +0.142 A 
ATOM     14  C   UNL     1      -2.402  -4.678   4.288  0.00  0.00    +0.076 A 
ATOM     15  C   UNL     1      -2.914  -4.827   3.011  0.00  0.00    +0.037 A 
ATOM     16  N   UNL     1      -1.028  -4.825   4.528  0.00  0.00    -0.280 N 
ATOM     17  C   UNL     1      -0.600  -4.994   5.798  0.00  0.00    +0.255 C 
ATOM     18  O   UNL     1       0.585  -5.093   6.034  0.00  0.00    -0.272 OA
ATOM     19  C   UNL     1      -1.603  -5.058   6.923  0.00  0.00    +0.325 C 
ATOM     20  O   UNL     1      -2.735  -4.245   6.603  0.00  0.00    -0.481 OA
ATOM     21  H   UNL     1      -0.395  -4.806   3.794  0.00  0.00    +0.155 HD
ENDBRANCH   2  10
BRANCH   7  22
ATOM     22  N   UNL     1      -5.965  -4.681  -4.292  0.00  0.00    -0.357 N 
ATOM     23  H   UNL     1      -5.231  -4.162  -4.657  0.00  0.00    +0.142 HD
ATOM     24  H   UNL     1      -6.654  -5.028  -4.881  0.00  0.00    +0.142 HD
ENDBRANCH   7  22
BRANCH   1  25
ATOM     25  C   UNL     1      -3.033  -3.501   0.174  0.00  0.00    -0.022 C 
BRANCH  25  26
ATOM     26  N   UNL     1      -3.333  -2.092   0.467  0.00  0.00    +0.382 N 
ATOM     27  C   UNL     1      -4.230  -1.558  -0.566  0.00  0.00    -0.096 C 
ATOM     28  H   UNL     1      -3.779  -2.024   1.369  0.00  0.00    -0.082 HD
BRANCH  26  29
ATOM     29  C   UNL     1      -2.084  -1.319   0.479  0.00  0.00    -0.079 C 
BRANCH  29  30
ATOM     30  C   UNL     1      -2.380   0.120   0.905  0.00  0.00    -0.019 C 
BRANCH  30  32
ATOM     31  C   UNL     1      -1.375   2.365   1.345  0.00  0.00    +0.004 C 
ATOM     32  C   UNL     1      -1.079   0.926   0.918  0.00  0.00    -0.005 C 
ENDBRANCH  30  32
ENDBRANCH  29  30
ENDBRANCH  26  29
ENDBRANCH  25  26
ENDBRANCH   1  25
TORSDOF 7
