REMARK  Name = ZINC02512313
REMARK  6 active torsions:
REMARK  status: ('A' for Active; 'I' for Inactive)
REMARK    1  A    between atoms: C_3  and  O_18
REMARK    2  A    between atoms: C_4  and  O_17
REMARK    3  A    between atoms: C_6  and  C_7
REMARK    4  A    between atoms: C_7  and  C_9
REMARK    5  A    between atoms: C_12  and  O_16
REMARK    6  A    between atoms: C_14  and  O_15
REMARK                            x       y       z     vdW  Elec       q    Type
REMARK                         _______ _______ _______ _____ _____    ______ ____
ROOT
ATOM      1  C   UNL     1      -1.265  -0.761   0.011  0.00  0.00    +0.197 C 
ATOM      2  O   UNL     1      -1.244  -1.977  -0.009  0.00  0.00    -0.287 OA
ENDROOT
BRANCH   1   8
ATOM      3  C   UNL     1       1.200  -0.668  -0.330  0.00  0.00    +0.015 A 
ATOM      4  C   UNL     1       2.375   0.045  -0.428  0.00  0.00    +0.050 A 
ATOM      5  C   UNL     1       2.366   1.427  -0.293  0.00  0.00    +0.158 A 
ATOM      6  C   UNL     1       1.167   2.100  -0.058  0.00  0.00    +0.159 A 
ATOM      7  C   UNL     1      -0.014   1.392   0.041  0.00  0.00    +0.061 A 
ATOM      8  C   UNL     1      -0.005   0.001  -0.094  0.00  0.00    +0.026 A 
BRANCH   6   9
ATOM      9  O   UNL     1       1.162   3.454   0.074  0.00  0.00    -0.503 OA
ATOM     10  H   UNL     1       1.038   3.929  -0.758  0.00  0.00    +0.292 HD
ENDBRANCH   6   9
BRANCH   5  11
ATOM     11  O   UNL     1       3.527   2.124  -0.390  0.00  0.00    -0.503 OA
ATOM     12  H   UNL     1       3.740   2.410  -1.288  0.00  0.00    +0.292 HD
ENDBRANCH   5  11
ENDBRANCH   1   8
BRANCH   1  13
ATOM     13  C   UNL     1      -2.547  -0.049   0.138  0.00  0.00    +0.064 A 
ATOM     14  C   UNL     1      -3.197   0.013   1.376  0.00  0.00    +0.019 A 
ATOM     15  C   UNL     1      -4.385   0.674   1.493  0.00  0.00    +0.046 A 
ATOM     16  C   UNL     1      -4.960   1.290   0.385  0.00  0.00    +0.120 A 
ATOM     17  C   UNL     1      -4.329   1.239  -0.849  0.00  0.00    +0.091 A 
ATOM     18  C   UNL     1      -3.121   0.577  -0.981  0.00  0.00    +0.131 A 
BRANCH  18  19
ATOM     19  O   UNL     1      -2.497   0.528  -2.184  0.00  0.00    -0.506 OA
ATOM     20  H   UNL     1      -2.749  -0.231  -2.727  0.00  0.00    +0.292 HD
ENDBRANCH  18  19
BRANCH  16  21
ATOM     21  O   UNL     1      -6.142   1.944   0.513  0.00  0.00    -0.507 OA
ATOM     22  H   UNL     1      -6.052   2.880   0.741  0.00  0.00    +0.292 HD
ENDBRANCH  16  21
ENDBRANCH   1  13
TORSDOF 6
