REMARK  Name = ZINC08326303
REMARK  10 active torsions:
REMARK  status: ('A' for Active; 'I' for Inactive)
REMARK    1  A    between atoms: C_1  and  C_2
REMARK    2  A    between atoms: C_2  and  CA_3
REMARK    3  A    between atoms: CA_3  and  C_5
REMARK    4  A    between atoms: CA_3  and  N_36
REMARK    5  A    between atoms: C_5  and  O_6
REMARK    6  A    between atoms: C_7  and  C_8
REMARK    7  A    between atoms: C_7  and  N_36
REMARK    8  A    between atoms: C_13  and  O_14
REMARK    9  A    between atoms: O_14  and  C_15
REMARK   10  A    between atoms: C_15  and  C_16
REMARK                            x       y       z     vdW  Elec       q    Type
REMARK                         _______ _______ _______ _____ _____    ______ ____
ROOT
ATOM      1  C   UNL     1      -0.070   0.268   2.623  0.00  0.00    -0.021 A 
ATOM      2  C   UNL     1       0.555   0.286   3.856  0.00  0.00    +0.020 A 
ATOM      3  C   UNL     1       1.545   1.216   4.117  0.00  0.00    +0.019 A 
ATOM      4  C   UNL     1       1.916   2.127   3.144  0.00  0.00    +0.034 A 
ATOM      5  C   UNL     1       1.298   2.109   1.908  0.00  0.00    +0.061 A 
ATOM      6  C   UNL     1       0.304   1.177   1.644  0.00  0.00    +0.136 A 
ATOM      7 BR   UNL     1       1.805   3.354   0.578  0.00  0.00    -0.046 Br
ATOM      8 BR   UNL     1       2.392   1.243   5.808  0.00  0.00    -0.050 Br
ENDROOT
BRANCH   1   9
ATOM      9  C   UNL     1      -1.153  -0.741   2.341  0.00  0.00    -0.043 C 
BRANCH   9  10
ATOM     10  N   UNL     1      -0.629  -1.786   1.441  0.00  0.00    +0.385 N 
ATOM     11  H1  UNL     1      -1.407  -2.198   0.912  0.00  0.00    -0.085 HD
ATOM     12  H2  UNL     1       0.043  -1.366   0.789  0.00  0.00    -0.085 HD
BRANCH  10  13
ATOM     13  CA  UNL     1       0.044  -2.843   2.220  0.00  0.00    -0.046 C 
BRANCH  13  15
ATOM     14  C   UNL     1      -2.127  -3.638   3.168  0.00  0.00    +0.002 C 
ATOM     15  C   UNL     1      -0.892  -4.045   2.361  0.00  0.00    -0.017 C 
ENDBRANCH  13  15
BRANCH  13  16
ATOM     16  C   UNL     1       1.318  -3.272   1.490  0.00  0.00    +0.140 C 
BRANCH  16  17
ATOM     17  O   UNL     1       0.972  -3.874   0.241  0.00  0.00    -0.397 OA
ATOM     18  H   UNL     1       1.733  -4.170  -0.277  0.00  0.00    +0.209 HD
ENDBRANCH  16  17
ENDBRANCH  13  16
ENDBRANCH  10  13
ENDBRANCH   9  10
ENDBRANCH   1   9
BRANCH   6  19
ATOM     19  O   UNL     1      -0.306   1.157   0.429  0.00  0.00    -0.491 OA
BRANCH  19  20
ATOM     20  C   UNL     1      -1.421   2.033   0.249  0.00  0.00    +0.226 C 
ATOM     21  C   UNL     1      -1.894   1.964  -1.204  0.00  0.00    +0.048 C 
ENDBRANCH  19  20
ENDBRANCH   6  19
TORSDOF 8
