REMARK  Name = ZINC66242281
REMARK  9 active torsions:
REMARK  status: ('A' for Active; 'I' for Inactive)
REMARK    1  A    between atoms: C_1  and  O_2
REMARK    2  A    between atoms: O_2  and  C_3
REMARK    3  A    between atoms: C_6  and  C_9
REMARK    4  A    between atoms: C_9  and  C_10
REMARK    5  A    between atoms: C_10  and  N_11
REMARK    6  A    between atoms: N_14  and  C_15
REMARK    7  A    between atoms: C_15  and  C_16
REMARK    8  A    between atoms: C_16  and  C_18
REMARK    9  A    between atoms: C_16  and  N_23
REMARK                            x       y       z     vdW  Elec       q    Type
REMARK                         _______ _______ _______ _____ _____    ______ ____
ROOT
ATOM      1  N   UNL     1       4.561  -2.971  -5.820  0.00  0.00    -0.357 N 
ATOM      2  C   UNL     1       5.859  -3.357  -5.582  0.00  0.00    +0.169 C 
ATOM      3  N   UNL     1       6.443  -3.026  -4.465  0.00  0.00    -0.371 N 
ATOM      4  N   UNL     1       6.541  -4.093  -6.522  0.00  0.00    -0.356 N 
ATOM      5  H   UNL     1       4.127  -3.217  -6.651  0.00  0.00    +0.162 HD
ATOM      6  H   UNL     1       7.359  -3.299  -4.296  0.00  0.00    +0.159 HD
ATOM      7  H   UNL     1       6.106  -4.340  -7.353  0.00  0.00    +0.162 HD
ATOM      8  H   UNL     1       5.962  -2.507  -3.801  0.00  0.00    +0.159 HD
ENDROOT
BRANCH   1   9
ATOM      9  C   UNL     1       3.835  -2.187  -4.818  0.00  0.00    +0.120 C 
BRANCH   9  10
ATOM     10  C   UNL     1       2.423  -1.891  -5.327  0.00  0.00    +0.056 C 
BRANCH  10  14
ATOM     11  C   UNL     1       0.303   0.396  -2.405  0.00  0.00    +0.120 A 
ATOM     12  C   UNL     1       1.043   1.038  -3.388  0.00  0.00    +0.046 A 
ATOM     13  C   UNL     1       1.728   0.297  -4.331  0.00  0.00    +0.007 A 
ATOM     14  C   UNL     1       1.675  -1.085  -4.297  0.00  0.00    -0.045 A 
ATOM     15  C   UNL     1       0.939  -1.727  -3.319  0.00  0.00    +0.007 A 
ATOM     16  C   UNL     1       0.257  -0.990  -2.370  0.00  0.00    +0.046 A 
BRANCH  11  18
ATOM     17  C   UNL     1      -0.278   2.546  -1.574  0.00  0.00    +0.277 C 
ATOM     18  O   UNL     1      -0.370   1.123  -1.476  0.00  0.00    -0.495 OA
ENDBRANCH  11  18
ENDBRANCH  10  14
ENDBRANCH   9  10
ENDBRANCH   1   9
BRANCH   4  19
ATOM     19  C   UNL     1       7.924  -4.505  -6.268  0.00  0.00    +0.139 C 
BRANCH  19  20
ATOM     20  C   UNL     1       8.415  -5.380  -7.423  0.00  0.00    +0.113 C 
BRANCH  20  21
ATOM     21  N   UNL     1       7.481  -6.496  -7.623  0.00  0.00    -0.289 NA
ATOM     22  C   UNL     1       7.345  -7.297  -6.398  0.00  0.00    +0.113 C 
ATOM     23  C   UNL     1       6.320  -8.410  -6.633  0.00  0.00    +0.175 C 
ATOM     24  O   UNL     1       6.729  -9.199  -7.753  0.00  0.00    -0.377 OA
ATOM     25  C   UNL     1       6.870  -8.451  -8.964  0.00  0.00    +0.175 C 
ATOM     26  C   UNL     1       7.901  -7.338  -8.752  0.00  0.00    +0.113 C 
ENDBRANCH  20  21
BRANCH  20  27
ATOM     27  C   UNL     1       8.491  -4.556  -8.681  0.00  0.00    +0.009 A 
ATOM     28  C   UNL     1       9.573  -3.986  -9.265  0.00  0.00    +0.013 A 
ATOM     29  C   UNL     1       9.404  -3.265 -10.432  0.00  0.00    +0.008 A 
ATOM     30  C   UNL     1       8.161  -3.149 -10.959  0.00  0.00    +0.045 A 
ATOM     31  S   UNL     1       7.179  -4.082  -9.796  0.00  0.00    -0.100 S 
ENDBRANCH  20  27
ENDBRANCH  19  20
ENDBRANCH   4  19
TORSDOF 8
