REMARK  Name = ZINC15547920
REMARK  9 active torsions:
REMARK  status: ('A' for Active; 'I' for Inactive)
REMARK    1  A    between atoms: C_1  and  C_2
REMARK    2  A    between atoms: C_2  and  O_3
REMARK    3  A    between atoms: O_3  and  C_4
REMARK    4  A    between atoms: C_7  and  N_19
REMARK    5  A    between atoms: C_9  and  S_10
REMARK    6  A    between atoms: S_10  and  N_13
REMARK    7  A    between atoms: C_20  and  C_22
REMARK    8  A    between atoms: C_22  and  N_63
REMARK    9  A    between atoms: C_30  and  C_32
REMARK                            x       y       z     vdW  Elec       q    Type
REMARK                         _______ _______ _______ _____ _____    ______ ____
ROOT
ATOM      1  C   UNL     1       2.388   1.402   0.007  0.00  0.00    +0.147 A 
ATOM      2  C   UNL     1       2.402   0.014   0.001  0.00  0.00    +0.049 A 
ATOM      3  C   UNL     1       1.214  -0.689   0.002  0.00  0.00    +0.027 A 
ATOM      4  C   UNL     1       0.004  -0.008   0.009  0.00  0.00    +0.035 A 
ATOM      5  C   UNL     1      -0.010   1.380   0.014  0.00  0.00    +0.055 A 
ATOM      6  C   UNL     1       1.179   2.083   0.013  0.00  0.00    +0.149 A 
ENDROOT
BRANCH   4   7
ATOM      7  N   UNL     1      -1.202  -0.721   0.009  0.00  0.00    -0.287 N 
ATOM      8  C   UNL     1      -1.297  -1.884  -0.666  0.00  0.00    +0.201 C 
ATOM      9  O   UNL     1      -0.317  -2.355  -1.204  0.00  0.00    -0.278 OA
ATOM     10  H   UNL     1      -1.968  -0.378   0.495  0.00  0.00    +0.155 HD
BRANCH   8  11
ATOM     11  C   UNL     1      -2.621  -2.599  -0.752  0.00  0.00    +0.020 C 
BRANCH  11  21
ATOM     12  C   UNL     1      -2.104  -3.528  -2.928  0.00  0.00    -0.072 C 
ATOM     13  C   UNL     1      -1.553  -4.804  -3.587  0.00  0.00    +0.024 C 
ATOM     14  C   UNL     1      -2.479  -5.927  -3.249  0.00  0.00    -0.010 A 
ATOM     15  C   UNL     1      -3.450  -5.921  -2.293  0.00  0.00    -0.051 A 
ATOM     16  C   UNL     1      -4.197  -7.088  -2.158  0.00  0.00    +0.010 A 
ATOM     17  C   UNL     1      -3.939  -8.153  -2.954  0.00  0.00    +0.045 A 
ATOM     18  S   UNL     1      -2.595  -7.543  -3.961  0.00  0.00    -0.101 S 
ATOM     19  C   UNL     1      -3.663  -4.671  -1.444  0.00  0.00    -0.039 C 
ATOM     20  C   UNL     1      -3.899  -5.074   0.013  0.00  0.00    -0.008 C 
ATOM     21  N   UNL     1      -2.434  -3.846  -1.518  0.00  0.00    +0.390 N 
ATOM     22  H   UNL     1      -1.656  -4.376  -1.107  0.00  0.00    -0.080 HD
ENDBRANCH  11  21
ENDBRANCH   8  11
ENDBRANCH   4   7
BRANCH   6  23
ATOM     23  S   UNL     1       1.161   3.845   0.019  0.00  0.00    +0.064 S 
ATOM     24  O   UNL     1       2.050   4.263  -1.008  0.00  0.00    -0.153 OA
ATOM     25  O   UNL     1      -0.204   4.237   0.051  0.00  0.00    -0.153 OA
BRANCH  23  26
ATOM     26  N   UNL     1       1.829   4.336   1.452  0.00  0.00    -0.176 NA
ATOM     27  C   UNL     1       0.986   4.550   2.636  0.00  0.00    +0.109 C 
ATOM     28  C   UNL     1       1.558   3.725   3.799  0.00  0.00    +0.017 C 
ATOM     29  C   UNL     1       3.030   4.090   4.002  0.00  0.00    +0.003 C 
ATOM     30  C   UNL     1       3.821   3.751   2.736  0.00  0.00    +0.017 C 
ATOM     31  C   UNL     1       3.275   4.571   1.563  0.00  0.00    +0.109 C 
ENDBRANCH  23  26
ENDBRANCH   6  23
BRANCH   1  32
ATOM     32  O   UNL     1       3.558   2.094   0.006  0.00  0.00    -0.490 OA
BRANCH  32  34
ATOM     33  C   UNL     1       5.968   2.273  -0.000  0.00  0.00    +0.048 C 
ATOM     34  C   UNL     1       4.764   1.328  -0.000  0.00  0.00    +0.226 C 
ENDBRANCH  32  34
ENDBRANCH   1  32
TORSDOF 7
