REMARK  Name = ZINC42918328
REMARK  5 active torsions:
REMARK  status: ('A' for Active; 'I' for Inactive)
REMARK    1  A    between atoms: C_3  and  O_22
REMARK    2  A    between atoms: C_4  and  N_10
REMARK    3  A    between atoms: C_6  and  N_7
REMARK    4  A    between atoms: C_11  and  C_13
REMARK    5  A    between atoms: O_22  and  C_23
REMARK                            x       y       z     vdW  Elec       q    Type
REMARK                         _______ _______ _______ _____ _____    ______ ____
ROOT
ATOM      1  C   UNL     1      -0.023   1.365   0.040  0.00  0.00    +0.036 A 
ATOM      2  C   UNL     1       1.160   2.081   0.026  0.00  0.00    +0.050 A 
ATOM      3  C   UNL     1       2.373   1.413   0.000  0.00  0.00    +0.148 A 
ATOM      4  C   UNL     1       2.398   0.020  -0.011  0.00  0.00    +0.078 A 
ATOM      5  C   UNL     1       1.207  -0.691   0.004  0.00  0.00    +0.059 A 
ATOM      6  C   UNL     1       0.000  -0.017   0.029  0.00  0.00    +0.128 A 
ENDROOT
BRANCH   4   7
ATOM      7  N   UNL     1       3.621  -0.661  -0.037  0.00  0.00    -0.278 N 
ATOM      8  C   UNL     1       3.687  -1.910  -0.538  0.00  0.00    +0.250 C 
ATOM      9  O   UNL     1       2.707  -2.408  -1.059  0.00  0.00    -0.270 OA
ATOM     10  H   UNL     1       4.422  -0.233   0.305  0.00  0.00    +0.155 HD
BRANCH   8  11
ATOM     11  C   UNL     1       4.948  -2.674  -0.455  0.00  0.00    +0.058 A 
ATOM     12  C   UNL     1       6.073  -2.106   0.147  0.00  0.00    +0.054 A 
ATOM     13  C   UNL     1       7.249  -2.825   0.222  0.00  0.00    +0.142 A 
ATOM     14  C   UNL     1       7.314  -4.109  -0.300  0.00  0.00    +0.077 A 
ATOM     15  C   UNL     1       6.203  -4.677  -0.899  0.00  0.00    +0.043 A 
ATOM     16  C   UNL     1       5.019  -3.969  -0.974  0.00  0.00    +0.055 A 
ATOM     17 CL   UNL     1       3.624  -4.686  -1.718  0.00  0.00    -0.083 Cl
ATOM     18 CL   UNL     1       8.797  -5.008  -0.203  0.00  0.00    -0.081 Cl
ATOM     19  F   UNL     1       8.338  -2.278   0.804  0.00  0.00    -0.204 F 
ENDBRANCH   8  11
ENDBRANCH   4   7
BRANCH   6  20
ATOM     20  N   UNL     1      -1.270  -0.777   0.045  0.00  0.00    +0.056 N 
ATOM     21  O   UNL     1      -2.326  -0.189   0.068  0.00  0.00    -0.126 OA
ATOM     22  O   UNL     1      -1.251  -1.986   0.036  0.00  0.00    -0.126 OA
ENDBRANCH   6  20
BRANCH   3  23
ATOM     23  O   UNL     1       3.538   2.116  -0.015  0.00  0.00    -0.432 OA
BRANCH  23  24
ATOM     24  C   UNL     1       3.436   3.541  -0.003  0.00  0.00    +0.541 C 
ATOM     25  F   UNL     1       2.725   3.967  -1.130  0.00  0.00    -0.166 F 
ATOM     26  F   UNL     1       2.764   3.951   1.154  0.00  0.00    -0.166 F 
ENDBRANCH  23  24
ENDBRANCH   3  23
TORSDOF 5
