REMARK  Name = ZINC26127139
REMARK  5 active torsions:
REMARK  status: ('A' for Active; 'I' for Inactive)
REMARK    1  A    between atoms: C_1  and  C_2
REMARK    2  A    between atoms: C_2  and  C_4
REMARK    3  A    between atoms: C_2  and  N_12
REMARK    4  A    between atoms: C_7  and  C_10
REMARK    5  A    between atoms: C_13  and  C_15
REMARK                            x       y       z     vdW  Elec       q    Type
REMARK                         _______ _______ _______ _____ _____    ______ ____
ROOT
ATOM      1  N   UNL     1      -1.367  -0.524   0.010  0.00  0.00    -0.305 N 
ATOM      2  C   UNL     1      -2.051  -0.643  -1.145  0.00  0.00    +0.250 C 
ATOM      3  O   UNL     1      -1.562  -0.245  -2.185  0.00  0.00    -0.270 OA
ATOM      4  H   UNL     1      -1.785  -0.772   0.850  0.00  0.00    +0.150 HD
ENDROOT
BRANCH   2   5
ATOM      5  C   UNL     1      -3.390  -1.254  -1.147  0.00  0.00    +0.102 A 
ATOM      6  C   UNL     1      -4.062  -1.493  -2.338  0.00  0.00    +0.031 A 
ATOM      7  C   UNL     1      -5.343  -2.083  -2.290  0.00  0.00    +0.037 A 
ATOM      8  C   UNL     1      -5.919  -2.425  -1.079  0.00  0.00    +0.030 A 
ATOM      9  N   UNL     1      -5.269  -2.188   0.079  0.00  0.00    -0.325 N 
ATOM     10  C   UNL     1      -4.046  -1.633   0.106  0.00  0.00    +0.261 A 
ATOM     11  O   UNL     1      -3.487  -1.441   1.171  0.00  0.00    -0.267 OA
ATOM     12  C   UNL     1      -7.277  -3.075  -1.010  0.00  0.00    +0.054 C 
ATOM     13  C   UNL     1      -8.101  -2.773  -2.258  0.00  0.00    +0.014 C 
ATOM     14  C   UNL     1      -7.306  -3.191  -3.502  0.00  0.00    +0.080 C 
ATOM     15  C   UNL     1      -6.063  -2.327  -3.552  0.00  0.00    +0.165 C 
ATOM     16  O   UNL     1      -5.674  -1.850  -4.597  0.00  0.00    -0.292 OA
ATOM     17  H   UNL     1      -5.696  -2.429   0.916  0.00  0.00    +0.169 HD
ENDBRANCH   2   5
BRANCH   1  19
ATOM     18  C   UNL     1      -0.010   1.511   0.022  0.00  0.00    +0.033 C 
ATOM     19  C   UNL     1       0.009  -0.018  -0.002  0.00  0.00    +0.100 C 
BRANCH  19  20
ATOM     20  C   UNL     1       0.743  -0.531   1.211  0.00  0.00    -0.027 A 
ATOM     21  C   UNL     1       0.094  -0.596   2.432  0.00  0.00    +0.007 A 
ATOM     22  C   UNL     1       0.760  -1.064   3.545  0.00  0.00    +0.019 A 
ATOM     23  C   UNL     1       2.091  -1.473   3.439  0.00  0.00    +0.052 A 
ATOM     24  C   UNL     1       2.739  -1.405   2.204  0.00  0.00    +0.019 A 
ATOM     25  C   UNL     1       2.059  -0.939   1.097  0.00  0.00    +0.007 A 
BRANCH  23  26
ATOM     26  C   UNL     1       2.789  -1.960   4.591  0.00  0.00    +0.099 C 
ATOM     27  N   UNL     1       3.342  -2.345   5.505  0.00  0.00    -0.191 NA
ENDBRANCH  23  26
ENDBRANCH  19  20
ENDBRANCH   1  19
TORSDOF 4
