REMARK  Name = ZINC32091138
REMARK  10 active torsions:
REMARK  status: ('A' for Active; 'I' for Inactive)
REMARK    1  A    between atoms: C_1  and  C_2
REMARK    2  A    between atoms: C_3  and  O_9
REMARK    3  A    between atoms: O_9  and  C_10
REMARK    4  A    between atoms: C_10  and  C_11
REMARK    5  A    between atoms: C_14  and  C_17
REMARK    6  A    between atoms: C_19  and  C_22
REMARK    7  A    between atoms: N_24  and  C_25
REMARK    8  A    between atoms: C_25  and  C_26
REMARK    9  A    between atoms: C_26  and  C_28
REMARK   10  A    between atoms: C_26  and  O_34
REMARK                            x       y       z     vdW  Elec       q    Type
REMARK                         _______ _______ _______ _____ _____    ______ ____
ROOT
ATOM      1  C   UNL     1       8.780   5.684  -0.566  0.00  0.00    +0.203 A 
ATOM      2  N   UNL     1       8.851   7.027  -0.461  0.00  0.00    -0.183 NA
ATOM      3  C   UNL     1      10.129   7.302  -0.304  0.00  0.00    +0.314 A 
ATOM      4  O   UNL     1      10.786   6.133  -0.327  0.00  0.00    -0.328 OA
ATOM      5  N   UNL     1      10.001   5.221  -0.477  0.00  0.00    -0.055 NA
ENDROOT
BRANCH   1   9
ATOM      6  C   UNL     1       5.245   3.382  -1.105  0.00  0.00    -0.010 A 
ATOM      7  C   UNL     1       5.163   4.760  -1.012  0.00  0.00    +0.007 A 
ATOM      8  C   UNL     1       6.307   5.512  -0.832  0.00  0.00    +0.012 A 
ATOM      9  C   UNL     1       7.546   4.881  -0.755  0.00  0.00    +0.022 A 
ATOM     10  C   UNL     1       7.624   3.494  -0.854  0.00  0.00    +0.012 A 
ATOM     11  C   UNL     1       6.473   2.751  -1.029  0.00  0.00    +0.007 A 
BRANCH   6  12
ATOM     12  C   UNL     1       3.992   2.567  -1.295  0.00  0.00    +0.265 C 
BRANCH  12  13
ATOM     13  O   UNL     1       3.461   2.206  -0.019  0.00  0.00    -0.481 OA
BRANCH  13  16
ATOM     14  C   UNL     1       1.024   3.565   0.011  0.00  0.00    +0.090 C 
ATOM     15  C   UNL     1       1.110   2.060   0.003  0.00  0.00    +0.147 A 
ATOM     16  C   UNL     1       2.321   1.462  -0.012  0.00  0.00    +0.205 A 
ATOM     17  C   UNL     1       2.385   0.041  -0.020  0.00  0.00    +0.226 A 
ATOM     18  O   UNL     1       3.460  -0.539  -0.033  0.00  0.00    -0.284 OA
ATOM     19  C   UNL     1       1.167  -0.683  -0.012  0.00  0.00    +0.092 A 
ATOM     20  C   UNL     1       0.002  -0.004   0.002  0.00  0.00    +0.199 A 
ATOM     21  O   UNL     1      -0.016   1.333   0.009  0.00  0.00    -0.464 OA
ENDBRANCH  13  16
ENDBRANCH  12  13
ENDBRANCH   6  12
ENDBRANCH   1   9
BRANCH   3  22
ATOM     22  C   UNL     1      10.728   8.649  -0.139  0.00  0.00    +0.302 C 
ATOM     23  O   UNL     1      10.016   9.634  -0.136  0.00  0.00    -0.265 OA
ATOM     24  N   UNL     1      12.061   8.780   0.007  0.00  0.00    -0.305 N 
ATOM     25  H   UNL     1      12.705   7.888   0.005  0.00  0.00    +0.149 HD
BRANCH  24  26
ATOM     26  C   UNL     1      12.652  10.110   0.170  0.00  0.00    +0.140 C 
BRANCH  26  27
ATOM     27  C   UNL     1      14.170   9.979   0.316  0.00  0.00    +0.162 C 
BRANCH  27  28
ATOM     28  C   UNL     1      14.779  11.348   0.483  0.00  0.00    -0.018 A 
ATOM     29  C   UNL     1      14.837  11.930   1.736  0.00  0.00    +0.006 A 
ATOM     30  C   UNL     1      15.399  13.183   1.890  0.00  0.00    +0.000 A 
ATOM     31  C   UNL     1      15.894  13.858   0.790  0.00  0.00    +0.000 A 
ATOM     32  C   UNL     1      15.832  13.278  -0.463  0.00  0.00    +0.000 A 
ATOM     33  C   UNL     1      15.274  12.023  -0.617  0.00  0.00    +0.006 A 
ENDBRANCH  27  28
BRANCH  27  34
ATOM     34  O   UNL     1      14.472   9.180   1.461  0.00  0.00    -0.386 OA
ATOM     35  H   UNL     1      15.519   8.975   1.728  0.00  0.00    +0.210 HD
ENDBRANCH  27  34
ENDBRANCH  26  27
ENDBRANCH  24  26
ENDBRANCH   3  22
TORSDOF 9
