REMARK  Name = ZINC28361931
REMARK  8 active torsions:
REMARK  status: ('A' for Active; 'I' for Inactive)
REMARK    1  A    between atoms: C_1  and  C_2
REMARK    2  A    between atoms: C_2  and  C_4
REMARK    3  A    between atoms: C_2  and  N_15
REMARK    4  A    between atoms: N_6  and  C_7
REMARK    5  A    between atoms: N_15  and  C_16
REMARK    6  A    between atoms: C_19  and  O_22
REMARK    7  A    between atoms: O_22  and  C_23
REMARK    8  A    between atoms: C_23  and  C_24
REMARK                            x       y       z     vdW  Elec       q    Type
REMARK                         _______ _______ _______ _____ _____    ______ ____
ROOT
ATOM      1  N   UNL     1      -0.698   1.556   1.214  0.00  0.00    -0.333 N 
ATOM      2  H   UNL     1      -0.366   2.481   1.708  0.00  0.00    +0.147 HD
ENDROOT
BRANCH   1   3
ATOM      3  C   UNL     1      -1.776   0.833   1.736  0.00  0.00    +0.028 A 
ATOM      4  C   UNL     1      -2.200  -0.332   1.110  0.00  0.00    +0.026 A 
ATOM      5  C   UNL     1      -3.261  -1.048   1.629  0.00  0.00    +0.047 A 
ATOM      6  C   UNL     1      -3.911  -0.598   2.768  0.00  0.00    +0.121 A 
ATOM      7  C   UNL     1      -3.493   0.569   3.391  0.00  0.00    +0.047 A 
ATOM      8  C   UNL     1      -2.428   1.283   2.877  0.00  0.00    +0.026 A 
BRANCH   6   9
ATOM      9  O   UNL     1      -4.959  -1.300   3.275  0.00  0.00    -0.483 OA
BRANCH   9  10
ATOM     10  C   UNL     1      -5.337  -2.492   2.583  0.00  0.00    +0.324 C 
BRANCH  10  11
ATOM     11  C   UNL     1      -6.507  -3.131   3.285  0.00  0.00    +0.248 C 
ATOM     12  O   UNL     1      -6.973  -2.616   4.279  0.00  0.00    -0.272 OA
ATOM     13  N   UNL     1      -7.037  -4.275   2.807  0.00  0.00    -0.327 N 
ATOM     14  H   UNL     1      -7.891  -4.741   3.319  0.00  0.00    +0.145 HD
ATOM     15  H   UNL     1      -6.615  -4.742   1.905  0.00  0.00    +0.145 HD
ENDBRANCH  10  11
ENDBRANCH   9  10
ENDBRANCH   6   9
ENDBRANCH   1   3
BRANCH   1  17
ATOM     16  C   UNL     1      -0.754   1.577  -1.230  0.00  0.00    +0.038 C 
ATOM     17  C   UNL     1      -0.011   1.080   0.011  0.00  0.00    +0.154 C 
BRANCH  17  18
ATOM     18  C   UNL     1       1.400   1.609  -0.004  0.00  0.00    +0.237 C 
ATOM     19  O   UNL     1       1.794   2.313   0.902  0.00  0.00    -0.273 OA
ATOM     20  N   UNL     1       2.226   1.299  -1.023  0.00  0.00    -0.284 N 
ATOM     21  H   UNL     1       1.895   0.599  -1.805  0.00  0.00    +0.155 HD
BRANCH  20  22
ATOM     22  C   UNL     1       3.503   1.867  -1.087  0.00  0.00    +0.035 A 
ATOM     23  C   UNL     1       4.064   2.180  -2.318  0.00  0.00    +0.025 A 
ATOM     24  C   UNL     1       5.322   2.747  -2.379  0.00  0.00    +0.023 A 
ATOM     25  C   UNL     1       6.030   2.990  -1.215  0.00  0.00    +0.059 A 
ATOM     26  C   UNL     1       5.476   2.674   0.014  0.00  0.00    +0.061 A 
ATOM     27  C   UNL     1       4.214   2.112   0.080  0.00  0.00    +0.044 A 
ATOM     28 CL   UNL     1       6.366   2.982   1.472  0.00  0.00    -0.082 Cl
ATOM     29 CL   UNL     1       7.614   3.695  -1.296  0.00  0.00    -0.082 Cl
ENDBRANCH  20  22
ENDBRANCH  17  18
ENDBRANCH   1  17
TORSDOF 7
