REMARK  Name = ZINC62952811
REMARK  3 active torsions:
REMARK  status: ('A' for Active; 'I' for Inactive)
REMARK    1  A    between atoms: C_4  and  S_8
REMARK    2  A    between atoms: C_6  and  N_7
REMARK    3  A    between atoms: S_8  and  N_11
REMARK                            x       y       z     vdW  Elec       q    Type
REMARK                         _______ _______ _______ _____ _____    ______ ____
ROOT
ATOM      1  S   UNL     1       3.940  -0.825  -0.041  0.00  0.00    +0.062 S 
ATOM      2  O   UNL     1       4.740  -0.245   0.980  0.00  0.00    -0.153 OA
ATOM      3  O   UNL     1       3.633  -2.212  -0.073  0.00  0.00    -0.153 OA
ENDROOT
BRANCH   1   4
ATOM      4  N   UNL     1       4.679  -0.470  -1.480  0.00  0.00    -0.177 NA
ATOM      5  C   UNL     1       4.446  -1.305  -2.666  0.00  0.00    +0.110 C 
ATOM      6  C   UNL     1       5.799  -1.766  -3.219  0.00  0.00    +0.024 C 
ATOM      7  C   UNL     1       6.688  -0.548  -3.460  0.00  0.00    -0.027 C 
ATOM      8  C   UNL     1       8.032  -0.990  -4.059  0.00  0.00    +0.007 C 
ATOM      9  C   UNL     1       8.141  -0.309  -5.440  0.00  0.00    +0.001 C 
ATOM     10  C   UNL     1       7.210   0.924  -5.331  0.00  0.00    +0.001 C 
ATOM     11  C   UNL     1       6.025   0.385  -4.490  0.00  0.00    +0.007 C 
ATOM     12  C   UNL     1       6.923   0.208  -2.154  0.00  0.00    +0.024 C 
ATOM     13  C   UNL     1       5.574   0.688  -1.595  0.00  0.00    +0.110 C 
ENDBRANCH   1   4
BRANCH   1  17
ATOM     14  C   UNL     1      -0.017   1.385   0.010  0.00  0.00    +0.024 A 
ATOM     15  C   UNL     1       1.171   2.090   0.002  0.00  0.00    +0.024 A 
ATOM     16  C   UNL     1       2.378   1.415  -0.013  0.00  0.00    +0.067 A 
ATOM     17  C   UNL     1       2.400   0.031  -0.021  0.00  0.00    +0.125 A 
ATOM     18  C   UNL     1       1.216  -0.680  -0.014  0.00  0.00    +0.052 A 
ATOM     19  C   UNL     1       0.002  -0.004   0.002  0.00  0.00    +0.026 A 
ATOM     20 CL   UNL     1       3.869   2.305  -0.022  0.00  0.00    -0.082 Cl
BRANCH  19  21
ATOM     21  N   UNL     1      -1.198  -0.721   0.010  0.00  0.00    -0.358 N 
ATOM     22  H   UNL     1      -2.045  -0.248   0.021  0.00  0.00    +0.142 HD
ATOM     23  H   UNL     1      -1.183  -1.690   0.005  0.00  0.00    +0.142 HD
ENDBRANCH  19  21
ENDBRANCH   1  17
TORSDOF 3
