REMARK  Name = ZINC17076572
REMARK  5 active torsions:
REMARK  status: ('A' for Active; 'I' for Inactive)
REMARK    1  A    between atoms: C_1  and  C_2
REMARK    2  A    between atoms: C_3  and  N_15
REMARK    3  A    between atoms: N_6  and  C_9
REMARK    4  A    between atoms: N_7  and  C_8
REMARK    5  A    between atoms: C_16  and  C_18
REMARK                            x       y       z     vdW  Elec       q    Type
REMARK                         _______ _______ _______ _____ _____    ______ ____
ROOT
ATOM      1  N   UNL     1       1.194   1.933   0.452  0.00  0.00    -0.276 N 
ATOM      2  C   UNL     1       0.091   1.709  -0.289  0.00  0.00    +0.254 C 
ATOM      3  O   UNL     1       0.121   0.899  -1.197  0.00  0.00    -0.270 OA
ATOM      4  H   UNL     1       1.192   2.723   1.217  0.00  0.00    +0.155 HD
ENDROOT
BRANCH   2   5
ATOM      5  C   UNL     1      -1.150   2.447  -0.003  0.00  0.00    +0.097 A 
ATOM      6  C   UNL     1      -1.200   3.365   1.028  0.00  0.00    +0.030 A 
ATOM      7  C   UNL     1      -2.459   4.075   1.262  0.00  0.00    +0.018 A 
ATOM      8  C   UNL     1      -2.559   5.020   2.292  0.00  0.00    +0.011 A 
ATOM      9  C   UNL     1      -3.741   5.671   2.503  0.00  0.00    +0.001 A 
ATOM     10  C   UNL     1      -4.844   5.403   1.705  0.00  0.00    +0.004 A 
ATOM     11  C   UNL     1      -4.766   4.476   0.687  0.00  0.00    +0.047 A 
ATOM     12  C   UNL     1      -3.574   3.801   0.452  0.00  0.00    +0.137 A 
ATOM     13  O   UNL     1      -3.497   2.894  -0.546  0.00  0.00    -0.439 OA
ATOM     14  C   UNL     1      -2.362   2.218  -0.807  0.00  0.00    +0.205 A 
ATOM     15  N   UNL     1      -2.336   1.350  -1.783  0.00  0.00    -0.369 N 
ATOM     16  H   UNL     1      -3.238   1.175  -2.387  0.00  0.00    +0.159 HD
ATOM     17  H   UNL     1      -1.411   0.795  -2.000  0.00  0.00    +0.159 HD
ENDBRANCH   2   5
BRANCH   1  20
ATOM     18  C   UNL     1       3.956   3.063  -0.261  0.00  0.00    +0.067 C 
ATOM     19  C   UNL     1       3.582   1.616  -0.069  0.00  0.00    +0.059 A 
ATOM     20  C   UNL     1       2.350   1.155   0.245  0.00  0.00    +0.121 A 
ATOM     21  C   UNL     1       2.444  -0.303   0.338  0.00  0.00    +0.293 A 
ATOM     22  O   UNL     1       1.539  -1.072   0.607  0.00  0.00    -0.264 OA
ATOM     23  N   UNL     1       3.724  -0.632   0.065  0.00  0.00    -0.216 N 
ATOM     24  N   UNL     1       4.433   0.549  -0.184  0.00  0.00    -0.282 N 
ATOM     25  C   UNL     1       5.857   0.630  -0.515  0.00  0.00    +0.171 C 
BRANCH  23  26
ATOM     26  C   UNL     1       4.251  -1.927   0.042  0.00  0.00    +0.067 A 
ATOM     27  C   UNL     1       5.035  -2.340  -1.028  0.00  0.00    +0.028 A 
ATOM     28  C   UNL     1       5.559  -3.618  -1.045  0.00  0.00    +0.002 A 
ATOM     29  C   UNL     1       5.294  -4.490  -0.005  0.00  0.00    +0.000 A 
ATOM     30  C   UNL     1       4.509  -4.083   1.058  0.00  0.00    +0.002 A 
ATOM     31  C   UNL     1       3.987  -2.805   1.085  0.00  0.00    +0.028 A 
ENDBRANCH  23  26
ENDBRANCH   1  20
TORSDOF 3
