REMARK  Name = ZINC50635934
REMARK  5 active torsions:
REMARK  status: ('A' for Active; 'I' for Inactive)
REMARK    1  A    between atoms: C_1  and  C_2
REMARK    2  A    between atoms: N_5  and  S_8
REMARK    3  A    between atoms: S_8  and  C_11
REMARK    4  A    between atoms: C_14  and  N_18
REMARK    5  A    between atoms: C_16  and  N_17
REMARK                            x       y       z     vdW  Elec       q    Type
REMARK                         _______ _______ _______ _____ _____    ______ ____
ROOT
ATOM      1  C   UNL     1      -0.919  -5.241   1.391  0.00  0.00    +0.126 A 
ATOM      2  C   UNL     1      -2.001  -5.977   0.947  0.00  0.00    +0.032 A 
ATOM      3  C   UNL     1      -1.811  -7.248   0.438  0.00  0.00    +0.035 A 
ATOM      4  C   UNL     1      -0.539  -7.787   0.371  0.00  0.00    +0.128 A 
ATOM      5  C   UNL     1       0.546  -7.057   0.813  0.00  0.00    +0.057 A 
ATOM      6  C   UNL     1       0.360  -5.777   1.320  0.00  0.00    +0.053 A 
ENDROOT
BRANCH   1   7
ATOM      7  S   UNL     1      -1.162  -3.620   2.040  0.00  0.00    +0.063 S 
ATOM      8  O   UNL     1      -0.435  -3.558   3.259  0.00  0.00    -0.153 OA
ATOM      9  O   UNL     1      -2.557  -3.360   1.971  0.00  0.00    -0.153 OA
BRANCH   7  14
ATOM     10  C   UNL     1       0.323   1.466  -0.152  0.00  0.00    +0.007 C 
ATOM     11  C   UNL     1       0.314  -0.063  -0.100  0.00  0.00    -0.012 C 
ATOM     12  C   UNL     1      -1.124  -0.569  -0.230  0.00  0.00    +0.020 C 
ATOM     13  C   UNL     1      -1.126  -2.101  -0.212  0.00  0.00    +0.110 C 
ATOM     14  N   UNL     1      -0.431  -2.561   0.998  0.00  0.00    -0.177 NA
ATOM     15  C   UNL     1       0.925  -2.063   1.266  0.00  0.00    +0.110 C 
ATOM     16  C   UNL     1       0.904  -0.532   1.232  0.00  0.00    +0.020 C 
ENDBRANCH   7  14
ENDBRANCH   1   7
BRANCH   6  17
ATOM     17  N   UNL     1       1.456  -5.033   1.763  0.00  0.00    -0.356 N 
ATOM     18  H   UNL     1       1.317  -4.189   2.219  0.00  0.00    +0.142 HD
ATOM     19  H   UNL     1       2.357  -5.361   1.614  0.00  0.00    +0.142 HD
ENDBRANCH   6  17
BRANCH   4  20
ATOM     20  N   UNL     1      -0.342  -9.149  -0.174  0.00  0.00    +0.056 N 
ATOM     21  O   UNL     1      -1.291  -9.789  -0.561  0.00  0.00    -0.126 OA
ATOM     22  O   UNL     1       0.770  -9.621  -0.233  0.00  0.00    -0.126 OA
ENDBRANCH   4  20
TORSDOF 4
