REMARK  Name = ZINC48767798
REMARK  8 active torsions:
REMARK  status: ('A' for Active; 'I' for Inactive)
REMARK    1  A    between atoms: C_1  and  O_2
REMARK    2  A    between atoms: O_2  and  C_3
REMARK    3  A    between atoms: C_6  and  N_10
REMARK    4  A    between atoms: C_11  and  C_13
REMARK    5  A    between atoms: N_15  and  C_16
REMARK    6  A    between atoms: C_16  and  C_17
REMARK    7  A    between atoms: C_17  and  C_19
REMARK    8  A    between atoms: C_17  and  N_24
REMARK                            x       y       z     vdW  Elec       q    Type
REMARK                         _______ _______ _______ _____ _____    ______ ____
ROOT
ATOM      1  C   UNL     1      -6.294  -4.614  -0.717  0.00  0.00    +0.299 C 
ATOM      2  O   UNL     1      -7.322  -3.976  -0.807  0.00  0.00    -0.265 OA
ATOM      3  N   UNL     1      -6.340  -5.956  -0.604  0.00  0.00    -0.309 N 
ATOM      4  H   UNL     1      -5.518  -6.465  -0.532  0.00  0.00    +0.149 HD
ENDROOT
BRANCH   1   6
ATOM      5  N   UNL     1      -4.930  -2.569  -0.843  0.00  0.00    -0.278 N 
ATOM      6  C   UNL     1      -4.976  -3.911  -0.731  0.00  0.00    +0.303 C 
ATOM      7  O   UNL     1      -3.947  -4.548  -0.641  0.00  0.00    -0.265 OA
ATOM      8  H   UNL     1      -5.751  -2.053  -0.844  0.00  0.00    +0.155 HD
BRANCH   5  12
ATOM      9  C   UNL     1      -1.255  -0.632  -1.186  0.00  0.00    +0.138 A 
ATOM     10  C   UNL     1      -2.304  -0.015  -0.520  0.00  0.00    +0.049 A 
ATOM     11  C   UNL     1      -3.522  -0.656  -0.407  0.00  0.00    +0.027 A 
ATOM     12  C   UNL     1      -3.696  -1.919  -0.959  0.00  0.00    +0.035 A 
ATOM     13  C   UNL     1      -2.646  -2.536  -1.625  0.00  0.00    +0.047 A 
ATOM     14  C   UNL     1      -1.429  -1.891  -1.743  0.00  0.00    +0.084 A 
ATOM     15 CL   UNL     1      -0.117  -2.659  -2.581  0.00  0.00    -0.080 Cl
BRANCH   9  17
ATOM     16  C   UNL     1       0.053   1.294  -0.700  0.00  0.00    +0.277 C 
ATOM     17  O   UNL     1      -0.056   0.001  -1.297  0.00  0.00    -0.494 OA
ENDBRANCH   9  17
ENDBRANCH   5  12
ENDBRANCH   1   6
BRANCH   3  18
ATOM     18  C   UNL     1      -7.633  -6.645  -0.590  0.00  0.00    +0.097 C 
BRANCH  18  19
ATOM     19  C   UNL     1      -7.411  -8.141  -0.354  0.00  0.00    +0.016 C 
BRANCH  19  20
ATOM     20  N   UNL     1      -8.710  -8.812  -0.214  0.00  0.00    +0.387 N 
ATOM     21  C   UNL     1      -8.512 -10.267   0.016  0.00  0.00    -0.078 C 
ATOM     22  C   UNL     1      -9.840 -10.703   0.684  0.00  0.00    -0.020 C 
ATOM     23  C   UNL     1     -10.185  -9.498   1.589  0.00  0.00    -0.020 C 
ATOM     24  C   UNL     1      -9.419  -8.308   0.982  0.00  0.00    -0.078 C 
ATOM     25  H   UNL     1      -9.270  -8.663  -1.040  0.00  0.00    -0.081 HD
ENDBRANCH  19  20
BRANCH  19  26
ATOM     26  C   UNL     1      -6.665  -8.729  -1.524  0.00  0.00    +0.093 A 
ATOM     27  C   UNL     1      -5.347  -8.995  -1.563  0.00  0.00    +0.043 A 
ATOM     28  C   UNL     1      -5.075  -9.534  -2.841  0.00  0.00    +0.041 A 
ATOM     29  C   UNL     1      -6.243  -9.564  -3.507  0.00  0.00    +0.195 A 
ATOM     30  O   UNL     1      -7.204  -9.081  -2.703  0.00  0.00    -0.469 OA
ENDBRANCH  19  26
ENDBRANCH  18  19
ENDBRANCH   3  18
TORSDOF 7
