REMARK  Name = ZINC44255018
REMARK  5 active torsions:
REMARK  status: ('A' for Active; 'I' for Inactive)
REMARK    1  A    between atoms: C_3  and  C_13
REMARK    2  A    between atoms: N_4  and  C_6
REMARK    3  A    between atoms: C_13  and  C_15
REMARK    4  A    between atoms: C_13  and  N_19
REMARK    5  A    between atoms: C_15  and  C_16
REMARK                            x       y       z     vdW  Elec       q    Type
REMARK                         _______ _______ _______ _____ _____    ______ ____
ROOT
ATOM      1  C   UNL     1      -0.016   1.344   0.009  0.00  0.00    +0.020 A 
ATOM      2  C   UNL     1       1.322   1.786  -0.001  0.00  0.00    +0.021 A 
ATOM      3  C   UNL     1       2.109   0.691  -0.014  0.00  0.00    +0.010 A 
ATOM      4  N   UNL     1       1.305  -0.413  -0.013  0.00  0.00    -0.322 N 
ATOM      5  C   UNL     1       0.002  -0.004   0.002  0.00  0.00    +0.091 A 
ENDROOT
BRANCH   4   6
ATOM      6  C   UNL     1       1.744  -1.744  -0.025  0.00  0.00    +0.046 A 
ATOM      7  C   UNL     1       2.690  -2.156  -0.953  0.00  0.00    +0.027 A 
ATOM      8  C   UNL     1       3.121  -3.469  -0.963  0.00  0.00    +0.016 A 
ATOM      9  C   UNL     1       2.610  -4.372  -0.049  0.00  0.00    +0.014 A 
ATOM     10  C   UNL     1       1.667  -3.965   0.878  0.00  0.00    +0.016 A 
ATOM     11  C   UNL     1       1.237  -2.652   0.896  0.00  0.00    +0.027 A 
ATOM     12  I   UNL     1       3.266  -6.362  -0.067  0.00  0.00    -0.044 I 
ENDBRANCH   4   6
BRANCH   3  13
ATOM     13  C   UNL     1       3.616   0.686  -0.029  0.00  0.00    -0.018 C 
BRANCH  13  14
ATOM     14  N   UNL     1       4.102   1.823  -0.822  0.00  0.00    +0.384 N 
ATOM     15  H   UNL     1       3.772   2.684  -0.412  0.00  0.00    -0.089 HD
ATOM     16  H   UNL     1       5.111   1.820  -0.832  0.00  0.00    -0.089 HD
ATOM     17  H   UNL     1       3.756   1.747  -1.767  0.00  0.00    -0.089 HD
ENDBRANCH  13  14
BRANCH  13  18
ATOM     18  C   UNL     1       4.141   0.802   1.403  0.00  0.00    +0.085 C 
BRANCH  18  19
ATOM     19  C   UNL     1       5.642   0.674   1.400  0.00  0.00    +0.209 C 
ATOM     20  O   UNL     1       6.235   0.506   0.355  0.00  0.00    -0.276 OA
ATOM     21  N   UNL     1       6.327   0.746   2.559  0.00  0.00    -0.329 N 
ATOM     22  H   UNL     1       5.853   0.879   3.395  0.00  0.00    +0.145 HD
ATOM     23  H   UNL     1       7.293   0.663   2.557  0.00  0.00    +0.145 HD
ENDBRANCH  18  19
ENDBRANCH  13  18
ENDBRANCH   3  13
TORSDOF 5
