REMARK  Name = ZINC39581501
REMARK  8 active torsions:
REMARK  status: ('A' for Active; 'I' for Inactive)
REMARK    1  A    between atoms: C_1  and  C_2
REMARK    2  A    between atoms: C_2  and  O_3
REMARK    3  A    between atoms: O_3  and  C_4
REMARK    4  A    between atoms: C_7  and  C_11
REMARK    5  A    between atoms: C_8  and  O_10
REMARK    6  A    between atoms: C_13  and  O_18
REMARK    7  A    between atoms: C_14  and  C_17
REMARK    8  A    between atoms: O_18  and  C_19
REMARK                            x       y       z     vdW  Elec       q    Type
REMARK                         _______ _______ _______ _____ _____    ______ ____
ROOT
ATOM      1  C   UNL     1       1.184  -5.624  -1.972  0.00  0.00    +0.200 C 
ATOM      2  C   UNL     1       2.354  -6.291  -1.270  0.00  0.00    +0.156 C 
ATOM      3  C   UNL     1       1.765  -7.147  -0.410  0.00  0.00    +0.098 C 
ATOM      4  N   UNL     1       0.432  -7.074  -0.509  0.00  0.00    -0.179 NA
ATOM      5  N   UNL     1       0.014  -6.264  -1.345  0.00  0.00    -0.294 N 
ATOM      6  C   UNL     1       2.505  -8.059   0.533  0.00  0.00    +0.071 C 
ATOM      7  H   UNL     1      -0.915  -6.081  -1.552  0.00  0.00    +0.184 HD
ENDROOT
BRANCH   1  11
ATOM      8  C   UNL     1       1.180  -1.411  -1.235  0.00  0.00    +0.124 A 
ATOM      9  C   UNL     1       0.458  -2.264  -0.412  0.00  0.00    +0.046 A 
ATOM     10  C   UNL     1       0.460  -3.624  -0.653  0.00  0.00    +0.013 A 
ATOM     11  C   UNL     1       1.183  -4.139  -1.713  0.00  0.00    +0.025 A 
ATOM     12  C   UNL     1       1.907  -3.291  -2.538  0.00  0.00    +0.126 A 
ATOM     13  C   UNL     1       1.901  -1.925  -2.302  0.00  0.00    +0.091 A 
BRANCH  12  14
ATOM     14  O   UNL     1       2.617  -3.798  -3.580  0.00  0.00    -0.506 OA
ATOM     15  H   UNL     1       2.117  -3.854  -4.406  0.00  0.00    +0.292 HD
ENDBRANCH  12  14
BRANCH   8  16
ATOM     16  O   UNL     1       1.177  -0.073  -0.998  0.00  0.00    -0.492 OA
BRANCH  16  18
ATOM     17  C   UNL     1       0.530   1.908   0.225  0.00  0.00    +0.048 C 
ATOM     18  C   UNL     1       0.413   0.387   0.119  0.00  0.00    +0.225 C 
ENDBRANCH  16  18
ENDBRANCH   8  16
ENDBRANCH   1  11
BRANCH   2  19
ATOM     19  O   UNL     1       3.674  -6.079  -1.462  0.00  0.00    -0.456 OA
BRANCH  19  20
ATOM     20  C   UNL     1       4.212  -6.442  -2.656  0.00  0.00    +0.128 A 
ATOM     21  C   UNL     1       3.436  -7.111  -3.592  0.00  0.00    +0.047 A 
ATOM     22  C   UNL     1       3.985  -7.479  -4.805  0.00  0.00    +0.023 A 
ATOM     23  C   UNL     1       5.306  -7.181  -5.087  0.00  0.00    +0.041 A 
ATOM     24  C   UNL     1       6.081  -6.514  -4.155  0.00  0.00    +0.023 A 
ATOM     25  C   UNL     1       5.535  -6.139  -2.943  0.00  0.00    +0.047 A 
ATOM     26 CL   UNL     1       5.993  -7.645  -6.612  0.00  0.00    -0.084 Cl
ENDBRANCH  19  20
ENDBRANCH   2  19
TORSDOF 6
