REMARK  Name = ZINC09721393
REMARK  3 active torsions:
REMARK  status: ('A' for Active; 'I' for Inactive)
REMARK    1  A    between atoms: C_1  and  C_2
REMARK    2  A    between atoms: C_6  and  C_7
REMARK    3  A    between atoms: C_17  and  N_21
REMARK                            x       y       z     vdW  Elec       q    Type
REMARK                         _______ _______ _______ _____ _____    ______ ____
ROOT
ATOM      1  C   UNL     1      -1.037  -0.074  -1.602  0.00  0.00    +0.282 C 
ATOM      2  O   UNL     1      -2.155   0.406  -1.586  0.00  0.00    -0.267 OA
ATOM      3  N   UNL     1      -0.864  -1.386  -1.349  0.00  0.00    -0.290 N 
ATOM      4  C   UNL     1      -2.010  -2.280  -1.123  0.00  0.00    +0.113 C 
ATOM      5  C   UNL     1      -2.073  -3.321  -2.241  0.00  0.00    +0.056 C 
ATOM      6  C   UNL     1      -0.691  -3.937  -2.437  0.00  0.00    -0.022 A 
ATOM      7  C   UNL     1       0.419  -3.303  -1.998  0.00  0.00    +0.013 A 
ATOM      8  S   UNL     1       1.773  -4.363  -2.436  0.00  0.00    -0.072 S 
ATOM      9  C   UNL     1       0.855  -5.657  -3.205  0.00  0.00    +0.114 A 
ATOM     10  C   UNL     1      -0.489  -5.218  -3.095  0.00  0.00    +0.051 A 
ATOM     11  C   UNL     1      -1.491  -6.072  -3.638  0.00  0.00    +0.128 A 
ATOM     12  N   UNL     1      -1.053  -7.200  -4.195  0.00  0.00    -0.220 NA
ATOM     13  C   UNL     1       0.218  -7.543  -4.261  0.00  0.00    +0.224 A 
ATOM     14  N   UNL     1       1.201  -6.794  -3.775  0.00  0.00    -0.228 NA
ATOM     15  C   UNL     1       0.484  -1.985  -1.292  0.00  0.00    +0.150 C 
ENDROOT
BRANCH   1  21
ATOM     16  C   UNL     1      -1.158   2.910  -2.528  0.00  0.00    +0.048 C 
ATOM     17  C   UNL     1       0.079   2.080  -2.299  0.00  0.00    -0.000 A 
ATOM     18  C   UNL     1       1.409   2.495  -2.463  0.00  0.00    +0.045 A 
ATOM     19  C   UNL     1       2.196   1.440  -2.158  0.00  0.00    +0.196 A 
ATOM     20  O   UNL     1       1.416   0.406  -1.816  0.00  0.00    -0.458 OA
ATOM     21  C   UNL     1       0.121   0.776  -1.896  0.00  0.00    +0.192 A 
ENDBRANCH   1  21
BRANCH  11  22
ATOM     22  N   UNL     1      -2.836  -5.751  -3.590  0.00  0.00    -0.343 N 
ATOM     23  H   UNL     1      -3.110  -4.834  -3.431  0.00  0.00    +0.144 HD
ATOM     24  H   UNL     1      -3.505  -6.442  -3.715  0.00  0.00    +0.144 HD
ENDBRANCH  11  22
TORSDOF 2
