REMARK  Name = ZINC63162074
REMARK  6 active torsions:
REMARK  status: ('A' for Active; 'I' for Inactive)
REMARK    1  A    between atoms: C_1  and  N_2
REMARK    2  A    between atoms: N_2  and  C_3
REMARK    3  A    between atoms: C_7  and  C_10
REMARK    4  A    between atoms: C_10  and  N_11
REMARK    5  A    between atoms: N_14  and  C_15
REMARK    6  A    between atoms: C_17  and  C_23
REMARK                            x       y       z     vdW  Elec       q    Type
REMARK                         _______ _______ _______ _____ _____    ______ ____
ROOT
ATOM      1  N   UNL     1      -1.379  -3.096  -5.287  0.00  0.00    -0.295 N 
ATOM      2  C   UNL     1      -1.643  -3.705  -6.460  0.00  0.00    +0.304 C 
ATOM      3  O   UNL     1      -0.738  -4.199  -7.105  0.00  0.00    -0.252 OA
ATOM      4  N   UNL     1      -2.909  -3.766  -6.918  0.00  0.00    -0.265 N 
ATOM      5  H   UNL     1      -2.101  -2.702  -4.772  0.00  0.00    +0.151 HD
ATOM      6  H   UNL     1      -3.639  -3.438  -6.370  0.00  0.00    +0.157 HD
ENDROOT
BRANCH   4   7
ATOM      7  C   UNL     1      -3.170  -4.304  -8.187  0.00  0.00    +0.100 A 
ATOM      8  C   UNL     1      -4.006  -5.377  -8.324  0.00  0.00    +0.042 A 
ATOM      9  C   UNL     1      -4.251  -5.895  -9.604  0.00  0.00    +0.073 A 
ATOM     10  C   UNL     1      -3.663  -5.334 -10.685  0.00  0.00    +0.098 A 
ATOM     11  N   UNL     1      -2.831  -4.268 -10.550  0.00  0.00    -0.327 N 
ATOM     12  H   UNL     1      -2.418  -3.879 -11.338  0.00  0.00    +0.168 HD
ATOM     13  C   UNL     1      -2.577  -3.740  -9.337  0.00  0.00    +0.270 A 
ATOM     14  O   UNL     1      -1.832  -2.779  -9.232  0.00  0.00    -0.266 OA
BRANCH   9  15
ATOM     15  C   UNL     1      -5.170  -7.078  -9.775  0.00  0.00    +0.419 C 
ATOM     16  F   UNL     1      -5.255  -7.409 -11.132  0.00  0.00    -0.166 F 
ATOM     17  F   UNL     1      -4.663  -8.168  -9.060  0.00  0.00    -0.166 F 
ATOM     18  F   UNL     1      -6.442  -6.753  -9.293  0.00  0.00    -0.166 F 
ENDBRANCH   9  15
ENDBRANCH   4   7
BRANCH   1  19
ATOM     19  C   UNL     1      -0.003  -3.029  -4.789  0.00  0.00    +0.142 C 
BRANCH  19  26
ATOM     20  C   UNL     1       0.273   1.256   0.034  0.00  0.00    +0.130 C 
ATOM     21  N   UNL     1       0.098  -0.198   0.063  0.00  0.00    -0.323 N 
ATOM     22  C   UNL     1      -0.047  -0.892   1.345  0.00  0.00    +0.130 C 
ATOM     23  C   UNL     1       0.070  -0.919  -1.125  0.00  0.00    +0.098 A 
ATOM     24  C   UNL     1      -0.103  -2.299  -1.090  0.00  0.00    +0.042 A 
ATOM     25  C   UNL     1      -0.129  -3.004  -2.279  0.00  0.00    +0.010 A 
ATOM     26  C   UNL     1       0.019  -2.303  -3.469  0.00  0.00    -0.014 A 
ATOM     27  C   UNL     1       0.186  -0.933  -3.430  0.00  0.00    +0.089 A 
ATOM     28  N   UNL     1       0.202  -0.285  -2.280  0.00  0.00    -0.349 N 
ATOM     29  H   UNL     1       0.317   0.678  -2.281  0.00  0.00    +0.167 HD
ENDBRANCH  19  26
ENDBRANCH   1  19
TORSDOF 4
