REMARK  Name = ZINC61718685
REMARK  6 active torsions:
REMARK  status: ('A' for Active; 'I' for Inactive)
REMARK    1  A    between atoms: C_1  and  C_2
REMARK    2  A    between atoms: C_2  and  C_3
REMARK    3  A    between atoms: C_2  and  O_4
REMARK    4  A    between atoms: O_4  and  C_5
REMARK    5  A    between atoms: C_9  and  C_11
REMARK    6  A    between atoms: N_22  and  C_23
REMARK                            x       y       z     vdW  Elec       q    Type
REMARK                         _______ _______ _______ _____ _____    ______ ____
ROOT
ATOM      1  C   UNL     1       0.543  -1.450   5.940  0.00  0.00    +0.068 C 
ATOM      2  C   UNL     1       0.323  -0.347   6.986  0.00  0.00    +0.109 C 
ATOM      3  C   UNL     1       0.584  -0.870   8.370  0.00  0.00    +0.219 C 
ATOM      4  O   UNL     1       1.124  -0.137   9.172  0.00  0.00    -0.275 OA
ATOM      5  N   UNL     1       0.246  -2.111   8.764  0.00  0.00    -0.270 N 
ATOM      6  C   UNL     1      -0.189  -3.042   7.786  0.00  0.00    +0.138 A 
ATOM      7  C   UNL     1      -0.043  -2.713   6.467  0.00  0.00    +0.041 A 
ATOM      8  S   UNL     1      -0.707  -4.128   5.642  0.00  0.00    -0.055 S 
ATOM      9  C   UNL     1      -1.088  -5.027   7.016  0.00  0.00    +0.160 A 
ATOM     10  N   UNL     1      -0.719  -4.239   8.008  0.00  0.00    -0.210 NA
ATOM     11  N   UNL     1      -1.655  -6.290   7.087  0.00  0.00    -0.326 N 
ATOM     12  C   UNL     1      -1.911  -6.906   8.392  0.00  0.00    +0.127 C 
ATOM     13  H   UNL     1       0.299  -2.365   9.699  0.00  0.00    +0.156 HD
ATOM     14  H   UNL     1      -1.883  -6.766   6.273  0.00  0.00    +0.148 HD
ENDROOT
BRANCH   1  19
ATOM     15  C   UNL     1      -0.031  -0.600   2.303  0.00  0.00    +0.121 A 
ATOM     16  C   UNL     1      -1.400  -0.376   2.286  0.00  0.00    +0.045 A 
ATOM     17  C   UNL     1      -2.133  -0.502   3.450  0.00  0.00    +0.004 A 
ATOM     18  C   UNL     1      -1.504  -0.850   4.631  0.00  0.00    +0.004 A 
ATOM     19  C   UNL     1      -0.140  -1.072   4.651  0.00  0.00    -0.035 A 
ATOM     20  C   UNL     1       0.597  -0.954   3.489  0.00  0.00    +0.050 A 
BRANCH  15  21
ATOM     21  O   UNL     1       0.693  -0.477   1.160  0.00  0.00    -0.489 OA
BRANCH  21  23
ATOM     22  C   UNL     1      -0.292   1.273  -0.184  0.00  0.00    +0.051 C 
ATOM     23  C   UNL     1      -0.034  -0.229  -0.045  0.00  0.00    +0.167 C 
ATOM     24  C   UNL     1       0.781  -0.720  -1.243  0.00  0.00    +0.051 C 
ENDBRANCH  21  23
ENDBRANCH  15  21
ENDBRANCH   1  19
TORSDOF 3
