REMARK  Name = ZINC05348751
REMARK  8 active torsions:
REMARK  status: ('A' for Active; 'I' for Inactive)
REMARK    1  A    between atoms: C_1  and  C_2
REMARK    2  A    between atoms: C_2  and  C_3
REMARK    3  A    between atoms: C_2  and  C_4
REMARK    4  A    between atoms: C_4  and  C_5
REMARK    5  A    between atoms: N_13  and  C_16
REMARK    6  A    between atoms: C_16  and  C_17
REMARK    7  A    between atoms: C_17  and  O_18
REMARK    8  A    between atoms: O_18  and  C_19
REMARK                            x       y       z     vdW  Elec       q    Type
REMARK                         _______ _______ _______ _____ _____    ______ ____
ROOT
ATOM      1  C   UNL     1      -2.135  -0.131  -1.286  0.00  0.00    -0.057 C 
ATOM      2  C   UNL     1      -3.574  -0.688  -1.313  0.00  0.00    +0.073 C 
ATOM      3  C   UNL     1      -3.471  -2.023  -2.101  0.00  0.00    +0.088 C 
ATOM      4  C   UNL     1      -4.295  -1.758  -3.342  0.00  0.00    +0.225 C 
ATOM      5  O   UNL     1      -4.489  -2.553  -4.236  0.00  0.00    -0.275 OA
ATOM      6  N   UNL     1      -4.775  -0.511  -3.299  0.00  0.00    -0.240 N 
ATOM      7  C   UNL     1      -4.434   0.190  -2.193  0.00  0.00    +0.224 C 
ATOM      8  O   UNL     1      -4.756   1.332  -1.943  0.00  0.00    -0.275 OA
ATOM      9  C   UNL     1      -1.987  -2.142  -2.466  0.00  0.00    +0.050 C 
ATOM     10  N   UNL     1      -1.459  -0.755  -2.454  0.00  0.00    +0.394 N 
ATOM     11  C   UNL     1      -1.797  -2.776  -3.815  0.00  0.00    -0.028 A 
ATOM     12  C   UNL     1      -2.215  -2.447  -5.085  0.00  0.00    +0.004 A 
ATOM     13  C   UNL     1      -1.869  -3.249  -6.157  0.00  0.00    +0.000 A 
ATOM     14  C   UNL     1      -1.103  -4.382  -5.950  0.00  0.00    +0.002 A 
ATOM     15  C   UNL     1      -0.684  -4.717  -4.680  0.00  0.00    +0.023 A 
ATOM     16  C   UNL     1      -1.027  -3.915  -3.594  0.00  0.00    +0.036 A 
ATOM     17  N   UNL     1      -0.728  -4.040  -2.236  0.00  0.00    -0.286 N 
ATOM     18  C   UNL     1      -1.255  -3.039  -1.505  0.00  0.00    +0.211 C 
ATOM     19  O   UNL     1      -1.158  -2.890  -0.305  0.00  0.00    -0.277 OA
ATOM     20  H   UNL     1      -1.701  -0.268  -3.304  0.00  0.00    -0.083 HD
ATOM     21  H   UNL     1      -0.202  -4.764  -1.862  0.00  0.00    +0.155 HD
ATOM     22  H   UNL     1      -0.459  -0.762  -2.321  0.00  0.00    -0.083 HD
ENDROOT
BRANCH   1  23
ATOM     23  C   UNL     1      -1.433  -0.534   0.013  0.00  0.00    -0.012 C 
BRANCH  23  25
ATOM     24  C   UNL     1       0.591   0.823  -0.537  0.00  0.00    +0.007 C 
ATOM     25  C   UNL     1       0.078  -0.583  -0.218  0.00  0.00    -0.019 C 
ATOM     26  C   UNL     1       0.771  -1.105   1.042  0.00  0.00    +0.007 C 
ENDBRANCH  23  25
ENDBRANCH   1  23
BRANCH   6  27
ATOM     27  C   UNL     1      -5.612   0.053  -4.361  0.00  0.00    +0.144 C 
BRANCH  27  28
ATOM     28  C   UNL     1      -7.084  -0.229  -4.055  0.00  0.00    +0.179 C 
BRANCH  28  29
ATOM     29  O   UNL     1      -7.465   0.465  -2.866  0.00  0.00    -0.381 OA
ATOM     30  C   UNL     1      -8.829   0.268  -2.489  0.00  0.00    +0.194 C 
ENDBRANCH  28  29
ENDBRANCH  27  28
ENDBRANCH   6  27
TORSDOF 5
