REMARK  Name = ZINC06134473
REMARK  13 active torsions:
REMARK  status: ('A' for Active; 'I' for Inactive)
REMARK    1  A    between atoms: C_1  and  C_2
REMARK    2  A    between atoms: C_2  and  C_3
REMARK    3  A    between atoms: C_2  and  C_4
REMARK    4  A    between atoms: C_4  and  C_5
REMARK    5  A    between atoms: C_5  and  N_6
REMARK    6  A    between atoms: C_7  and  C_9
REMARK    7  A    between atoms: C_9  and  C_11
REMARK    8  A    between atoms: C_9  and  N_18
REMARK    9  A    between atoms: N_18  and  C_19
REMARK   10  A    between atoms: C_19  and  C_20
REMARK   11  A    between atoms: C_25  and  C_27
REMARK   12  A    between atoms: C_28  and  N_35
REMARK   13  A    between atoms: C_29  and  C_32
REMARK                            x       y       z     vdW  Elec       q    Type
REMARK                         _______ _______ _______ _____ _____    ______ ____
ROOT
ATOM      1  N   UNL     1       0.414   2.449   0.991  0.00  0.00    -0.274 N 
ATOM      2  C   UNL     1       0.863   2.090   2.210  0.00  0.00    +0.258 C 
ATOM      3  O   UNL     1       1.392   1.006   2.369  0.00  0.00    -0.269 OA
ENDROOT
BRANCH   2   4
ATOM      4  C   UNL     1       0.714   3.006   3.343  0.00  0.00    +0.115 A 
ATOM      5  C   UNL     1       1.668   3.425   4.273  0.00  0.00    +0.076 A 
ATOM      6  C   UNL     1       1.143   4.312   5.212  0.00  0.00    +0.155 A 
ATOM      7  N   UNL     1      -0.127   4.643   5.146  0.00  0.00    -0.203 NA
ATOM      8  S   UNL     1      -0.733   3.875   3.909  0.00  0.00    +0.019 S 
BRANCH   6   9
ATOM      9  C   UNL     1       2.003   4.868   6.273  0.00  0.00    +0.262 C 
ATOM     10  O   UNL     1       3.178   4.558   6.329  0.00  0.00    -0.269 OA
ATOM     11  N   UNL     1       1.488   5.721   7.181  0.00  0.00    -0.324 N 
ATOM     12  H   UNL     1       0.551   5.968   7.136  0.00  0.00    +0.145 HD
ATOM     13  H   UNL     1       2.053   6.086   7.879  0.00  0.00    +0.145 HD
ENDBRANCH   6   9
BRANCH   5  14
ATOM     14  N   UNL     1       2.992   3.008   4.261  0.00  0.00    -0.355 N 
ATOM     15  H   UNL     1       3.300   2.390   3.579  0.00  0.00    +0.142 HD
ATOM     16  H   UNL     1       3.609   3.334   4.934  0.00  0.00    +0.142 HD
ENDBRANCH   5  14
ENDBRANCH   2   4
BRANCH   1  17
ATOM     17  C   UNL     1       0.396   1.471  -0.100  0.00  0.00    +0.193 C 
BRANCH  17  18
ATOM     18  C   UNL     1      -1.015   0.986  -0.316  0.00  0.00    -0.018 A 
ATOM     19  C   UNL     1      -2.060   1.891  -0.338  0.00  0.00    +0.009 A 
ATOM     20  C   UNL     1      -3.353   1.448  -0.542  0.00  0.00    +0.038 A 
ATOM     21  C   UNL     1      -3.603   0.097  -0.712  0.00  0.00    +0.123 A 
ATOM     22  C   UNL     1      -2.556  -0.809  -0.685  0.00  0.00    +0.038 A 
ATOM     23  C   UNL     1      -1.263  -0.363  -0.487  0.00  0.00    +0.009 A 
ATOM     24  F   UNL     1      -4.868  -0.338  -0.905  0.00  0.00    -0.205 F 
ENDBRANCH  17  18
BRANCH  17  26
ATOM     25  N   UNL     1       0.900   1.428  -2.521  0.00  0.00    -0.313 N 
ATOM     26  C   UNL     1       0.904   2.118  -1.363  0.00  0.00    +0.238 C 
ATOM     27  O   UNL     1       1.315   3.258  -1.337  0.00  0.00    -0.273 OA
ATOM     28  H   UNL     1       0.571   0.516  -2.542  0.00  0.00    +0.149 HD
BRANCH  25  29
ATOM     29  C   UNL     1       1.394   2.057  -3.749  0.00  0.00    +0.104 C 
BRANCH  29  30
ATOM     30  C   UNL     1       1.282   1.067  -4.910  0.00  0.00    +0.022 C 
BRANCH  30  32
ATOM     31  C   UNL     1       3.293   2.012  -6.051  0.00  0.00    +0.007 C 
ATOM     32  C   UNL     1       1.797   1.723  -6.192  0.00  0.00    -0.016 C 
ATOM     33  C   UNL     1       1.570   0.779  -7.375  0.00  0.00    +0.007 C 
ENDBRANCH  30  32
ENDBRANCH  29  30
ENDBRANCH  25  29
ENDBRANCH  17  26
ENDBRANCH   1  17
BRANCH   1  34
ATOM     34  C   UNL     1      -0.055   3.817   0.756  0.00  0.00    +0.183 C 
BRANCH  34  35
ATOM     35  C   UNL     1       1.056   4.788   1.060  0.00  0.00    +0.122 A 
ATOM     36  C   UNL     1       1.899   5.326   0.159  0.00  0.00    +0.046 A 
ATOM     37  C   UNL     1       2.775   6.175   0.874  0.00  0.00    +0.041 A 
ATOM     38  C   UNL     1       2.415   6.106   2.168  0.00  0.00    +0.195 A 
ATOM     39  O   UNL     1       1.370   5.269   2.274  0.00  0.00    -0.466 OA
ENDBRANCH  34  35
ENDBRANCH   1  34
TORSDOF 11
