REMARK  Name = ZINC40681396
REMARK  7 active torsions:
REMARK  status: ('A' for Active; 'I' for Inactive)
REMARK    1  A    between atoms: C_1  and  C_2
REMARK    2  A    between atoms: C_4  and  C_27
REMARK    3  A    between atoms: C_6  and  O_8
REMARK    4  A    between atoms: O_8  and  C_9
REMARK    5  A    between atoms: C_10  and  N_26
REMARK    6  A    between atoms: C_11  and  N_15
REMARK    7  A    between atoms: N_15  and  C_16
REMARK                            x       y       z     vdW  Elec       q    Type
REMARK                         _______ _______ _______ _____ _____    ______ ____
ROOT
ATOM      1  C   UNL     1       0.982  -2.074   3.523  0.00  0.00    +0.246 A 
ATOM      2  C   UNL     1       0.820  -2.727   4.745  0.00  0.00    +0.128 A 
ATOM      3  C   UNL     1       0.676  -1.947   5.895  0.00  0.00    +0.151 A 
ATOM      4  N   UNL     1       0.699  -0.622   5.782  0.00  0.00    -0.218 NA
ATOM      5  C   UNL     1       0.854  -0.045   4.608  0.00  0.00    +0.227 A 
ATOM      6  N   UNL     1       0.999  -0.744   3.500  0.00  0.00    -0.199 NA
ENDROOT
BRANCH   2   7
ATOM      7  N   UNL     1       0.801  -4.128   4.816  0.00  0.00    -0.351 N 
ATOM      8  H   UNL     1       0.902  -4.656   4.008  0.00  0.00    +0.143 HD
ATOM      9  H   UNL     1       0.688  -4.568   5.673  0.00  0.00    +0.143 HD
ENDBRANCH   2   7
BRANCH   3  10
ATOM     10  N   UNL     1       0.510  -2.547   7.138  0.00  0.00    -0.296 N 
ATOM     11  H   UNL     1       0.400  -3.509   7.202  0.00  0.00    +0.154 HD
BRANCH  10  12
ATOM     12  C   UNL     1       0.504  -1.767   8.294  0.00  0.00    +0.059 A 
ATOM     13  C   UNL     1       1.071  -0.511   8.287  0.00  0.00    +0.025 A 
ATOM     14  C   UNL     1       1.071   0.278   9.433  0.00  0.00    +0.003 A 
ATOM     15  C   UNL     1       0.512  -0.169  10.592  0.00  0.00    +0.010 A 
ATOM     16  C   UNL     1      -0.076  -1.444  10.640  0.00  0.00    +0.002 A 
ATOM     17  C   UNL     1      -0.089  -2.255   9.479  0.00  0.00    +0.092 A 
ATOM     18  N   UNL     1      -0.652  -3.466   9.520  0.00  0.00    -0.253 NA
ATOM     19  C   UNL     1      -1.203  -3.925  10.617  0.00  0.00    +0.111 A 
ATOM     20  C   UNL     1      -1.230  -3.176  11.792  0.00  0.00    +0.020 A 
ATOM     21  C   UNL     1      -0.661  -1.935  11.822  0.00  0.00    +0.011 A 
ENDBRANCH  10  12
ENDBRANCH   3  10
BRANCH   1  22
ATOM     22  O   UNL     1       1.126  -2.784   2.377  0.00  0.00    -0.436 OA
BRANCH  22  28
ATOM     23  C   UNL     1       4.320  -0.494  -0.518  0.00  0.00    +0.044 C 
ATOM     24  C   UNL     1       2.922  -0.968  -0.214  0.00  0.00    -0.047 A 
ATOM     25  C   UNL     1       1.896  -0.706  -1.103  0.00  0.00    +0.007 A 
ATOM     26  C   UNL     1       0.612  -1.140  -0.828  0.00  0.00    -0.047 A 
ATOM     27  C   UNL     1       0.352  -1.836   0.336  0.00  0.00    +0.049 A 
ATOM     28  C   UNL     1       1.380  -2.100   1.230  0.00  0.00    +0.131 A 
ATOM     29  C   UNL     1       2.668  -1.669   0.949  0.00  0.00    +0.049 A 
ATOM     30  C   UNL     1      -0.504  -0.853  -1.799  0.00  0.00    +0.044 C 
ENDBRANCH  22  28
ENDBRANCH   1  22
TORSDOF 5
