REMARK  Name = ZINC63561713
REMARK  4 active torsions:
REMARK  status: ('A' for Active; 'I' for Inactive)
REMARK    1  A    between atoms: C_1  and  O_2
REMARK    2  A    between atoms: O_2  and  C_3
REMARK    3  A    between atoms: C_3  and  C_5
REMARK    4  A    between atoms: C_18  and  C_21
REMARK                            x       y       z     vdW  Elec       q    Type
REMARK                         _______ _______ _______ _____ _____    ______ ____
ROOT
ATOM      1  C   UNL     1      -1.427  -2.153  -0.353  0.00  0.00    +0.168 C 
ATOM      2  C   UNL     1      -1.444  -2.693  -1.795  0.00  0.00    +0.063 C 
ATOM      3  C   UNL     1      -2.741  -2.223  -2.404  0.00  0.00    -0.035 C 
ATOM      4  C   UNL     1      -3.021  -1.613  -3.547  0.00  0.00    -0.001 A 
ATOM      5  C   UNL     1      -2.189  -1.286  -4.716  0.00  0.00    +0.010 A 
ATOM      6  C   UNL     1      -2.807  -0.618  -5.725  0.00  0.00    +0.001 A 
ATOM      7  C   UNL     1      -4.155  -0.247  -5.690  0.00  0.00    +0.002 A 
ATOM      8  C   UNL     1      -4.997  -0.516  -4.661  0.00  0.00    +0.026 A 
ATOM      9  C   UNL     1      -4.465  -1.224  -3.545  0.00  0.00    +0.043 A 
ATOM     10  N   UNL     1      -5.045  -1.633  -2.454  0.00  0.00    -0.376 N 
ATOM     11  C   UNL     1      -4.070  -2.390  -1.672  0.00  0.00    +0.128 C 
ATOM     12  C   UNL     1      -3.857  -1.818  -0.269  0.00  0.00    +0.111 C 
ATOM     13  N   UNL     1      -2.687  -2.479   0.322  0.00  0.00    -0.295 NA
ATOM     14  H   UNL     1      -2.822  -3.478   0.372  0.00  0.00    +0.123 HD
ATOM     15  H   UNL     1      -5.967  -1.464  -2.203  0.00  0.00    +0.160 HD
ENDROOT
BRANCH  12  16
ATOM     16  C   UNL     1      -3.614  -0.333  -0.358  0.00  0.00    -0.024 A 
ATOM     17  C   UNL     1      -3.297   0.243  -1.574  0.00  0.00    +0.009 A 
ATOM     18  C   UNL     1      -3.073   1.604  -1.660  0.00  0.00    +0.050 A 
ATOM     19  C   UNL     1      -3.165   2.395  -0.526  0.00  0.00    +0.166 A 
ATOM     20  C   UNL     1      -3.484   1.815   0.699  0.00  0.00    +0.167 A 
ATOM     21  C   UNL     1      -3.713   0.451   0.777  0.00  0.00    +0.054 A 
ATOM     22  O   UNL     1      -3.513   2.793   1.650  0.00  0.00    -0.453 OA
ATOM     23  C   UNL     1      -2.810   3.910   1.075  0.00  0.00    +0.466 C 
ATOM     24  O   UNL     1      -2.994   3.737  -0.343  0.00  0.00    -0.453 OA
ENDBRANCH  12  16
BRANCH   1  25
ATOM     25  C   UNL     1      -1.250  -0.657  -0.382  0.00  0.00    +0.324 C 
ATOM     26  O   UNL     1      -1.127  -0.084  -1.439  0.00  0.00    -0.249 OA
BRANCH  25  28
ATOM     27  C   UNL     1      -0.902   1.428   0.676  0.00  0.00    +0.280 C 
ATOM     28  O   UNL     1      -1.228   0.039   0.765  0.00  0.00    -0.467 OA
ENDBRANCH  25  28
ENDBRANCH   1  25
TORSDOF 3
