REMARK  Name = ZINC40748666
REMARK  8 active torsions:
REMARK  status: ('A' for Active; 'I' for Inactive)
REMARK    1  A    between atoms: C_1  and  C_2
REMARK    2  A    between atoms: C_2  and  C_3
REMARK    3  A    between atoms: C_3  and  N_4
REMARK    4  A    between atoms: N_4  and  C_5
REMARK    5  A    between atoms: N_4  and  C_15
REMARK    6  A    between atoms: C_15  and  C_17
REMARK    7  A    between atoms: C_15  and  C_18
REMARK    8  A    between atoms: N_23  and  C_24
REMARK                            x       y       z     vdW  Elec       q    Type
REMARK                         _______ _______ _______ _____ _____    ______ ____
ROOT
ATOM      1  N   UNL     1      -0.957  -1.463   0.336  0.00  0.00    -0.289 NA
ENDROOT
BRANCH   1   2
ATOM      2  C   UNL     1      -2.027  -1.716  -0.639  0.00  0.00    +0.054 C 
ATOM      3  C   UNL     1      -2.405  -0.403  -1.331  0.00  0.00    +0.003 C 
ATOM      4  C   UNL     1      -1.213   0.076  -2.175  0.00  0.00    -0.070 C 
ATOM      5  C   UNL     1       0.052   0.006  -1.288  0.00  0.00    -0.017 C 
ATOM      6  C   UNL     1       0.595  -1.424  -1.488  0.00  0.00    -0.017 C 
ATOM      7  C   UNL     1      -0.390  -2.088  -2.477  0.00  0.00    -0.070 C 
ATOM      8  C   UNL     1      -1.538  -2.727  -1.680  0.00  0.00    +0.003 C 
ATOM      9  N   UNL     1      -0.988  -0.939  -3.238  0.00  0.00    +0.383 N 
ATOM     10  H   UNL     1      -1.862  -1.200  -3.670  0.00  0.00    -0.085 HD
ATOM     11  H   UNL     1      -0.338  -0.593  -3.928  0.00  0.00    -0.085 HD
ENDBRANCH   1   2
BRANCH   1  12
ATOM     12  C   UNL     1      -0.794  -2.604   1.247  0.00  0.00    +0.141 C 
ATOM     13  C   UNL     1      -0.222  -3.795   0.475  0.00  0.00    +0.034 C 
BRANCH  12  14
ATOM     14  C   UNL     1       0.148  -2.228   2.361  0.00  0.00    +0.237 C 
ATOM     15  O   UNL     1       1.016  -1.404   2.167  0.00  0.00    -0.274 OA
ATOM     16  N   UNL     1       0.026  -2.807   3.571  0.00  0.00    -0.239 N 
ATOM     17  C   UNL     1       0.869  -2.470   4.567  0.00  0.00    +0.306 C 
ATOM     18  O   UNL     1       1.740  -1.644   4.374  0.00  0.00    -0.252 OA
ATOM     19  N   UNL     1       0.747  -3.049   5.778  0.00  0.00    -0.302 N 
ATOM     20  C   UNL     1       1.664  -2.683   6.861  0.00  0.00    +0.129 C 
ATOM     21  H   UNL     1      -0.668  -3.466   3.726  0.00  0.00    +0.159 HD
ATOM     22  H   UNL     1       0.053  -3.708   5.933  0.00  0.00    +0.150 HD
ENDBRANCH  12  14
ENDBRANCH   1  12
BRANCH   1  23
ATOM     23  C   UNL     1      -1.209  -0.224   1.085  0.00  0.00    +0.085 C 
BRANCH  23  25
ATOM     24  C   UNL     1      -2.792   0.937   2.630  0.00  0.00    +0.005 C 
ATOM     25  C   UNL     1      -2.486  -0.379   1.912  0.00  0.00    +0.012 C 
ENDBRANCH  23  25
ENDBRANCH   1  23
TORSDOF 5
