REMARK  Name = ZINC05454058
REMARK  7 active torsions:
REMARK  status: ('A' for Active; 'I' for Inactive)
REMARK    1  A    between atoms: C_1  and  C_2
REMARK    2  A    between atoms: C_9  and  N_32
REMARK    3  A    between atoms: C_10  and  C_28
REMARK    4  A    between atoms: N_18  and  C_21
REMARK    5  A    between atoms: C_21  and  C_22
REMARK    6  A    between atoms: C_28  and  O_30
REMARK    7  A    between atoms: O_30  and  C_31
REMARK                            x       y       z     vdW  Elec       q    Type
REMARK                         _______ _______ _______ _____ _____    ______ ____
ROOT
ATOM      1  C   UNL     1       0.529   1.371   0.152  0.00  0.00    +0.065 C 
ATOM      2  C   UNL     1       0.299  -0.117   0.078  0.00  0.00    +0.042 A 
ATOM      3  C   UNL     1       0.175  -0.844  -1.042  0.00  0.00    +0.060 A 
ATOM      4  C   UNL     1      -0.028  -2.193  -0.669  0.00  0.00    +0.245 A 
ATOM      5  N   UNL     1      -0.025  -2.255   0.630  0.00  0.00    -0.135 NA
ATOM      6  N   UNL     1       0.185  -0.960   1.130  0.00  0.00    -0.278 N 
ATOM      7  H   UNL     1       0.237  -0.713   2.067  0.00  0.00    +0.189 HD
ATOM      8  O   UNL     1      -0.187  -3.178  -1.593  0.00  0.00    -0.422 OA
ATOM      9  C   UNL     1       0.112  -2.893  -2.874  0.00  0.00    +0.198 C 
ATOM     10  C   UNL     1       0.316  -1.641  -3.352  0.00  0.00    +0.117 C 
ATOM     11  C   UNL     1       0.225  -0.418  -2.482  0.00  0.00    +0.142 C 
ATOM     12  C   UNL     1      -0.960   0.420  -2.843  0.00  0.00    -0.002 A 
ATOM     13  C   UNL     1      -2.310   0.147  -2.834  0.00  0.00    +0.007 A 
ATOM     14  C   UNL     1      -3.164   1.168  -3.236  0.00  0.00    +0.000 A 
ATOM     15  C   UNL     1      -2.677   2.400  -3.625  0.00  0.00    +0.002 A 
ATOM     16  C   UNL     1      -1.320   2.682  -3.638  0.00  0.00    +0.024 A 
ATOM     17  C   UNL     1      -0.453   1.665  -3.237  0.00  0.00    +0.041 A 
ATOM     18  N   UNL     1       0.929   1.669  -3.155  0.00  0.00    -0.265 N 
ATOM     19  C   UNL     1       1.414   0.486  -2.722  0.00  0.00    +0.240 C 
ATOM     20  O   UNL     1       2.582   0.203  -2.556  0.00  0.00    -0.274 OA
ENDROOT
BRANCH   9  21
ATOM     21  N   UNL     1       0.217  -3.937  -3.753  0.00  0.00    -0.329 N 
ATOM     22  H   UNL     1       0.165  -4.850  -3.430  0.00  0.00    +0.145 HD
ATOM     23  H   UNL     1       0.344  -3.764  -4.699  0.00  0.00    +0.145 HD
ENDBRANCH   9  21
BRANCH  10  24
ATOM     24  C   UNL     1       0.624  -1.481  -4.710  0.00  0.00    +0.341 C 
ATOM     25  O   UNL     1      -0.242  -1.135  -5.494  0.00  0.00    -0.245 OA
BRANCH  24  26
ATOM     26  O   UNL     1       1.880  -1.709  -5.149  0.00  0.00    -0.465 OA
ATOM     27  C   UNL     1       2.123  -1.527  -6.546  0.00  0.00    +0.280 C 
ENDBRANCH  24  26
ENDBRANCH  10  24
BRANCH  18  28
ATOM     28  C   UNL     1       1.766   2.822  -3.498  0.00  0.00    +0.148 C 
BRANCH  28  29
ATOM     29  C   UNL     1       1.972   3.675  -2.273  0.00  0.00    -0.030 A 
ATOM     30  C   UNL     1       1.083   4.693  -1.983  0.00  0.00    +0.005 A 
ATOM     31  C   UNL     1       1.272   5.476  -0.859  0.00  0.00    +0.000 A 
ATOM     32  C   UNL     1       2.349   5.241  -0.026  0.00  0.00    +0.000 A 
ATOM     33  C   UNL     1       3.238   4.222  -0.316  0.00  0.00    +0.000 A 
ATOM     34  C   UNL     1       3.046   3.437  -1.437  0.00  0.00    +0.005 A 
ENDBRANCH  28  29
ENDBRANCH  18  28
TORSDOF 5
