REMARK  Name = ZINC49006205
REMARK  8 active torsions:
REMARK  status: ('A' for Active; 'I' for Inactive)
REMARK    1  A    between atoms: C_1  and  N_2
REMARK    2  A    between atoms: C_3  and  C_5
REMARK    3  A    between atoms: C_6  and  N_22
REMARK    4  A    between atoms: C_7  and  C_10
REMARK    5  A    between atoms: N_12  and  C_13
REMARK    6  A    between atoms: C_13  and  C_14
REMARK    7  A    between atoms: C_17  and  S_20
REMARK    8  A    between atoms: S_20  and  C_21
REMARK                            x       y       z     vdW  Elec       q    Type
REMARK                         _______ _______ _______ _____ _____    ______ ____
ROOT
ATOM      1  C   UNL     1      -1.135  -2.168   0.007  0.00  0.00    +0.156 A 
ATOM      2  C   UNL     1      -2.325  -2.887   0.108  0.00  0.00    +0.076 A 
ATOM      3  C   UNL     1      -2.142  -4.270   0.080  0.00  0.00    +0.115 A 
ATOM      4  S   UNL     1      -0.372  -4.388  -0.081  0.00  0.00    +0.019 S 
ATOM      5  N   UNL     1       0.005  -2.815  -0.107  0.00  0.00    -0.203 NA
ENDROOT
BRANCH   1   8
ATOM      6  C   UNL     1      -0.016   1.460   0.049  0.00  0.00    +0.128 C 
ATOM      7  N   UNL     1       0.004  -0.005   0.034  0.00  0.00    -0.313 N 
ATOM      8  C   UNL     1      -1.155  -0.694   0.022  0.00  0.00    +0.265 C 
ATOM      9  O   UNL     1      -2.216  -0.100   0.023  0.00  0.00    -0.268 OA
ATOM     10  H   UNL     1       0.850  -0.479   0.033  0.00  0.00    +0.149 HD
ENDBRANCH   1   8
BRANCH   3  11
ATOM     11  C   UNL     1      -3.140  -5.339   0.161  0.00  0.00    +0.254 C 
ATOM     12  O   UNL     1      -4.320  -5.063   0.271  0.00  0.00    -0.270 OA
ATOM     13  N   UNL     1      -2.751  -6.628   0.115  0.00  0.00    -0.307 N 
ATOM     14  H   UNL     1      -1.810  -6.848   0.027  0.00  0.00    +0.149 HD
BRANCH  13  15
ATOM     15  C   UNL     1      -3.748  -7.698   0.196  0.00  0.00    +0.139 C 
BRANCH  15  16
ATOM     16  C   UNL     1      -3.058  -9.036   0.122  0.00  0.00    -0.030 A 
ATOM     17  C   UNL     1      -2.846  -9.635  -1.106  0.00  0.00    +0.006 A 
ATOM     18  C   UNL     1      -2.214 -10.861  -1.178  0.00  0.00    +0.015 A 
ATOM     19  C   UNL     1      -1.791 -11.492  -0.015  0.00  0.00    +0.008 A 
ATOM     20  C   UNL     1      -2.006 -10.887   1.218  0.00  0.00    +0.015 A 
ATOM     21  C   UNL     1      -2.633  -9.658   1.282  0.00  0.00    +0.006 A 
BRANCH  19  22
ATOM     22  S   UNL     1      -0.985 -13.056  -0.102  0.00  0.00    -0.129 S 
ATOM     23  C   UNL     1      -0.631 -13.465   1.630  0.00  0.00    +0.090 C 
ENDBRANCH  19  22
ENDBRANCH  15  16
ENDBRANCH  13  15
ENDBRANCH   3  11
BRANCH   2  24
ATOM     24  N   UNL     1      -3.570  -2.285   0.227  0.00  0.00    -0.355 N 
ATOM     25  H   UNL     1      -3.651  -1.320   0.165  0.00  0.00    +0.142 HD
ATOM     26  H   UNL     1      -4.360  -2.829   0.372  0.00  0.00    +0.142 HD
ENDBRANCH   2  24
TORSDOF 6
