REMARK  Name = ZINC39467476
REMARK  7 active torsions:
REMARK  status: ('A' for Active; 'I' for Inactive)
REMARK    1  A    between atoms: C_1  and  C_2
REMARK    2  A    between atoms: C_2  and  O_3
REMARK    3  A    between atoms: O_3  and  C_4
REMARK    4  A    between atoms: P_13  and  C_29
REMARK    5  A    between atoms: C_21  and  C_22
REMARK    6  A    between atoms: C_27  and  O_28
REMARK    7  A    between atoms: C_34  and  O_35
REMARK                            x       y       z     vdW  Elec       q    Type
REMARK                         _______ _______ _______ _____ _____    ______ ____
ROOT
ATOM      1  C   UNL     1      -1.498  -1.848   0.006  0.00  0.00    +0.124 C 
ATOM      2  C   UNL     1      -0.433  -2.650  -0.003  0.00  0.00    +0.023 C 
ATOM      3  C   UNL     1      -0.617  -4.144   0.001  0.00  0.00    +0.019 C 
ATOM      4  C   UNL     1       0.610  -4.827   0.586  0.00  0.00    -0.002 C 
ATOM      5  C   UNL     1       0.251  -6.190   1.193  0.00  0.00    -0.020 C 
ATOM      6  C   UNL     1       1.520  -7.046   1.068  0.00  0.00    +0.157 C 
ATOM      7  O   UNL     1       1.304  -8.347   1.638  0.00  0.00    -0.316 OA
ATOM      8  P   UNL     1      -0.016  -9.165   1.149  0.00  0.00    +0.291 P 
ATOM      9  O   UNL     1      -0.379 -10.199   2.143  0.00  0.00    -0.269 OA
ATOM     10  N   UNL     1      -1.204  -8.026   1.047  0.00  0.00    -0.288 NA
ATOM     11  N   UNL     1      -0.882  -6.798   0.506  0.00  0.00    +0.398 N 
ATOM     12  C   UNL     1      -2.117  -6.013   0.663  0.00  0.00    -0.046 C 
ATOM     13  C   UNL     1      -1.831  -4.516   0.850  0.00  0.00    +0.005 C 
ATOM     14  C   UNL     1      -3.024  -3.707   0.416  0.00  0.00    -0.013 C 
ATOM     15  C   UNL     1      -2.857  -2.438   0.016  0.00  0.00    +0.023 C 
ATOM     16  H   UNL     1      -2.103  -8.221   1.353  0.00  0.00    +0.111 HD
ATOM     17  H   UNL     1      -0.668  -6.897  -0.475  0.00  0.00    -0.055 HD
ENDROOT
BRANCH  15  18
ATOM     18  C   UNL     1      -4.025  -1.635  -0.418  0.00  0.00    +0.027 A 
ATOM     19  C   UNL     1      -4.913  -1.123   0.526  0.00  0.00    +0.012 A 
ATOM     20  C   UNL     1      -5.998  -0.376   0.116  0.00  0.00    +0.001 A 
ATOM     21  C   UNL     1      -6.208  -0.131  -1.230  0.00  0.00    +0.004 A 
ATOM     22  C   UNL     1      -5.333  -0.633  -2.175  0.00  0.00    +0.046 A 
ATOM     23  C   UNL     1      -4.236  -1.381  -1.777  0.00  0.00    +0.125 A 
BRANCH  23  24
ATOM     24  O   UNL     1      -3.373  -1.871  -2.705  0.00  0.00    -0.506 OA
ATOM     25  H   UNL     1      -3.607  -2.749  -3.035  0.00  0.00    +0.292 HD
ENDBRANCH  23  24
ENDBRANCH  15  18
BRANCH   8  26
ATOM     26  C   UNL     1       0.276  -9.924  -0.472  0.00  0.00    +0.091 A 
ATOM     27  C   UNL     1      -0.019  -9.225  -1.627  0.00  0.00    +0.018 A 
ATOM     28  C   UNL     1       0.203  -9.803  -2.863  0.00  0.00    +0.001 A 
ATOM     29  C   UNL     1       0.722 -11.082  -2.947  0.00  0.00    +0.004 A 
ATOM     30  C   UNL     1       1.019 -11.785  -1.796  0.00  0.00    +0.046 A 
ATOM     31  C   UNL     1       0.802 -11.205  -0.554  0.00  0.00    +0.131 A 
BRANCH  31  32
ATOM     32  O   UNL     1       1.099 -11.893   0.580  0.00  0.00    -0.506 OA
ATOM     33  H   UNL     1       0.368 -12.427   0.918  0.00  0.00    +0.292 HD
ENDBRANCH  31  32
ENDBRANCH   8  26
BRANCH   1  34
ATOM     34  O   UNL     1      -1.339  -0.499   0.012  0.00  0.00    -0.492 OA
BRANCH  34  36
ATOM     35  C   UNL     1      -0.019   1.526   0.010  0.00  0.00    +0.048 C 
ATOM     36  C   UNL     1       0.002  -0.004   0.002  0.00  0.00    +0.225 C 
ENDBRANCH  34  36
ENDBRANCH   1  34
TORSDOF 6
