REMARK  Name = ZINC42358618
REMARK  4 active torsions:
REMARK  status: ('A' for Active; 'I' for Inactive)
REMARK    1  A    between atoms: C_3  and  N_12
REMARK    2  A    between atoms: C_8  and  N_11
REMARK    3  A    between atoms: N_12  and  C_13
REMARK    4  A    between atoms: C_13  and  C_14
REMARK                            x       y       z     vdW  Elec       q    Type
REMARK                         _______ _______ _______ _____ _____    ______ ____
ROOT
ATOM      1  C   UNL     1      -0.017   1.406   0.010  0.00  0.00    +0.013 A 
ATOM      2  C   UNL     1       1.174   2.068   0.002  0.00  0.00    +0.044 A 
ATOM      3  C   UNL     1       2.375   1.345  -0.013  0.00  0.00    +0.120 A 
ATOM      4  N   UNL     1       2.386   0.028  -0.021  0.00  0.00    -0.232 NA
ATOM      5  C   UNL     1       1.248  -0.677  -0.014  0.00  0.00    +0.073 A 
ATOM      6  C   UNL     1       0.002  -0.004   0.002  0.00  0.00    +0.002 A 
ATOM      7  C   UNL     1      -1.188  -0.747   0.009  0.00  0.00    +0.032 A 
ATOM      8  C   UNL     1      -1.129  -2.123   0.001  0.00  0.00    +0.025 A 
ATOM      9  C   UNL     1       0.105  -2.782  -0.014  0.00  0.00    +0.025 A 
ATOM     10  C   UNL     1       1.272  -2.082  -0.022  0.00  0.00    +0.030 A 
ENDROOT
BRANCH   8  11
ATOM     11  N   UNL     1      -2.312  -2.868   0.007  0.00  0.00    -0.358 N 
ATOM     12  H   UNL     1      -3.170  -2.416   0.018  0.00  0.00    +0.142 HD
ATOM     13  H   UNL     1      -2.275  -3.837   0.001  0.00  0.00    +0.142 HD
ENDBRANCH   8  11
BRANCH   3  14
ATOM     14  N   UNL     1       3.580   2.033  -0.021  0.00  0.00    -0.325 N 
ATOM     15  H   UNL     1       4.418   1.544  -0.032  0.00  0.00    +0.148 HD
BRANCH  14  16
ATOM     16  C   UNL     1       3.587   3.498  -0.013  0.00  0.00    +0.141 C 
BRANCH  16  17
ATOM     17  C   UNL     1       5.010   3.993  -0.024  0.00  0.00    +0.007 A 
ATOM     18  C   UNL     1       5.774   4.244   1.064  0.00  0.00    +0.110 A 
ATOM     19  N   UNL     1       6.980   4.670   0.631  0.00  0.00    -0.284 N 
ATOM     20  H   UNL     1       7.730   4.923   1.191  0.00  0.00    +0.188 HD
ATOM     21  N   UNL     1       6.955   4.681  -0.769  0.00  0.00    -0.182 NA
ATOM     22  C   UNL     1       5.777   4.270  -1.161  0.00  0.00    +0.139 A 
ENDBRANCH  16  17
ENDBRANCH  14  16
ENDBRANCH   3  14
TORSDOF 4
