REMARK  Name = ZINC39667535
REMARK  7 active torsions:
REMARK  status: ('A' for Active; 'I' for Inactive)
REMARK    1  A    between atoms: C_1  and  C_2
REMARK    2  A    between atoms: C_2  and  C_3
REMARK    3  A    between atoms: C_7  and  C_16
REMARK    4  A    between atoms: N_18  and  C_19
REMARK    5  A    between atoms: C_19  and  C_20
REMARK    6  A    between atoms: C_24  and  C_27
REMARK    7  A    between atoms: C_25  and  C_26
REMARK                            x       y       z     vdW  Elec       q    Type
REMARK                         _______ _______ _______ _____ _____    ______ ____
ROOT
ATOM      1  C   UNL     1       0.662  -0.526  -0.928  0.00  0.00    +0.215 C 
ATOM      2  O   UNL     1       1.101   0.344  -1.650  0.00  0.00    -0.276 OA
ATOM      3  N   UNL     1       0.819  -1.823  -1.262  0.00  0.00    -0.300 N 
ATOM      4  C   UNL     1       0.351  -3.016  -0.518  0.00  0.00    +0.121 C 
ATOM      5  C   UNL     1      -0.137  -3.992  -1.612  0.00  0.00    +0.100 C 
ATOM      6  C   UNL     1       0.621  -3.568  -2.882  0.00  0.00    -0.004 C 
ATOM      7  C   UNL     1       1.493  -2.377  -2.461  0.00  0.00    +0.115 C 
ATOM      8  C   UNL     1      -0.363  -3.138  -3.966  0.00  0.00    -0.010 C 
ATOM      9  C   UNL     1       0.411  -2.776  -5.237  0.00  0.00    -0.082 C 
ATOM     10  N   UNL     1       1.188  -3.938  -5.686  0.00  0.00    +0.379 N 
ATOM     11  C   UNL     1       2.194  -4.288  -4.677  0.00  0.00    -0.082 C 
ATOM     12  C   UNL     1       1.496  -4.714  -3.382  0.00  0.00    -0.010 C 
ATOM     13  H   UNL     1       0.567  -4.721  -5.826  0.00  0.00    -0.086 HD
ATOM     14  H   UNL     1       1.648  -3.717  -6.556  0.00  0.00    -0.086 HD
ENDROOT
BRANCH   5  15
ATOM     15  C   UNL     1      -1.624  -3.852  -1.815  0.00  0.00    +0.218 C 
ATOM     16  O   UNL     1      -2.165  -2.784  -1.621  0.00  0.00    -0.275 OA
ATOM     17  N   UNL     1      -2.353  -4.914  -2.211  0.00  0.00    -0.311 N 
ATOM     18  H   UNL     1      -1.920  -5.769  -2.366  0.00  0.00    +0.149 HD
BRANCH  17  19
ATOM     19  C   UNL     1      -3.798  -4.779  -2.408  0.00  0.00    +0.139 C 
BRANCH  19  20
ATOM     20  C   UNL     1      -4.371  -6.101  -2.848  0.00  0.00    -0.027 A 
ATOM     21  C   UNL     1      -4.637  -6.328  -4.186  0.00  0.00    +0.005 A 
ATOM     22  C   UNL     1      -5.163  -7.541  -4.589  0.00  0.00    +0.001 A 
ATOM     23  C   UNL     1      -5.423  -8.527  -3.655  0.00  0.00    +0.003 A 
ATOM     24  C   UNL     1      -5.156  -8.300  -2.318  0.00  0.00    -0.047 A 
ATOM     25  C   UNL     1      -4.626  -7.088  -1.915  0.00  0.00    -0.043 A 
ATOM     26  C   UNL     1      -4.330  -6.843  -0.458  0.00  0.00    +0.044 C 
ATOM     27  C   UNL     1      -5.439  -9.375  -1.300  0.00  0.00    +0.044 C 
ENDBRANCH  19  20
ENDBRANCH  17  19
ENDBRANCH   5  15
BRANCH   1  29
ATOM     28  C   UNL     1      -0.098   1.365   0.484  0.00  0.00    +0.013 C 
ATOM     29  C   UNL     1      -0.059  -0.158   0.343  0.00  0.00    +0.092 C 
ENDBRANCH   1  29
TORSDOF 4
