REMARK  Name = ZINC37552878
REMARK  6 active torsions:
REMARK  status: ('A' for Active; 'I' for Inactive)
REMARK    1  A    between atoms: C_6  and  S_7
REMARK    2  A    between atoms: S_7  and  N_10
REMARK    3  A    between atoms: N_10  and  C_11
REMARK    4  A    between atoms: C_14  and  C_16
REMARK    5  A    between atoms: C_17  and  C_18
REMARK    6  A    between atoms: C_18  and  N_19
REMARK                            x       y       z     vdW  Elec       q    Type
REMARK                         _______ _______ _______ _____ _____    ______ ____
ROOT
ATOM      1  N   UNL     1      -1.948  -1.147  -1.567  0.00  0.00    -0.070 NA
ENDROOT
BRANCH   1   2
ATOM      2  C   UNL     1      -3.111  -1.835  -1.866  0.00  0.00    +0.202 A 
ATOM      3  N   UNL     1      -3.987  -2.360  -1.032  0.00  0.00    -0.229 NA
ATOM      4  C   UNL     1      -5.055  -2.991  -1.472  0.00  0.00    +0.137 A 
ATOM      5  C   UNL     1      -5.205  -3.073  -2.833  0.00  0.00    +0.083 A 
ATOM      6  S   UNL     1      -3.748  -2.198  -3.380  0.00  0.00    -0.041 S 
BRANCH   5   7
ATOM      7  C   UNL     1      -6.246  -3.686  -3.602  0.00  0.00    -0.059 C 
ATOM      8  C   UNL     1      -7.099  -4.189  -4.233  0.00  0.00    -0.116 C 
BRANCH   8   9
ATOM      9  C   UNL     1      -8.169  -4.820  -5.023  0.00  0.00    +0.005 C 
BRANCH   9  10
ATOM     10  N   UNL     1      -7.888  -4.645  -6.455  0.00  0.00    +0.385 N 
ATOM     11  H   UNL     1      -7.004  -5.078  -6.679  0.00  0.00    -0.089 HD
ATOM     12  H   UNL     1      -8.621  -5.077  -6.997  0.00  0.00    -0.089 HD
ATOM     13  H   UNL     1      -7.845  -3.661  -6.671  0.00  0.00    -0.089 HD
ENDBRANCH   9  10
ENDBRANCH   8   9
ENDBRANCH   5   7
ENDBRANCH   1   2
BRANCH   1  14
ATOM     14  S   UNL     1      -1.512  -0.905   0.012  0.00  0.00    +0.094 S 
ATOM     15  O   UNL     1      -1.219  -2.186   0.553  0.00  0.00    -0.148 OA
ATOM     16  O   UNL     1      -2.492  -0.046   0.577  0.00  0.00    -0.148 OA
BRANCH  14  22
ATOM     17  C   UNL     1      -0.017   1.378   0.010  0.00  0.00    +0.030 A 
ATOM     18  C   UNL     1       1.171   2.086   0.002  0.00  0.00    +0.023 A 
ATOM     19  C   UNL     1       2.378   1.412  -0.013  0.00  0.00    +0.059 A 
ATOM     20  C   UNL     1       2.397   0.027  -0.021  0.00  0.00    +0.061 A 
ATOM     21  C   UNL     1       1.208  -0.680  -0.013  0.00  0.00    +0.050 A 
ATOM     22  C   UNL     1       0.002  -0.004   0.002  0.00  0.00    +0.112 A 
ATOM     23 CL   UNL     1       3.912  -0.821  -0.040  0.00  0.00    -0.082 Cl
ATOM     24 CL   UNL     1       3.869   2.301  -0.023  0.00  0.00    -0.082 Cl
ENDBRANCH  14  22
ENDBRANCH   1  14
TORSDOF 6
