REMARK  Name = ZINC64164331
REMARK  9 active torsions:
REMARK  status: ('A' for Active; 'I' for Inactive)
REMARK    1  A    between atoms: C_1  and  C_2
REMARK    2  A    between atoms: C_2  and  C_3
REMARK    3  A    between atoms: C_2  and  C_4
REMARK    4  A    between atoms: C_4  and  C_6
REMARK    5  A    between atoms: C_4  and  N_15
REMARK    6  A    between atoms: C_16  and  C_18
REMARK    7  A    between atoms: C_18  and  S_19
REMARK    8  A    between atoms: S_19  and  C_20
REMARK    9  A    between atoms: N_25  and  C_26
REMARK                            x       y       z     vdW  Elec       q    Type
REMARK                         _______ _______ _______ _____ _____    ______ ____
ROOT
ATOM      1  N   UNL     1      -2.042  -0.456  -1.474  0.00  0.00    -0.308 N 
ATOM      2  C   UNL     1      -1.723  -1.348  -2.432  0.00  0.00    +0.223 C 
ATOM      3  O   UNL     1      -0.930  -2.234  -2.195  0.00  0.00    -0.275 OA
ATOM      4  H   UNL     1      -2.677   0.253  -1.663  0.00  0.00    +0.149 HD
ENDROOT
BRANCH   1   5
ATOM      5  C   UNL     1      -1.431  -0.555  -0.146  0.00  0.00    +0.118 C 
BRANCH   5   6
ATOM      6  C   UNL     1      -2.347   0.101   0.888  0.00  0.00    +0.195 C 
ATOM      7  N   UNL     1      -1.775  -0.044   2.233  0.00  0.00    -0.362 N 
ATOM      8  C   UNL     1      -2.626  -0.720   2.949  0.00  0.00    +0.060 A 
ATOM      9  C   UNL     1      -2.617  -1.175   4.346  0.00  0.00    +0.027 A 
ATOM     10  C   UNL     1      -3.665  -1.875   4.824  0.00  0.00    +0.002 A 
ATOM     11  C   UNL     1      -4.785  -2.197   4.036  0.00  0.00    +0.002 A 
ATOM     12  C   UNL     1      -4.894  -1.829   2.744  0.00  0.00    +0.027 A 
ATOM     13  C   UNL     1      -3.811  -1.061   2.115  0.00  0.00    +0.060 A 
ATOM     14  N   UNL     1      -3.647  -0.582   0.916  0.00  0.00    -0.362 N 
ATOM     15  H   UNL     1      -0.919   0.301   2.532  0.00  0.00    +0.162 HD
ATOM     16  H   UNL     1      -4.269  -0.661   0.176  0.00  0.00    +0.162 HD
ENDBRANCH   5   6
BRANCH   5  18
ATOM     17  C   UNL     1       0.881  -0.577  -1.094  0.00  0.00    +0.009 C 
ATOM     18  C   UNL     1      -0.077   0.157  -0.153  0.00  0.00    +0.007 C 
ATOM     19  C   UNL     1      -0.261   1.597  -0.636  0.00  0.00    +0.009 C 
ENDBRANCH   5  18
ENDBRANCH   1   5
BRANCH   2  20
ATOM     20  C   UNL     1      -2.352  -1.245  -3.797  0.00  0.00    +0.168 C 
BRANCH  20  21
ATOM     21  S   UNL     1      -1.725  -2.579  -4.854  0.00  0.00    -0.103 S 
BRANCH  21  22
ATOM     22  C   UNL     1      -2.567  -2.317  -6.439  0.00  0.00    +0.294 C 
ATOM     23  N   UNL     1      -4.024  -2.330  -6.252  0.00  0.00    -0.135 NA
ATOM     24  N   UNL     1      -4.494  -1.243  -6.587  0.00  0.00    -0.066 NA
ATOM     25  N   UNL     1      -3.525  -0.344  -7.033  0.00  0.00    -0.164 N 
ATOM     26  N   UNL     1      -2.266  -0.973  -6.965  0.00  0.00    -0.200 N 
ATOM     27  H   UNL     1      -3.690   0.561  -7.340  0.00  0.00    +0.195 HD
BRANCH  26  28
ATOM     28  C   UNL     1      -1.019  -0.446  -7.312  0.00  0.00    +0.071 A 
ATOM     29  C   UNL     1      -0.215  -1.109  -8.231  0.00  0.00    +0.026 A 
ATOM     30  C   UNL     1       1.017  -0.586  -8.572  0.00  0.00    +0.002 A 
ATOM     31  C   UNL     1       1.450   0.597  -8.001  0.00  0.00    +0.002 A 
ATOM     32  C   UNL     1       0.653   1.259  -7.085  0.00  0.00    +0.022 A 
ATOM     33  C   UNL     1      -0.583   0.745  -6.744  0.00  0.00    +0.064 A 
ATOM     34 CL   UNL     1      -1.587   1.581  -5.601  0.00  0.00    -0.082 Cl
ENDBRANCH  26  28
ENDBRANCH  21  22
ENDBRANCH  20  21
ENDBRANCH   2  20
TORSDOF 7
