REMARK  Name = ZINC20681685
REMARK  5 active torsions:
REMARK  status: ('A' for Active; 'I' for Inactive)
REMARK    1  A    between atoms: C_3  and  C_9
REMARK    2  A    between atoms: C_4  and  O_8
REMARK    3  A    between atoms: C_6  and  O_7
REMARK    4  A    between atoms: C_20  and  S_25
REMARK    5  A    between atoms: S_25  and  N_28
REMARK                            x       y       z     vdW  Elec       q    Type
REMARK                         _______ _______ _______ _____ _____    ______ ____
ROOT
ATOM      1  C   UNL     1      -0.037   1.466   0.017  0.00  0.00    +0.108 C 
ATOM      2  C   UNL     1       1.419   1.894   0.018  0.00  0.00    +0.029 C 
ATOM      3  C   UNL     1       1.706   3.392  -0.155  0.00  0.00    +0.033 C 
ATOM      4  C   UNL     1       3.074   3.367  -0.839  0.00  0.00    -0.030 C 
ATOM      5  C   UNL     1       3.230   2.226  -1.500  0.00  0.00    -0.023 C 
ATOM      6  C   UNL     1       1.993   1.418  -1.349  0.00  0.00    +0.049 C 
ATOM      7  C   UNL     1       2.018  -0.060  -1.344  0.00  0.00    -0.018 A 
ATOM      8  C   UNL     1       2.999  -0.787  -1.982  0.00  0.00    +0.034 A 
ATOM      9  C   UNL     1       2.956  -2.169  -1.982  0.00  0.00    +0.106 A 
ATOM     10  C   UNL     1       1.925  -2.828  -1.337  0.00  0.00    +0.030 A 
ATOM     11  C   UNL     1       0.942  -2.110  -0.688  0.00  0.00    +0.025 A 
ATOM     12  C   UNL     1       0.980  -0.721  -0.676  0.00  0.00    +0.031 A 
ATOM     13  N   UNL     1      -0.018  -0.013   0.004  0.00  0.00    -0.336 N 
ATOM     14  H   UNL     1      -0.799  -0.578   0.536  0.00  0.00    +0.147 HD
ENDROOT
BRANCH   1  17
ATOM     15  C   UNL     1      -1.424   1.690  -3.487  0.00  0.00    +0.046 A 
ATOM     16  C   UNL     1      -0.787   1.214  -2.357  0.00  0.00    +0.012 A 
ATOM     17  C   UNL     1      -0.733   1.988  -1.214  0.00  0.00    +0.015 A 
ATOM     18  C   UNL     1      -1.323   3.244  -1.196  0.00  0.00    +0.125 A 
ATOM     19  C   UNL     1      -1.957   3.726  -2.330  0.00  0.00    +0.091 A 
ATOM     20  C   UNL     1      -2.011   2.947  -3.476  0.00  0.00    +0.120 A 
BRANCH  20  21
ATOM     21  O   UNL     1      -2.637   3.415  -4.588  0.00  0.00    -0.507 OA
ATOM     22  H   UNL     1      -3.102   4.412  -4.579  0.00  0.00    +0.292 HD
ENDBRANCH  20  21
BRANCH  18  23
ATOM     23  O   UNL     1      -1.274   4.003  -0.070  0.00  0.00    -0.506 OA
ATOM     24  H   UNL     1      -1.742   4.998  -0.056  0.00  0.00    +0.292 HD
ENDBRANCH  18  23
ENDBRANCH   1  17
BRANCH   9  25
ATOM     25  S   UNL     1       4.215  -3.091  -2.801  0.00  0.00    +0.061 S 
ATOM     26  O   UNL     1       3.650  -4.355  -3.119  0.00  0.00    -0.153 OA
ATOM     27  O   UNL     1       4.768  -2.232  -3.789  0.00  0.00    -0.153 OA
BRANCH  25  28
ATOM     28  N   UNL     1       5.414  -3.373  -1.694  0.00  0.00    -0.177 NA
ATOM     29  C   UNL     1       6.488  -2.412  -1.577  0.00  0.00    +0.109 C 
ATOM     30  C   UNL     1       7.626  -2.774  -2.554  0.00  0.00    +0.017 C 
ATOM     31  C   UNL     1       8.328  -3.982  -2.094  0.00  0.00    +0.001 C 
ATOM     32  C   UNL     1       7.458  -5.234  -2.044  0.00  0.00    +0.001 C 
ATOM     33  C   UNL     1       6.718  -5.277  -0.730  0.00  0.00    +0.017 C 
ATOM     34  C   UNL     1       5.345  -4.597  -0.873  0.00  0.00    +0.109 C 
ENDBRANCH  25  28
ENDBRANCH   9  25
TORSDOF 5
