REMARK  Name = ZINC61592445
REMARK  7 active torsions:
REMARK  status: ('A' for Active; 'I' for Inactive)
REMARK    1  A    between atoms: C_1  and  N_2
REMARK    2  A    between atoms: C_8  and  S_9
REMARK    3  A    between atoms: S_9  and  C_10
REMARK    4  A    between atoms: C_10  and  C_11
REMARK    5  A    between atoms: C_11  and  C_13
REMARK    6  A    between atoms: C_11  and  O_20
REMARK    7  A    between atoms: C_18  and  N_19
REMARK                            x       y       z     vdW  Elec       q    Type
REMARK                         _______ _______ _______ _____ _____    ______ ____
ROOT
ATOM      1  C   UNL     1       0.072  -1.464   5.246  0.00  0.00    +0.156 C 
ENDROOT
BRANCH   1   2
ATOM      2  C   UNL     1       0.097  -2.740   6.048  0.00  0.00    +0.002 A 
ATOM      3  C   UNL     1       1.299  -3.251   6.498  0.00  0.00    +0.008 A 
ATOM      4  C   UNL     1       1.323  -4.421   7.234  0.00  0.00    +0.000 A 
ATOM      5  C   UNL     1       0.144  -5.084   7.523  0.00  0.00    +0.002 A 
ATOM      6  C   UNL     1      -1.061  -4.579   7.077  0.00  0.00    +0.023 A 
ATOM      7  C   UNL     1      -1.089  -3.400   6.341  0.00  0.00    +0.030 A 
BRANCH   7   8
ATOM      8  N   UNL     1      -2.307  -2.883   5.893  0.00  0.00    -0.358 N 
ATOM      9  H   UNL     1      -2.325  -2.063   5.377  0.00  0.00    +0.142 HD
ATOM     10  H   UNL     1      -3.135  -3.345   6.099  0.00  0.00    +0.142 HD
ENDBRANCH   7   8
ENDBRANCH   1   2
BRANCH   1  11
ATOM     11  O   UNL     1       1.232  -0.687   5.551  0.00  0.00    -0.386 OA
ATOM     12  H   UNL     1       2.067  -1.132   5.354  0.00  0.00    +0.210 HD
ENDBRANCH   1  11
BRANCH   1  13
ATOM     13  C   UNL     1       0.062  -1.801   3.753  0.00  0.00    +0.113 C 
BRANCH  13  14
ATOM     14  S   UNL     1       0.033  -0.266   2.788  0.00  0.00    -0.083 S 
BRANCH  14  22
ATOM     15  C   UNL     1      -0.018   1.461   0.010  0.00  0.00    +0.156 C 
ATOM     16  N   UNL     1       0.002  -0.004   0.002  0.00  0.00    -0.274 N 
ATOM     17  C   UNL     1       0.008  -0.787  -1.095  0.00  0.00    +0.345 A 
ATOM     18  O   UNL     1      -0.001  -0.405  -2.252  0.00  0.00    -0.245 OA
ATOM     19  N   UNL     1       0.027  -2.070  -0.680  0.00  0.00    -0.226 N 
ATOM     20  H   UNL     1       0.036  -2.857  -1.246  0.00  0.00    +0.194 HD
ATOM     21  N   UNL     1       0.033  -2.057   0.722  0.00  0.00    -0.145 NA
ATOM     22  C   UNL     1       0.024  -0.816   1.114  0.00  0.00    +0.192 A 
ENDBRANCH  14  22
ENDBRANCH  13  14
ENDBRANCH   1  13
TORSDOF 6
