REMARK  Name = ZINC22802115
REMARK  10 active torsions:
REMARK  status: ('A' for Active; 'I' for Inactive)
REMARK    1  A    between atoms: C_3  and  N_19
REMARK    2  A    between atoms: C_4  and  N_16
REMARK    3  A    between atoms: C_6  and  S_7
REMARK    4  A    between atoms: S_7  and  N_10
REMARK    5  A    between atoms: N_19  and  C_20
REMARK    6  A    between atoms: C_20  and  C_21
REMARK    7  A    between atoms: C_21  and  C_22
REMARK    8  A    between atoms: C_22  and  C_23
REMARK    9  A    between atoms: C_24  and  C_30
REMARK   10  A    between atoms: C_25  and  N_29
REMARK                            x       y       z     vdW  Elec       q    Type
REMARK                         _______ _______ _______ _____ _____    ______ ____
ROOT
ATOM      1  C   UNL     1       3.538  -2.451  -0.873  0.00  0.00    +0.030 A 
ATOM      2  C   UNL     1       4.035  -2.616  -2.151  0.00  0.00    +0.027 A 
ATOM      3  C   UNL     1       4.913  -1.677  -2.679  0.00  0.00    +0.058 A 
ATOM      4  C   UNL     1       5.283  -0.573  -1.921  0.00  0.00    +0.149 A 
ATOM      5  C   UNL     1       4.777  -0.412  -0.646  0.00  0.00    +0.063 A 
ATOM      6  C   UNL     1       3.904  -1.349  -0.123  0.00  0.00    +0.108 A 
ENDROOT
BRANCH   6   7
ATOM      7  S   UNL     1       3.261  -1.139   1.504  0.00  0.00    +0.061 S 
ATOM      8  O   UNL     1       4.185  -0.316   2.203  0.00  0.00    -0.153 OA
ATOM      9  O   UNL     1       2.893  -2.432   1.965  0.00  0.00    -0.153 OA
BRANCH   7  10
ATOM     10  N   UNL     1       1.859  -0.268   1.369  0.00  0.00    -0.177 NA
ATOM     11  C   UNL     1       0.570  -0.948   1.187  0.00  0.00    +0.109 C 
ATOM     12  C   UNL     1      -0.123  -0.369  -0.051  0.00  0.00    +0.017 C 
ATOM     13  C   UNL     1      -0.229   1.151   0.093  0.00  0.00    +0.003 C 
ATOM     14  C   UNL     1       1.174   1.755   0.188  0.00  0.00    +0.017 C 
ATOM     15  C   UNL     1       1.881   1.200   1.429  0.00  0.00    +0.109 C 
ENDBRANCH   7  10
ENDBRANCH   6   7
BRANCH   4  16
ATOM     16  N   UNL     1       6.217   0.430  -2.480  0.00  0.00    +0.058 N 
ATOM     17  O   UNL     1       6.454   1.452  -1.861  0.00  0.00    -0.126 OA
ATOM     18  O   UNL     1       6.749   0.233  -3.557  0.00  0.00    -0.126 OA
ENDBRANCH   4  16
BRANCH   3  19
ATOM     19  N   UNL     1       5.422  -1.843  -3.969  0.00  0.00    -0.342 N 
ATOM     20  H   UNL     1       6.188  -1.152  -4.351  0.00  0.00    +0.146 HD
BRANCH  19  21
ATOM     21  C   UNL     1       4.935  -2.937  -4.813  0.00  0.00    +0.102 C 
BRANCH  21  22
ATOM     22  C   UNL     1       5.649  -2.893  -6.166  0.00  0.00    +0.025 C 
BRANCH  22  23
ATOM     23  C   UNL     1       5.141  -4.036  -7.048  0.00  0.00    +0.060 C 
BRANCH  23  24
ATOM     24  C   UNL     1       5.845  -3.993  -8.380  0.00  0.00    +0.082 A 
ATOM     25  C   UNL     1       7.054  -4.653  -8.701  0.00  0.00    +0.113 A 
ATOM     26  C   UNL     1       7.345  -4.347 -10.027  0.00  0.00    +0.129 A 
ATOM     27  N   UNL     1       6.357  -3.544 -10.475  0.00  0.00    -0.263 N 
ATOM     28  H   UNL     1       6.380  -3.170 -11.509  0.00  0.00    +0.190 HD
ATOM     29  N   UNL     1       5.441  -3.346  -9.437  0.00  0.00    -0.176 NA
BRANCH  26  30
ATOM     30  N   UNL     1       8.439  -4.784 -10.749  0.00  0.00    -0.342 N 
ATOM     31  H   UNL     1       8.565  -4.475 -11.798  0.00  0.00    +0.144 HD
ATOM     32  H   UNL     1       9.184  -5.440 -10.276  0.00  0.00    +0.144 HD
ENDBRANCH  26  30
BRANCH  25  33
ATOM     33  C   UNL     1       7.831  -5.479  -7.827  0.00  0.00    +0.104 C 
ATOM     34  N   UNL     1       8.448  -6.135  -7.134  0.00  0.00    -0.191 NA
ENDBRANCH  25  33
ENDBRANCH  23  24
ENDBRANCH  22  23
ENDBRANCH  21  22
ENDBRANCH  19  21
ENDBRANCH   3  19
TORSDOF 10
