REMARK  Name = ZINC35863634
REMARK  5 active torsions:
REMARK  status: ('A' for Active; 'I' for Inactive)
REMARK    1  A    between atoms: N_10  and  C_13
REMARK    2  A    between atoms: C_13  and  C_14
REMARK    3  A    between atoms: N_17  and  C_21
REMARK    4  A    between atoms: C_21  and  N_23
REMARK    5  A    between atoms: N_23  and  C_24
REMARK                            x       y       z     vdW  Elec       q    Type
REMARK                         _______ _______ _______ _____ _____    ______ ____
ROOT
ATOM      1  C   UNL     1       0.377  -6.741   1.764  0.00  0.00    +0.119 C 
ATOM      2  C   UNL     1       0.418  -7.780   2.889  0.00  0.00    +0.136 C 
ATOM      3  N   UNL     1      -0.611  -8.797   2.620  0.00  0.00    -0.308 N 
ATOM      4  C   UNL     1      -0.642  -9.412   1.283  0.00  0.00    +0.135 C 
ATOM      5  C   UNL     1      -0.631  -8.293   0.236  0.00  0.00    +0.179 C 
ATOM      6  O   UNL     1       0.460  -7.408   0.502  0.00  0.00    -0.375 OA
ENDROOT
BRANCH   3   7
ATOM      7  C   UNL     1      -1.498  -9.155   3.569  0.00  0.00    +0.137 C 
ATOM      8  S   UNL     1      -1.524  -8.333   5.070  0.00  0.00    -0.018 S 
BRANCH   7   9
ATOM      9  N   UNL     1      -2.366 -10.159   3.336  0.00  0.00    -0.297 N 
ATOM     10  H   UNL     1      -3.284  -9.961   3.091  0.00  0.00    +0.154 HD
BRANCH   9  11
ATOM     11  C   UNL     1      -1.943 -11.490   3.446  0.00  0.00    +0.033 A 
ATOM     12  C   UNL     1      -0.609 -11.776   3.700  0.00  0.00    +0.026 A 
ATOM     13  C   UNL     1      -0.193 -13.089   3.809  0.00  0.00    +0.040 A 
ATOM     14  C   UNL     1      -1.107 -14.119   3.665  0.00  0.00    +0.124 A 
ATOM     15  C   UNL     1      -2.439 -13.836   3.412  0.00  0.00    +0.040 A 
ATOM     16  C   UNL     1      -2.859 -12.524   3.308  0.00  0.00    +0.026 A 
ATOM     17  F   UNL     1      -0.699 -15.402   3.772  0.00  0.00    -0.205 F 
ENDBRANCH   9  11
ENDBRANCH   7   9
ENDBRANCH   3   7
BRANCH   1  18
ATOM     18  C   UNL     1       1.559  -5.780   1.912  0.00  0.00    -0.045 C 
BRANCH  18  28
ATOM     19  C   UNL     1       2.446   1.392  -0.058  0.00  0.00    +0.005 A 
ATOM     20  C   UNL     1       1.205   2.017  -0.064  0.00  0.00    +0.018 A 
ATOM     21  C   UNL     1       0.060   1.246  -0.066  0.00  0.00    +0.084 A 
ATOM     22  N   UNL     1       0.132  -0.072  -0.063  0.00  0.00    -0.350 N 
ATOM     23  C   UNL     1       1.295  -0.704  -0.057  0.00  0.00    +0.099 A 
ATOM     24  C   UNL     1       2.489   0.010  -0.054  0.00  0.00    +0.042 A 
ATOM     25  N   UNL     1       1.323  -2.094  -0.053  0.00  0.00    -0.320 N 
ATOM     26  C   UNL     1       2.596  -2.825  -0.154  0.00  0.00    +0.088 C 
ATOM     27  C   UNL     1       2.650  -3.865   0.970  0.00  0.00    -0.059 C 
ATOM     28  N   UNL     1       1.455  -4.716   0.905  0.00  0.00    +0.383 N 
ATOM     29  C   UNL     1       0.254  -3.913   1.167  0.00  0.00    -0.059 C 
ATOM     30  C   UNL     1       0.082  -2.876   0.058  0.00  0.00    +0.088 C 
ATOM     31  H   UNL     1      -0.689  -0.590  -0.065  0.00  0.00    +0.166 HD
ATOM     32  H   UNL     1       1.388  -5.130  -0.013  0.00  0.00    -0.082 HD
ENDBRANCH  18  28
ENDBRANCH   1  18
TORSDOF 5
