REMARK  Name = ZINC45873047
REMARK  11 active torsions:
REMARK  status: ('A' for Active; 'I' for Inactive)
REMARK    1  A    between atoms: C_1  and  C_2
REMARK    2  A    between atoms: C_6  and  O_9
REMARK    3  A    between atoms: C_7  and  C_8
REMARK    4  A    between atoms: O_9  and  C_10
REMARK    5  A    between atoms: C_10  and  C_12
REMARK    6  A    between atoms: C_10  and  C_13
REMARK    7  A    between atoms: N_15  and  N_16
REMARK    8  A    between atoms: C_17  and  C_19
REMARK    9  A    between atoms: C_19  and  N_24
REMARK   10  A    between atoms: N_27  and  C_28
REMARK   11  A    between atoms: C_28  and  C_29
REMARK                            x       y       z     vdW  Elec       q    Type
REMARK                         _______ _______ _______ _____ _____    ______ ____
ROOT
ATOM      1  N   UNL     1       0.502  -7.855   4.731  0.00  0.00    -0.233 N 
ATOM      2  C   UNL     1       1.694  -8.433   4.480  0.00  0.00    +0.253 C 
ATOM      3  O   UNL     1       2.172  -8.377   3.367  0.00  0.00    -0.272 OA
ATOM      4  H   UNL     1       0.153  -7.836   5.636  0.00  0.00    +0.173 HD
ENDROOT
BRANCH   2   5
ATOM      5  C   UNL     1       2.431  -9.148   5.583  0.00  0.00    +0.113 C 
ATOM      6  C   UNL     1       3.932  -9.243   5.239  0.00  0.00    +0.035 C 
ATOM      7  C   UNL     1       4.355 -10.636   5.769  0.00  0.00    +0.003 C 
ATOM      8  C   UNL     1       3.123 -11.515   5.439  0.00  0.00    +0.003 C 
ATOM      9  C   UNL     1       1.917 -10.593   5.710  0.00  0.00    +0.035 C 
BRANCH   5  10
ATOM     10  N   UNL     1       2.249  -8.437   6.851  0.00  0.00    -0.285 N 
ATOM     11  C   UNL     1       2.625  -7.147   6.960  0.00  0.00    +0.301 C 
ATOM     12  O   UNL     1       3.025  -6.546   5.982  0.00  0.00    -0.253 OA
ATOM     13  N   UNL     1       2.557  -6.525   8.154  0.00  0.00    -0.295 N 
ATOM     14  H   UNL     1       1.859  -8.895   7.612  0.00  0.00    +0.151 HD
ATOM     15  H   UNL     1       2.238  -7.005   8.934  0.00  0.00    +0.151 HD
BRANCH  13  16
ATOM     16  C   UNL     1       2.965  -5.123   8.273  0.00  0.00    +0.141 C 
BRANCH  16  17
ATOM     17  C   UNL     1       2.794  -4.669   9.699  0.00  0.00    -0.030 A 
ATOM     18  C   UNL     1       1.594  -4.119  10.110  0.00  0.00    +0.005 A 
ATOM     19  C   UNL     1       1.437  -3.703  11.419  0.00  0.00    +0.000 A 
ATOM     20  C   UNL     1       2.479  -3.837  12.317  0.00  0.00    +0.000 A 
ATOM     21  C   UNL     1       3.679  -4.387  11.906  0.00  0.00    +0.000 A 
ATOM     22  C   UNL     1       3.834  -4.808  10.598  0.00  0.00    +0.005 A 
ENDBRANCH  16  17
ENDBRANCH  13  16
ENDBRANCH   5  10
ENDBRANCH   2   5
BRANCH   1  25
ATOM     23  C   UNL     1      -1.424  -6.704   3.935  0.00  0.00    +0.270 C 
ATOM     24  O   UNL     1      -1.861  -6.680   5.067  0.00  0.00    -0.270 OA
ATOM     25  N   UNL     1      -0.232  -7.281   3.685  0.00  0.00    -0.231 N 
ATOM     26  H   UNL     1       0.117  -7.300   2.780  0.00  0.00    +0.173 HD
BRANCH  23  27
ATOM     27  C   UNL     1      -2.214  -6.086   2.810  0.00  0.00    +0.257 C 
ATOM     28  C   UNL     1      -2.641  -7.179   1.828  0.00  0.00    +0.062 C 
BRANCH  27  29
ATOM     29  O   UNL     1      -3.374  -5.442   3.340  0.00  0.00    -0.480 OA
BRANCH  29  35
ATOM     30  C   UNL     1      -6.919  -2.148   2.704  0.00  0.00    +0.044 C 
ATOM     31  C   UNL     1      -5.652  -2.825   2.247  0.00  0.00    -0.044 A 
ATOM     32  C   UNL     1      -5.052  -2.439   1.063  0.00  0.00    +0.004 A 
ATOM     33  C   UNL     1      -3.890  -3.058   0.640  0.00  0.00    +0.004 A 
ATOM     34  C   UNL     1      -3.326  -4.064   1.401  0.00  0.00    +0.046 A 
ATOM     35  C   UNL     1      -3.926  -4.452   2.590  0.00  0.00    +0.125 A 
ATOM     36  C   UNL     1      -5.089  -3.826   3.014  0.00  0.00    -0.006 A 
ATOM     37  C   UNL     1      -5.741  -4.241   4.308  0.00  0.00    +0.048 C 
ENDBRANCH  29  35
ENDBRANCH  27  29
ENDBRANCH  23  27
ENDBRANCH   1  25
TORSDOF 8
