REMARK  Name = ZINC53102999
REMARK  4 active torsions:
REMARK  status: ('A' for Active; 'I' for Inactive)
REMARK    1  A    between atoms: C_1  and  N_2
REMARK    2  A    between atoms: C_5  and  C_25
REMARK    3  A    between atoms: C_15  and  C_16
REMARK    4  A    between atoms: C_18  and  N_21
REMARK                            x       y       z     vdW  Elec       q    Type
REMARK                         _______ _______ _______ _____ _____    ______ ____
ROOT
ATOM      1  C   UNL     1       0.216   1.165  -0.412  0.00  0.00    -0.095 C 
ATOM      2  N   UNL     1       0.533  -0.256  -0.217  0.00  0.00    +0.383 N 
ATOM      3  C   UNL     1       1.742  -0.592  -0.970  0.00  0.00    -0.040 C 
ATOM      4  C   UNL     1       2.144  -2.023  -0.748  0.00  0.00    -0.024 A 
ATOM      5  C   UNL     1       2.930  -2.669  -1.692  0.00  0.00    +0.076 A 
ATOM      6  C   UNL     1       3.297  -4.062  -1.425  0.00  0.00    +0.015 A 
ATOM      7  C   UNL     1       4.085  -4.793  -2.319  0.00  0.00    +0.011 A 
ATOM      8  C   UNL     1       4.405  -6.088  -2.033  0.00  0.00    +0.001 A 
ATOM      9  C   UNL     1       3.955  -6.692  -0.862  0.00  0.00    +0.002 A 
ATOM     10  C   UNL     1       3.186  -6.009   0.030  0.00  0.00    +0.028 A 
ATOM     11  C   UNL     1       2.836  -4.671  -0.231  0.00  0.00    +0.072 A 
ATOM     12  N   UNL     1       2.083  -3.978   0.624  0.00  0.00    -0.247 NA
ATOM     13  C   UNL     1       1.738  -2.723   0.406  0.00  0.00    +0.068 A 
ATOM     14  C   UNL     1       0.895  -2.014   1.394  0.00  0.00    -0.038 C 
ATOM     15  C   UNL     1       0.290  -2.669   2.403  0.00  0.00    +0.012 C 
ATOM     16  C   UNL     1       0.743  -0.517   1.217  0.00  0.00    -0.041 C 
ATOM     17  H   UNL     1      -0.235  -0.819  -0.550  0.00  0.00    -0.081 HD
ENDROOT
BRANCH  15  18
ATOM     18  C   UNL     1       0.267  -4.140   2.416  0.00  0.00    -0.016 A 
ATOM     19  C   UNL     1       0.509  -4.888   3.625  0.00  0.00    +0.048 A 
ATOM     20  C   UNL     1       0.459  -6.231   3.503  0.00  0.00    +0.164 A 
ATOM     21  S   UNL     1       0.089  -6.465   1.778  0.00  0.00    -0.072 S 
ATOM     22  C   UNL     1       0.007  -4.866   1.276  0.00  0.00    +0.055 A 
BRANCH  20  23
ATOM     23  N   UNL     1       0.661  -7.259   4.549  0.00  0.00    +0.063 N 
ATOM     24  O   UNL     1       0.908  -6.925   5.685  0.00  0.00    -0.126 OA
ATOM     25  O   UNL     1       0.580  -8.432   4.268  0.00  0.00    -0.126 OA
ENDBRANCH  20  23
ENDBRANCH  15  18
BRANCH   5  26
ATOM     26  C   UNL     1       3.378  -1.980  -2.918  0.00  0.00    +0.387 C 
ATOM     27  O   UNL     1       4.389  -1.293  -2.898  0.00  0.00    -0.241 OA
ATOM     28  O   UNL     1       2.737  -2.095  -3.953  0.00  0.00    -0.241 OA
ENDBRANCH   5  26
TORSDOF 3
