REMARK  Name = ZINC38122590
REMARK  5 active torsions:
REMARK  status: ('A' for Active; 'I' for Inactive)
REMARK    1  A    between atoms: C_2  and  CA_11
REMARK    2  A    between atoms: CA_11  and  C_13
REMARK    3  A    between atoms: CA_11  and  N_15
REMARK    4  A    between atoms: C_13  and  O_14
REMARK    5  A    between atoms: N_15  and  C_16
REMARK                            x       y       z     vdW  Elec       q    Type
REMARK                         _______ _______ _______ _____ _____    ______ ____
ROOT
ATOM      1  CA  UNL     1       1.083   3.526   0.065  0.00  0.00    -0.015 C 
ENDROOT
BRANCH   1   3
ATOM      2  C   UNL     1       0.247   1.168   0.140  0.00  0.00    +0.051 A 
ATOM      3  C   UNL     1       1.320   2.038   0.070  0.00  0.00    -0.054 A 
ATOM      4  C   UNL     1       2.610   1.545   0.004  0.00  0.00    +0.021 A 
ATOM      5  C   UNL     1       2.833   0.180   0.007  0.00  0.00    +0.063 A 
ATOM      6  C   UNL     1       1.762  -0.697   0.077  0.00  0.00    +0.180 A 
ATOM      7  C   UNL     1       0.463  -0.200   0.144  0.00  0.00    +0.168 A 
ATOM      8  O   UNL     1      -0.404  -1.253   0.204  0.00  0.00    -0.453 OA
ATOM      9  C   UNL     1       0.349  -2.397  -0.237  0.00  0.00    +0.466 C 
ATOM     10  O   UNL     1       1.709  -2.061   0.096  0.00  0.00    -0.451 OA
ATOM     11 BR   UNL     1       4.599  -0.490  -0.083  0.00  0.00    -0.046 Br
ENDBRANCH   1   3
BRANCH   1  12
ATOM     12  N   UNL     1       2.101   4.187   0.892  0.00  0.00    +0.387 N 
ATOM     13  H1  UNL     1       2.110   3.770   1.811  0.00  0.00    -0.085 HD
ATOM     14  H2  UNL     1       3.007   4.075   0.463  0.00  0.00    -0.085 HD
BRANCH  12  15
ATOM     15  C   UNL     1       1.786   5.617   1.006  0.00  0.00    -0.071 C 
ATOM     16  C   UNL     1       2.974   6.338   1.676  0.00  0.00    -0.016 C 
ATOM     17  C   UNL     1       2.894   7.803   1.340  0.00  0.00    -0.002 C 
ATOM     18  C   UNL     1       2.160   8.617   2.423  0.00  0.00    -0.000 C 
ATOM     19  C   UNL     1       0.907   7.901   2.962  0.00  0.00    -0.000 C 
ATOM     20  C   UNL     1       0.106   7.242   1.871  0.00  0.00    -0.002 C 
ATOM     21  C   UNL     1       0.549   5.769   1.759  0.00  0.00    -0.016 C 
ENDBRANCH  12  15
ENDBRANCH   1  12
BRANCH   1  22
ATOM     22  C   UNL     1       1.171   4.052  -1.369  0.00  0.00    +0.144 C 
BRANCH  22  23
ATOM     23  O   UNL     1       2.436   3.696  -1.930  0.00  0.00    -0.396 OA
ATOM     24  H   UNL     1       2.562   3.998  -2.840  0.00  0.00    +0.209 HD
ENDBRANCH  22  23
ENDBRANCH   1  22
TORSDOF 5
