REMARK  Name = ZINC36598221
REMARK  13 active torsions:
REMARK  status: ('A' for Active; 'I' for Inactive)
REMARK    1  A    between atoms: C_1  and  C_2
REMARK    2  A    between atoms: C_5  and  C_7
REMARK    3  A    between atoms: C_7  and  N_8
REMARK    4  A    between atoms: N_8  and  C_9
REMARK    5  A    between atoms: C_9  and  C_11
REMARK    6  A    between atoms: C_9  and  C_20
REMARK    7  A    between atoms: C_12  and  O_19
REMARK    8  A    between atoms: C_14  and  O_18
REMARK    9  A    between atoms: C_16  and  O_17
REMARK   10  A    between atoms: N_22  and  C_23
REMARK   11  A    between atoms: C_29  and  C_31
REMARK   12  A    between atoms: C_31  and  C_32
REMARK   13  A    between atoms: C_32  and  S_33
REMARK                            x       y       z     vdW  Elec       q    Type
REMARK                         _______ _______ _______ _____ _____    ______ ____
ROOT
ATOM      1  C   UNL     1       3.135  -3.138  -2.271  0.00  0.00    +0.200 C 
ENDROOT
BRANCH   1   2
ATOM      2  C   UNL     1       2.188  -2.835  -3.404  0.00  0.00    +0.065 A 
ATOM      3  C   UNL     1       2.331  -3.486  -4.620  0.00  0.00    +0.129 A 
ATOM      4  C   UNL     1       1.460  -3.207  -5.662  0.00  0.00    +0.091 A 
ATOM      5  C   UNL     1       0.445  -2.278  -5.488  0.00  0.00    +0.124 A 
ATOM      6  C   UNL     1       0.301  -1.628  -4.271  0.00  0.00    +0.091 A 
ATOM      7  C   UNL     1       1.170  -1.910  -3.228  0.00  0.00    +0.129 A 
BRANCH   7   8
ATOM      8  O   UNL     1       1.026  -1.277  -2.034  0.00  0.00    -0.506 OA
ATOM      9  H   UNL     1       1.459  -0.413  -1.993  0.00  0.00    +0.292 HD
ENDBRANCH   7   8
BRANCH   5  10
ATOM     10  O   UNL     1      -0.408  -2.004  -6.510  0.00  0.00    -0.507 OA
ATOM     11  H   UNL     1      -1.194  -2.567  -6.527  0.00  0.00    +0.292 HD
ENDBRANCH   5  10
BRANCH   3  12
ATOM     12  O   UNL     1       3.326  -4.396  -4.790  0.00  0.00    -0.506 OA
ATOM     13  H   UNL     1       3.047  -5.312  -4.655  0.00  0.00    +0.292 HD
ENDBRANCH   3  12
ENDBRANCH   1   2
BRANCH   1  14
ATOM     14  C   UNL     1       3.968  -4.344  -2.621  0.00  0.00    +0.239 C 
ATOM     15  O   UNL     1       3.552  -5.458  -2.384  0.00  0.00    -0.273 OA
ATOM     16  N   UNL     1       5.175  -4.184  -3.199  0.00  0.00    -0.311 N 
ATOM     17  H   UNL     1       5.537  -3.293  -3.327  0.00  0.00    +0.149 HD
BRANCH  16  18
ATOM     18  C   UNL     1       5.940  -5.355  -3.634  0.00  0.00    +0.073 C 
ATOM     19  C   UNL     1       6.741  -5.908  -2.453  0.00  0.00    +0.022 C 
ATOM     20  C   UNL     1       7.540  -7.131  -2.908  0.00  0.00    +0.002 C 
ATOM     21  C   UNL     1       8.498  -6.726  -4.029  0.00  0.00    +0.000 C 
ATOM     22  C   UNL     1       7.697  -6.174  -5.210  0.00  0.00    +0.002 C 
ATOM     23  C   UNL     1       6.898  -4.950  -4.756  0.00  0.00    +0.022 C 
ENDBRANCH  16  18
ENDBRANCH   1  14
BRANCH   1  24
ATOM     24  N   UNL     1       2.367  -3.412  -1.053  0.00  0.00    -0.278 N 
ATOM     25  C   UNL     1       1.359  -4.306  -1.079  0.00  0.00    +0.218 C 
ATOM     26  O   UNL     1       1.022  -4.810  -2.129  0.00  0.00    -0.276 OA
BRANCH  24  27
ATOM     27  C   UNL     1       2.696  -2.714   0.192  0.00  0.00    +0.183 C 
BRANCH  27  32
ATOM     28  C   UNL     1       1.047   2.049   0.011  0.00  0.00    +0.086 C 
ATOM     29  C   UNL     1       1.089   0.564   0.263  0.00  0.00    +0.102 A 
ATOM     30  C   UNL     1       0.102  -0.170   0.807  0.00  0.00    +0.045 A 
ATOM     31  C   UNL     1       0.564  -1.505   0.858  0.00  0.00    +0.046 A 
ATOM     32  C   UNL     1       1.806  -1.507   0.342  0.00  0.00    +0.122 A 
ATOM     33  O   UNL     1       2.117  -0.252  -0.022  0.00  0.00    -0.463 OA
ENDBRANCH  27  32
ENDBRANCH  24  27
BRANCH  25  34
ATOM     34  C   UNL     1       0.650  -4.679   0.198  0.00  0.00    +0.106 C 
BRANCH  34  35
ATOM     35  C   UNL     1      -0.444  -5.704  -0.107  0.00  0.00    +0.075 C 
BRANCH  35  36
ATOM     36  S   UNL     1      -1.298  -6.152   1.429  0.00  0.00    -0.178 S 
ATOM     37  H   UNL     1      -2.224  -7.046   1.038  0.00  0.00    +0.102 HD
ENDBRANCH  35  36
ENDBRANCH  34  35
ENDBRANCH  25  34
ENDBRANCH   1  24
TORSDOF 12
