REMARK  Name = ZINC04812811
REMARK  7 active torsions:
REMARK  status: ('A' for Active; 'I' for Inactive)
REMARK    1  A    between atoms: C_1  and  O_2
REMARK    2  A    between atoms: O_2  and  C_3
REMARK    3  A    between atoms: C_6  and  C_10
REMARK    4  A    between atoms: C_8  and  O_9
REMARK    5  A    between atoms: C_13  and  C_24
REMARK    6  A    between atoms: C_19  and  N_23
REMARK    7  A    between atoms: C_20  and  C_21
REMARK                            x       y       z     vdW  Elec       q    Type
REMARK                         _______ _______ _______ _____ _____    ______ ____
ROOT
ATOM      1  C   UNL     1       2.541  -2.602  -4.461  0.00  0.00    +0.102 C 
ATOM      2  C   UNL     1       3.928  -2.023  -4.565  0.00  0.00    +0.054 A 
ATOM      3  C   UNL     1       5.037  -2.228  -3.738  0.00  0.00    +0.100 A 
ATOM      4  N   UNL     1       6.037  -1.513  -4.216  0.00  0.00    -0.171 NA
ATOM      5  N   UNL     1       5.589  -0.835  -5.360  0.00  0.00    -0.246 N 
ATOM      6  H   UNL     1       6.117  -0.237  -5.912  0.00  0.00    +0.192 HD
ATOM      7  C   UNL     1       4.295  -1.161  -5.557  0.00  0.00    +0.223 A 
ATOM      8  O   UNL     1       3.441  -0.759  -6.531  0.00  0.00    -0.423 OA
ATOM      9  C   UNL     1       2.284  -1.440  -6.667  0.00  0.00    +0.200 C 
ATOM     10  C   UNL     1       1.810  -2.311  -5.748  0.00  0.00    +0.098 C 
ENDROOT
BRANCH   1  14
ATOM     11  C   UNL     1       0.467  -0.795  -1.187  0.00  0.00    +0.161 A 
ATOM     12  C   UNL     1       1.004  -0.006  -2.191  0.00  0.00    +0.050 A 
ATOM     13  C   UNL     1       1.674  -0.593  -3.248  0.00  0.00    +0.008 A 
ATOM     14  C   UNL     1       1.810  -1.967  -3.306  0.00  0.00    -0.031 A 
ATOM     15  C   UNL     1       1.276  -2.761  -2.308  0.00  0.00    +0.053 A 
ATOM     16  C   UNL     1       0.608  -2.178  -1.242  0.00  0.00    +0.159 A 
BRANCH  11  18
ATOM     17  C   UNL     1      -0.299   1.206  -0.155  0.00  0.00    +0.277 C 
ATOM     18  O   UNL     1      -0.192  -0.219  -0.146  0.00  0.00    -0.491 OA
ENDBRANCH  11  18
BRANCH  16  19
ATOM     19  O   UNL     1       0.088  -2.957  -0.257  0.00  0.00    -0.503 OA
ATOM     20  H   UNL     1      -0.822  -3.242  -0.419  0.00  0.00    +0.292 HD
ENDBRANCH  16  19
ENDBRANCH   1  14
BRANCH   3  21
ATOM     21  C   UNL     1       5.080  -3.096  -2.535  0.00  0.00    +0.003 A 
ATOM     22  C   UNL     1       5.726  -2.659  -1.380  0.00  0.00    +0.010 A 
ATOM     23  C   UNL     1       5.763  -3.470  -0.264  0.00  0.00    +0.001 A 
ATOM     24  C   UNL     1       5.160  -4.715  -0.291  0.00  0.00    +0.000 A 
ATOM     25  C   UNL     1       4.518  -5.154  -1.434  0.00  0.00    +0.001 A 
ATOM     26  C   UNL     1       4.469  -4.348  -2.554  0.00  0.00    +0.010 A 
ENDBRANCH   3  21
BRANCH   9  27
ATOM     27  N   UNL     1       1.545  -1.236  -7.806  0.00  0.00    -0.328 N 
ATOM     28  H   UNL     1       1.858  -0.618  -8.484  0.00  0.00    +0.145 HD
ATOM     29  H   UNL     1       0.708  -1.711  -7.932  0.00  0.00    +0.145 HD
ENDBRANCH   9  27
BRANCH  10  30
ATOM     30  C   UNL     1       0.571  -2.980  -6.004  0.00  0.00    +0.101 C 
ATOM     31  N   UNL     1      -0.413  -3.511  -6.208  0.00  0.00    -0.191 NA
ENDBRANCH  10  30
TORSDOF 6
