REMARK  Name = ZINC13120163
REMARK  3 active torsions:
REMARK  status: ('A' for Active; 'I' for Inactive)
REMARK    1  A    between atoms: C_10  and  C_11
REMARK    2  A    between atoms: C_13  and  C_17
REMARK    3  A    between atoms: N_18  and  C_19
REMARK                            x       y       z     vdW  Elec       q    Type
REMARK                         _______ _______ _______ _____ _____    ______ ____
ROOT
ATOM      1  C   UNL     1       4.944   0.132  -0.044  0.00  0.00    +0.233 A 
ATOM      2  N   UNL     1       6.006  -0.183  -0.743  0.00  0.00    -0.204 NA
ATOM      3  C   UNL     1       6.975   0.737  -0.497  0.00  0.00    +0.170 A 
ATOM      4  C   UNL     1       6.445   1.650   0.404  0.00  0.00    +0.366 A 
ATOM      5  O   UNL     1       5.187   1.253   0.661  0.00  0.00    -0.402 OA
ATOM      6  O   UNL     1       7.072   2.732   0.919  0.00  0.00    -0.243 OA
ENDROOT
BRANCH   1  16
ATOM      7  C   UNL     1      -0.006   1.335  -0.445  0.00  0.00    +0.001 A 
ATOM      8  C   UNL     1       1.179   2.067  -0.456  0.00  0.00    +0.001 A 
ATOM      9  C   UNL     1       2.386   1.449  -0.324  0.00  0.00    +0.009 A 
ATOM     10  C   UNL     1       2.440   0.056  -0.176  0.00  0.00    -0.006 A 
ATOM     11  C   UNL     1       1.236  -0.691  -0.165  0.00  0.00    -0.017 A 
ATOM     12  C   UNL     1       0.009  -0.019  -0.303  0.00  0.00    +0.008 A 
ATOM     13  C   UNL     1       1.289  -2.087  -0.016  0.00  0.00    +0.008 A 
ATOM     14  C   UNL     1       2.491  -2.716   0.117  0.00  0.00    +0.001 A 
ATOM     15  C   UNL     1       3.682  -2.001   0.109  0.00  0.00    +0.014 A 
ATOM     16  C   UNL     1       3.677  -0.621  -0.036  0.00  0.00    +0.045 A 
ENDBRANCH   1  16
BRANCH   3  17
ATOM     17  C   UNL     1       8.319   0.761  -1.073  0.00  0.00    +0.148 C 
ATOM     18  N   UNL     1       8.688  -0.171  -1.917  0.00  0.00    -0.228 NA
BRANCH  18  19
ATOM     19  C   UNL     1       9.937  -0.149  -2.451  0.00  0.00    +0.193 A 
ATOM     20  N   UNL     1      10.926   0.715  -2.247  0.00  0.00    -0.230 NA
ATOM     21  C   UNL     1      12.082   0.580  -2.857  0.00  0.00    +0.121 A 
ATOM     22  C   UNL     1      12.280  -0.457  -3.712  0.00  0.00    +0.068 A 
ATOM     23  S   UNL     1      10.695  -1.278  -3.611  0.00  0.00    -0.056 S 
ENDBRANCH  18  19
ENDBRANCH   3  17
TORSDOF 3
