REMARK  Name = ZINC62239796
REMARK  8 active torsions:
REMARK  status: ('A' for Active; 'I' for Inactive)
REMARK    1  A    between atoms: C_1  and  C_2
REMARK    2  A    between atoms: C_2  and  C_3
REMARK    3  A    between atoms: C_2  and  N_11
REMARK    4  A    between atoms: N_11  and  C_12
REMARK    5  A    between atoms: C_12  and  C_13
REMARK    6  A    between atoms: C_12  and  C_14
REMARK    7  A    between atoms: N_16  and  C_17
REMARK    8  A    between atoms: C_22  and  C_23
REMARK                            x       y       z     vdW  Elec       q    Type
REMARK                         _______ _______ _______ _____ _____    ______ ____
ROOT
ATOM      1  C   UNL     1      -0.237  -0.532  -2.345  0.00  0.00    +0.138 C 
ATOM      2  C   UNL     1      -0.985  -1.867  -2.314  0.00  0.00    +0.034 C 
ENDROOT
BRANCH   1   3
ATOM      3  C   UNL     1       0.540  -0.422  -3.631  0.00  0.00    +0.234 C 
ATOM      4  O   UNL     1       1.747  -0.298  -3.602  0.00  0.00    -0.274 OA
ATOM      5  N   UNL     1      -0.104  -0.463  -4.814  0.00  0.00    -0.283 N 
ATOM      6  H   UNL     1      -1.057  -0.642  -4.842  0.00  0.00    +0.155 HD
BRANCH   5   7
ATOM      7  C   UNL     1       0.599  -0.246  -5.999  0.00  0.00    +0.051 A 
ATOM      8  C   UNL     1       1.775   0.491  -5.987  0.00  0.00    +0.024 A 
ATOM      9  C   UNL     1       2.469   0.705  -7.161  0.00  0.00    +0.002 A 
ATOM     10  C   UNL     1       2.001   0.186  -8.357  0.00  0.00    +0.001 A 
ATOM     11  C   UNL     1       0.835  -0.548  -8.388  0.00  0.00    +0.021 A 
ATOM     12  C   UNL     1       0.124  -0.778  -7.207  0.00  0.00    +0.073 A 
BRANCH  12  13
ATOM     13  C   UNL     1      -1.084  -1.545  -7.231  0.00  0.00    +0.101 C 
ATOM     14  N   UNL     1      -2.043  -2.154  -7.250  0.00  0.00    -0.191 NA
ENDBRANCH  12  13
ENDBRANCH   5   7
ENDBRANCH   1   3
BRANCH   1  15
ATOM     15  N   UNL     1       0.687  -0.462  -1.206  0.00  0.00    -0.299 NA
ATOM     16  H   UNL     1       1.486   0.115  -1.424  0.00  0.00    +0.123 HD
BRANCH  15  18
ATOM     17  C   UNL     1      -0.011   1.553  -0.001  0.00  0.00    +0.029 C 
ATOM     18  C   UNL     1       0.002   0.023  -0.001  0.00  0.00    +0.081 C 
BRANCH  18  19
ATOM     19  C   UNL     1       0.727  -0.474   1.224  0.00  0.00    -0.029 A 
ATOM     20  C   UNL     1       2.109  -0.492   1.248  0.00  0.00    +0.008 A 
ATOM     21  C   UNL     1       2.776  -0.946   2.370  0.00  0.00    +0.040 A 
ATOM     22  C   UNL     1       2.059  -1.384   3.470  0.00  0.00    +0.142 A 
ATOM     23  C   UNL     1       0.674  -1.366   3.446  0.00  0.00    +0.076 A 
ATOM     24  C   UNL     1       0.009  -0.905   2.323  0.00  0.00    +0.028 A 
ATOM     25 CL   UNL     1      -0.227  -1.914   4.825  0.00  0.00    -0.081 Cl
ATOM     26  F   UNL     1       2.710  -1.829   4.567  0.00  0.00    -0.204 F 
ENDBRANCH  18  19
ENDBRANCH  15  18
ENDBRANCH   1  15
TORSDOF 6
