REMARK  Name = ZINC54683242
REMARK  6 active torsions:
REMARK  status: ('A' for Active; 'I' for Inactive)
REMARK    1  A    between atoms: C_1  and  C_2
REMARK    2  A    between atoms: C_2  and  C_3
REMARK    3  A    between atoms: C_2  and  C_4
REMARK    4  A    between atoms: C_2  and  C_5
REMARK    5  A    between atoms: C_6  and  C_11
REMARK    6  A    between atoms: N_22  and  C_23
REMARK                            x       y       z     vdW  Elec       q    Type
REMARK                         _______ _______ _______ _____ _____    ______ ____
ROOT
ATOM      1  C   UNL     1       0.351  -2.833  -1.058  0.00  0.00    +0.195 C 
ATOM      2  N   UNL     1      -0.877  -2.467  -0.342  0.00  0.00    -0.321 N 
ATOM      3  C   UNL     1      -2.038  -2.261  -1.079  0.00  0.00    +0.042 A 
ATOM      4  C   UNL     1      -3.023  -1.383  -0.664  0.00  0.00    +0.043 A 
ATOM      5  C   UNL     1      -4.157  -1.211  -1.437  0.00  0.00    +0.043 A 
ATOM      6  C   UNL     1      -4.312  -1.910  -2.626  0.00  0.00    +0.021 A 
ATOM      7  C   UNL     1      -3.340  -2.791  -3.052  0.00  0.00    +0.016 A 
ATOM      8  C   UNL     1      -2.195  -2.975  -2.281  0.00  0.00    +0.058 A 
ATOM      9  C   UNL     1      -1.131  -3.911  -2.685  0.00  0.00    +0.250 C 
ATOM     10  O   UNL     1      -1.329  -4.724  -3.567  0.00  0.00    -0.270 OA
ATOM     11  N   UNL     1       0.063  -3.854  -2.065  0.00  0.00    -0.278 N 
ATOM     12  C   UNL     1       1.094  -4.835  -2.410  0.00  0.00    +0.134 C 
ATOM     13 CL   UNL     1      -5.395  -0.110  -0.918  0.00  0.00    -0.083 Cl
ATOM     14  H   UNL     1      -0.879  -2.370   0.623  0.00  0.00    +0.148 HD
ENDROOT
BRANCH   1  16
ATOM     15  C   UNL     1       1.769  -0.668  -1.148  0.00  0.00    +0.075 A 
ATOM     16  C   UNL     1       0.919  -1.611  -1.733  0.00  0.00    +0.032 A 
ATOM     17  C   UNL     1       0.696  -1.234  -3.013  0.00  0.00    +0.112 A 
ATOM     18  N   UNL     1       1.381  -0.092  -3.231  0.00  0.00    -0.284 N 
ATOM     19  H   UNL     1       1.407   0.409  -4.061  0.00  0.00    +0.188 HD
ATOM     20  N   UNL     1       2.043   0.246  -2.043  0.00  0.00    -0.178 NA
BRANCH  15  22
ATOM     21  C   UNL     1       3.048   0.594   0.561  0.00  0.00    +0.017 C 
ATOM     22  C   UNL     1       2.278  -0.696   0.270  0.00  0.00    +0.007 C 
ATOM     23  C   UNL     1       3.206  -1.897   0.456  0.00  0.00    +0.017 C 
ATOM     24  C   UNL     1       1.095  -0.812   1.234  0.00  0.00    +0.017 C 
ENDBRANCH  15  22
ENDBRANCH   1  16
TORSDOF 2
