REMARK  Name = ZINC67582721
REMARK  9 active torsions:
REMARK  status: ('A' for Active; 'I' for Inactive)
REMARK    1  A    between atoms: C_1  and  C_2
REMARK    2  A    between atoms: N_5  and  C_8
REMARK    3  A    between atoms: C_8  and  C_9
REMARK    4  A    between atoms: C_9  and  C_11
REMARK    5  A    between atoms: C_9  and  O_26
REMARK    6  A    between atoms: C_11  and  N_12
REMARK    7  A    between atoms: N_15  and  C_16
REMARK    8  A    between atoms: C_16  and  C_18
REMARK    9  A    between atoms: C_16  and  C_19
REMARK                            x       y       z     vdW  Elec       q    Type
REMARK                         _______ _______ _______ _____ _____    ______ ____
ROOT
ATOM      1  N   UNL     1       0.573  -6.379   3.983  0.00  0.00    -0.297 N 
ATOM      2  C   UNL     1       0.769  -7.685   4.250  0.00  0.00    +0.300 C 
ATOM      3  O   UNL     1       0.480  -8.525   3.420  0.00  0.00    -0.253 OA
ATOM      4  N   UNL     1       1.285  -8.060   5.437  0.00  0.00    -0.293 N 
ATOM      5  H   UNL     1       0.803  -5.709   4.645  0.00  0.00    +0.150 HD
ATOM      6  H   UNL     1       1.516  -7.390   6.099  0.00  0.00    +0.151 HD
ENDROOT
BRANCH   4   7
ATOM      7  C   UNL     1       1.499  -9.481   5.727  0.00  0.00    +0.103 C 
ATOM      8  C   UNL     1       2.887  -9.898   5.239  0.00  0.00    +0.033 C 
BRANCH   7   9
ATOM      9  C   UNL     1       1.399  -9.710   7.213  0.00  0.00    -0.014 A 
ATOM     10  C   UNL     1       1.692  -8.685   8.092  0.00  0.00    +0.006 A 
ATOM     11  C   UNL     1       1.600  -8.895   9.455  0.00  0.00    +0.000 A 
ATOM     12  C   UNL     1       1.214 -10.131   9.940  0.00  0.00    +0.001 A 
ATOM     13  C   UNL     1       0.920 -11.157   9.061  0.00  0.00    +0.015 A 
ATOM     14  C   UNL     1       1.007 -10.945   7.697  0.00  0.00    +0.023 A 
ATOM     15 BR   UNL     1       0.598 -12.346   6.494  0.00  0.00    -0.050 Br
ENDBRANCH   7   9
ENDBRANCH   4   7
BRANCH   1  16
ATOM     16  C   UNL     1       0.011  -5.971   2.693  0.00  0.00    +0.135 C 
BRANCH  16  17
ATOM     17  C   UNL     1      -0.108  -4.447   2.647  0.00  0.00    +0.115 C 
BRANCH  17  18
ATOM     18  O   UNL     1       1.197  -3.866   2.692  0.00  0.00    -0.392 OA
ATOM     19  H   UNL     1       1.770  -4.129   1.959  0.00  0.00    +0.210 HD
ENDBRANCH  17  18
BRANCH  17  20
ATOM     20  C   UNL     1      -0.808  -4.028   1.353  0.00  0.00    -0.046 C 
BRANCH  20  25
ATOM     21  C   UNL     1      -2.417   1.433   1.018  0.00  0.00    +0.007 C 
ATOM     22  C   UNL     1      -2.422  -0.097   1.038  0.00  0.00    -0.018 C 
ATOM     23  C   UNL     1      -1.907  -0.593   2.392  0.00  0.00    -0.016 C 
ATOM     24  C   UNL     1      -1.839  -2.122   2.377  0.00  0.00    -0.078 C 
ATOM     25  N   UNL     1      -0.930  -2.564   1.313  0.00  0.00    +0.381 N 
ATOM     26  C   UNL     1      -1.455  -2.154   0.006  0.00  0.00    -0.078 C 
ATOM     27  C   UNL     1      -1.508  -0.626  -0.070  0.00  0.00    -0.016 C 
ATOM     28  H   UNL     1      -0.021  -2.149   1.455  0.00  0.00    -0.082 HD
ENDBRANCH  20  25
ENDBRANCH  17  20
ENDBRANCH  16  17
ENDBRANCH   1  16
TORSDOF 7
