REMARK  Name = ZINC16959686
REMARK  8 active torsions:
REMARK  status: ('A' for Active; 'I' for Inactive)
REMARK    1  A    between atoms: C_1  and  O_2
REMARK    2  A    between atoms: O_2  and  C_3
REMARK    3  A    between atoms: C_6  and  C_11
REMARK    4  A    between atoms: C_8  and  O_9
REMARK    5  A    between atoms: O_9  and  C_10
REMARK    6  A    between atoms: C_24  and  S_26
REMARK    7  A    between atoms: S_26  and  C_27
REMARK    8  A    between atoms: C_27  and  C_28
REMARK                            x       y       z     vdW  Elec       q    Type
REMARK                         _______ _______ _______ _____ _____    ______ ____
ROOT
ATOM      1  C   UNL     1      -4.987  -2.627   0.035  0.00  0.00    +0.162 C 
ATOM      2  C   UNL     1      -5.497  -2.691  -1.392  0.00  0.00    +0.041 C 
ATOM      3  C   UNL     1      -6.722  -2.113  -1.664  0.00  0.00    +0.027 C 
ATOM      4  C   UNL     1      -7.279  -2.154  -3.067  0.00  0.00    +0.054 C 
ATOM      5  C   UNL     1      -6.126  -2.165  -4.073  0.00  0.00    +0.014 C 
ATOM      6  C   UNL     1      -5.234  -3.379  -3.796  0.00  0.00    +0.080 C 
ATOM      7  C   UNL     1      -4.743  -3.313  -2.373  0.00  0.00    +0.163 C 
ATOM      8  O   UNL     1      -3.671  -3.810  -2.083  0.00  0.00    -0.292 OA
ATOM      9  N   UNL     1      -7.422  -1.519  -0.709  0.00  0.00    -0.330 N 
ATOM     10  C   UNL     1      -7.048  -1.415   0.560  0.00  0.00    +0.215 C 
ATOM     11  N   UNL     1      -5.858  -1.938   0.995  0.00  0.00    -0.208 N 
ATOM     12  N   UNL     1      -5.767  -1.661   2.361  0.00  0.00    -0.239 N 
ATOM     13  C   UNL     1      -6.906  -0.979   2.690  0.00  0.00    +0.174 C 
ATOM     14  N   UNL     1      -7.648  -0.849   1.615  0.00  0.00    -0.192 NA
ATOM     15  H   UNL     1      -8.275  -1.128  -0.957  0.00  0.00    +0.168 HD
ATOM     16  H   UNL     1      -5.041  -1.904   2.958  0.00  0.00    +0.172 HD
ENDROOT
BRANCH   1  20
ATOM     17  C   UNL     1      -1.201  -0.638   0.010  0.00  0.00    +0.162 A 
ATOM     18  C   UNL     1      -2.374   0.099   0.019  0.00  0.00    +0.050 A 
ATOM     19  C   UNL     1      -3.596  -0.546   0.027  0.00  0.00    +0.009 A 
ATOM     20  C   UNL     1      -3.652  -1.928   0.026  0.00  0.00    -0.017 A 
ATOM     21  C   UNL     1      -2.485  -2.669   0.017  0.00  0.00    +0.055 A 
ATOM     22  C   UNL     1      -1.257  -2.028   0.003  0.00  0.00    +0.162 A 
BRANCH  17  24
ATOM     23  C   UNL     1      -0.017   1.425   0.010  0.00  0.00    +0.277 C 
ATOM     24  O   UNL     1       0.002  -0.004   0.002  0.00  0.00    -0.491 OA
ENDBRANCH  17  24
BRANCH  22  25
ATOM     25  O   UNL     1      -0.108  -2.756  -0.012  0.00  0.00    -0.491 OA
ATOM     26  C   UNL     1      -0.242  -4.179  -0.018  0.00  0.00    +0.277 C 
ENDBRANCH  22  25
ENDBRANCH   1  20
BRANCH  13  27
ATOM     27  S   UNL     1      -7.315  -0.380   4.296  0.00  0.00    -0.084 S 
BRANCH  27  28
ATOM     28  C   UNL     1      -8.927   0.420   4.068  0.00  0.00    +0.115 C 
BRANCH  28  29
ATOM     29  C   UNL     1      -9.399   0.983   5.384  0.00  0.00    -0.002 A 
ATOM     30  C   UNL     1     -10.159   0.204   6.237  0.00  0.00    +0.007 A 
ATOM     31  C   UNL     1     -10.591   0.721   7.444  0.00  0.00    +0.000 A 
ATOM     32  C   UNL     1     -10.265   2.016   7.800  0.00  0.00    +0.003 A 
ATOM     33  C   UNL     1      -9.505   2.796   6.949  0.00  0.00    +0.038 A 
ATOM     34  C   UNL     1      -9.066   2.278   5.742  0.00  0.00    +0.127 A 
ATOM     35  F   UNL     1      -8.319   3.038   4.912  0.00  0.00    -0.205 F 
ENDBRANCH  28  29
ENDBRANCH  27  28
ENDBRANCH  13  27
TORSDOF 6
