REMARK  Name = ZINC00086684
REMARK  6 active torsions:
REMARK  status: ('A' for Active; 'I' for Inactive)
REMARK    1  A    between atoms: C_1  and  C_2
REMARK    2  A    between atoms: C_8  and  C_13
REMARK    3  A    between atoms: C_9  and  O_12
REMARK    4  A    between atoms: C_13  and  C_15
REMARK    5  A    between atoms: C_13  and  N_21
REMARK    6  A    between atoms: N_21  and  C_22
REMARK                            x       y       z     vdW  Elec       q    Type
REMARK                         _______ _______ _______ _____ _____    ______ ____
ROOT
ATOM      1  C   UNL     1       0.344   3.135   7.007  0.00  0.00    +0.137 C 
ENDROOT
BRANCH   1   9
ATOM      2  C   UNL     1       0.027   0.368   0.258  0.00  0.00    +0.065 C 
ATOM      3  C   UNL     1      -0.677   1.021   1.419  0.00  0.00    +0.039 A 
ATOM      4  C   UNL     1      -2.038   1.301   1.316  0.00  0.00    +0.023 A 
ATOM      5  C   UNL     1      -2.693   1.889   2.361  0.00  0.00    +0.012 A 
ATOM      6  C   UNL     1      -1.954   2.203   3.516  0.00  0.00    +0.004 A 
ATOM      7  C   UNL     1      -2.558   2.811   4.628  0.00  0.00    +0.010 A 
ATOM      8  C   UNL     1      -1.811   3.100   5.730  0.00  0.00    +0.010 A 
ATOM      9  C   UNL     1      -0.452   2.801   5.771  0.00  0.00    +0.021 A 
ATOM     10  C   UNL     1       0.171   2.209   4.710  0.00  0.00    +0.148 A 
ATOM     11  C   UNL     1      -0.572   1.895   3.552  0.00  0.00    +0.113 A 
ATOM     12  N   UNL     1       0.008   1.315   2.497  0.00  0.00    -0.248 NA
BRANCH  10  13
ATOM     13  O   UNL     1       1.498   1.924   4.769  0.00  0.00    -0.504 OA
ATOM     14  H   UNL     1       2.068   2.638   4.450  0.00  0.00    +0.292 HD
ENDBRANCH  10  13
ENDBRANCH   1   9
BRANCH   1  15
ATOM     15  C   UNL     1       0.961   4.500   6.852  0.00  0.00    -0.005 A 
ATOM     16  C   UNL     1       2.292   4.632   6.484  0.00  0.00    +0.009 A 
ATOM     17  C   UNL     1       2.818   5.908   6.354  0.00  0.00    +0.020 A 
ATOM     18  C   UNL     1       2.004   6.999   6.594  0.00  0.00    +0.111 A 
ATOM     19  N   UNL     1       0.743   6.836   6.943  0.00  0.00    -0.263 NA
ATOM     20  C   UNL     1       0.208   5.638   7.071  0.00  0.00    +0.116 A 
ENDBRANCH   1  15
BRANCH   1  21
ATOM     21  N   UNL     1      -0.541   3.128   8.174  0.00  0.00    -0.320 N 
ATOM     22  H   UNL     1      -1.494   3.272   8.062  0.00  0.00    +0.148 HD
BRANCH  21  23
ATOM     23  C   UNL     1      -0.016   2.916   9.444  0.00  0.00    +0.097 A 
ATOM     24  C   UNL     1       1.351   2.705   9.598  0.00  0.00    +0.041 A 
ATOM     25  C   UNL     1       1.861   2.502  10.867  0.00  0.00    +0.005 A 
ATOM     26  C   UNL     1       0.983   2.504  11.943  0.00  0.00    +0.018 A 
ATOM     27  C   UNL     1      -0.363   2.714  11.716  0.00  0.00    +0.084 A 
ATOM     28  N   UNL     1      -0.898   2.923  10.484  0.00  0.00    -0.350 N 
ATOM     29  H   UNL     1      -1.904   3.077  10.345  0.00  0.00    +0.166 HD
ENDBRANCH  21  23
ENDBRANCH   1  21
TORSDOF 5
