REMARK  Name = ZINC00444062
REMARK  4 active torsions:
REMARK  status: ('A' for Active; 'I' for Inactive)
REMARK    1  A    between atoms: C_3  and  N_8
REMARK    2  A    between atoms: C_9  and  C_11
REMARK    3  A    between atoms: C_12  and  C_13
REMARK    4  A    between atoms: C_16  and  N_19
REMARK                            x       y       z     vdW  Elec       q    Type
REMARK                         _______ _______ _______ _____ _____    ______ ____
ROOT
ATOM      1  N   UNL     1      -0.016   1.344   0.009  0.00  0.00    -0.282 N 
ATOM      2  C   UNL     1       0.157   0.020  -0.174  0.00  0.00    +0.241 C 
ATOM      3  O   UNL     1       1.262  -0.418  -0.438  0.00  0.00    -0.270 OA
ATOM      4  H   UNL     1      -0.908   1.702   0.139  0.00  0.00    +0.155 HD
ENDROOT
BRANCH   1   7
ATOM      5  C   UNL     1       2.058   4.338  -0.485  0.00  0.00    +0.003 A 
ATOM      6  C   UNL     1       0.966   3.493  -0.485  0.00  0.00    +0.023 A 
ATOM      7  C   UNL     1       1.089   2.200   0.007  0.00  0.00    +0.035 A 
ATOM      8  C   UNL     1       2.310   1.762   0.503  0.00  0.00    +0.043 A 
ATOM      9  C   UNL     1       3.401   2.610   0.495  0.00  0.00    +0.043 A 
ATOM     10  C   UNL     1       3.274   3.898   0.004  0.00  0.00    +0.020 A 
ATOM     11 CL   UNL     1       4.930   2.062   1.109  0.00  0.00    -0.083 Cl
ENDBRANCH   1   7
BRANCH   2  12
ATOM     12  C   UNL     1      -0.983  -0.891  -0.058  0.00  0.00    +0.068 C 
ATOM     13  C   UNL     1      -0.809  -2.216  -0.242  0.00  0.00    +0.013 C 
BRANCH  13  14
ATOM     14  C   UNL     1      -1.955  -3.131  -0.124  0.00  0.00    -0.025 A 
ATOM     15  C   UNL     1      -3.225  -2.632   0.183  0.00  0.00    +0.010 A 
ATOM     16  C   UNL     1      -4.295  -3.496   0.287  0.00  0.00    +0.033 A 
ATOM     17  C   UNL     1      -4.112  -4.855   0.097  0.00  0.00    +0.126 A 
ATOM     18  C   UNL     1      -2.858  -5.357  -0.202  0.00  0.00    +0.033 A 
ATOM     19  C   UNL     1      -1.779  -4.506  -0.314  0.00  0.00    +0.010 A 
BRANCH  17  20
ATOM     20  N   UNL     1      -5.265  -5.776   0.216  0.00  0.00    +0.056 N 
ATOM     21  O   UNL     1      -5.108  -6.973   0.050  0.00  0.00    -0.126 OA
ATOM     22  O   UNL     1      -6.370  -5.338   0.480  0.00  0.00    -0.126 OA
ENDBRANCH  17  20
ENDBRANCH  13  14
ENDBRANCH   2  12
TORSDOF 4
