REMARK  Name = ZINC50139283
REMARK  9 active torsions:
REMARK  status: ('A' for Active; 'I' for Inactive)
REMARK    1  A    between atoms: C_1  and  C_2
REMARK    2  A    between atoms: C_3  and  N_9
REMARK    3  A    between atoms: N_9  and  N_10
REMARK    4  A    between atoms: N_13  and  C_14
REMARK    5  A    between atoms: C_14  and  C_15
REMARK    6  A    between atoms: C_19  and  C_21
REMARK    7  A    between atoms: C_21  and  S_22
REMARK    8  A    between atoms: S_22  and  N_25
REMARK    9  A    between atoms: N_25  and  C_26
REMARK                            x       y       z     vdW  Elec       q    Type
REMARK                         _______ _______ _______ _____ _____    ______ ____
ROOT
ATOM      1  N   UNL     1      -0.006  -0.687  -3.627  0.00  0.00    -0.220 N 
ATOM      2  C   UNL     1      -0.021  -0.009  -4.792  0.00  0.00    +0.316 C 
ATOM      3  O   UNL     1      -0.018  -0.613  -5.847  0.00  0.00    -0.251 OA
ATOM      4  N   UNL     1      -0.040   1.339  -4.787  0.00  0.00    -0.294 N 
ATOM      5  H   UNL     1       0.007  -1.657  -3.631  0.00  0.00    +0.174 HD
ATOM      6  H   UNL     1      -0.043   1.821  -3.945  0.00  0.00    +0.151 HD
ENDROOT
BRANCH   1   7
ATOM      7  N   UNL     1      -0.010   0.010  -2.411  0.00  0.00    -0.263 N 
ATOM      8  H   UNL     1      -0.023   0.980  -2.408  0.00  0.00    +0.170 HD
BRANCH   7  11
ATOM      9  C   UNL     1      -0.018   1.503   0.010  0.00  0.00    +0.047 C 
ATOM     10  C   UNL     1       0.002  -0.004   0.002  0.00  0.00    -0.010 A 
ATOM     11  C   UNL     1       0.006  -0.693  -1.204  0.00  0.00    +0.049 A 
ATOM     12  C   UNL     1       0.025  -2.082  -1.208  0.00  0.00    +0.025 A 
ATOM     13  C   UNL     1       0.040  -2.774  -0.012  0.00  0.00    +0.003 A 
ATOM     14  C   UNL     1       0.035  -2.087   1.187  0.00  0.00    +0.020 A 
ATOM     15  C   UNL     1       0.023  -0.702   1.194  0.00  0.00    +0.046 A 
ATOM     16 CL   UNL     1       0.026   0.157   2.703  0.00  0.00    -0.083 Cl
ENDBRANCH   7  11
ENDBRANCH   1   7
BRANCH   4  17
ATOM     17  C   UNL     1      -0.056   2.076  -6.053  0.00  0.00    +0.141 C 
BRANCH  17  18
ATOM     18  C   UNL     1      -0.075   3.556  -5.772  0.00  0.00    -0.030 A 
ATOM     19  C   UNL     1      -1.282   4.218  -5.632  0.00  0.00    +0.005 A 
ATOM     20  C   UNL     1      -1.299   5.575  -5.375  0.00  0.00    +0.001 A 
ATOM     21  C   UNL     1      -0.111   6.272  -5.257  0.00  0.00    +0.005 A 
ATOM     22  C   UNL     1       1.095   5.611  -5.396  0.00  0.00    -0.025 A 
ATOM     23  C   UNL     1       1.113   4.252  -5.650  0.00  0.00    +0.010 A 
BRANCH  22  24
ATOM     24  C   UNL     1       2.390   6.370  -5.269  0.00  0.00    +0.220 C 
BRANCH  24  25
ATOM     25  S   UNL     1       2.930   6.358  -3.537  0.00  0.00    +0.033 S 
ATOM     26  O   UNL     1       2.037   7.125  -2.740  0.00  0.00    -0.158 OA
ATOM     27  O   UNL     1       3.299   5.042  -3.149  0.00  0.00    -0.158 OA
BRANCH  25  28
ATOM     28  N   UNL     1       4.347   7.215  -3.527  0.00  0.00    -0.197 NA
ATOM     29  C   UNL     1       4.343   8.641  -3.861  0.00  0.00    +0.127 C 
ATOM     30  H   UNL     1       5.180   6.772  -3.299  0.00  0.00    +0.147 HD
ENDBRANCH  25  28
ENDBRANCH  24  25
ENDBRANCH  22  24
ENDBRANCH  17  18
ENDBRANCH   4  17
TORSDOF 7
