REMARK  Name = ZINC02765513
REMARK  3 active torsions:
REMARK  status: ('A' for Active; 'I' for Inactive)
REMARK    1  A    between atoms: C_3  and  C_11
REMARK    2  A    between atoms: C_5  and  C_7
REMARK    3  A    between atoms: C_14  and  C_16
REMARK                            x       y       z     vdW  Elec       q    Type
REMARK                         _______ _______ _______ _____ _____    ______ ____
ROOT
ATOM      1  C   UNL     1       7.301   2.420  -0.063  0.00  0.00    +0.227 C 
ATOM      2  N   UNL     1       7.635   1.146   0.599  0.00  0.00    -0.314 N 
ATOM      3  C   UNL     1       7.696   1.162   1.971  0.00  0.00    +0.080 A 
ATOM      4  C   UNL     1       7.956   2.333   2.698  0.00  0.00    +0.068 A 
ATOM      5  C   UNL     1       7.974   2.183   4.144  0.00  0.00    -0.023 A 
ATOM      6  C   UNL     1       7.744   0.925   4.581  0.00  0.00    -0.005 A 
ATOM      7  S   UNL     1       7.509  -0.031   3.108  0.00  0.00    -0.078 S 
ATOM      8  C   UNL     1       7.702   0.460   6.003  0.00  0.00    +0.043 C 
ATOM      9  C   UNL     1       8.328   1.548   6.887  0.00  0.00    +0.005 C 
ATOM     10  C   UNL     1       7.726   2.904   6.505  0.00  0.00    +0.005 C 
ATOM     11  C   UNL     1       8.226   3.323   5.121  0.00  0.00    +0.037 C 
ATOM     12  C   UNL     1       8.188   3.580   1.935  0.00  0.00    +0.248 C 
ATOM     13  O   UNL     1       8.593   4.591   2.480  0.00  0.00    -0.270 OA
ATOM     14  N   UNL     1       7.933   3.549   0.611  0.00  0.00    -0.287 N 
ATOM     15  H   UNL     1       7.803   0.337   0.091  0.00  0.00    +0.149 HD
ATOM     16  H   UNL     1       8.184   4.320   0.078  0.00  0.00    +0.151 HD
ENDROOT
BRANCH   1  20
ATOM     17  C   UNL     1       3.656   2.160  -0.022  0.00  0.00    +0.135 A 
ATOM     18  C   UNL     1       3.782   3.514  -0.011  0.00  0.00    +0.050 A 
ATOM     19  C   UNL     1       5.163   3.793  -0.025  0.00  0.00    +0.049 A 
ATOM     20  C   UNL     1       5.806   2.609  -0.043  0.00  0.00    +0.144 A 
ATOM     21  O   UNL     1       4.892   1.624  -0.036  0.00  0.00    -0.456 OA
BRANCH  17  24
ATOM     22  C   UNL     1      -0.017   1.379   0.010  0.00  0.00    +0.001 A 
ATOM     23  C   UNL     1       1.167   2.088   0.002  0.00  0.00    +0.011 A 
ATOM     24  C   UNL     1       2.385   1.407  -0.013  0.00  0.00    +0.018 A 
ATOM     25  C   UNL     1       2.397   0.011  -0.021  0.00  0.00    +0.024 A 
ATOM     26  C   UNL     1       1.206  -0.686  -0.013  0.00  0.00    +0.055 A 
ATOM     27  C   UNL     1       0.002  -0.004   0.002  0.00  0.00    +0.012 A 
BRANCH  26  28
ATOM     28  C   UNL     1       1.217  -2.193  -0.021  0.00  0.00    +0.417 C 
ATOM     29  F   UNL     1       1.233  -2.666   1.295  0.00  0.00    -0.166 F 
ATOM     30  F   UNL     1       0.072  -2.664  -0.672  0.00  0.00    -0.166 F 
ATOM     31  F   UNL     1       2.356  -2.647  -0.694  0.00  0.00    -0.166 F 
ENDBRANCH  26  28
ENDBRANCH  17  24
ENDBRANCH   1  20
TORSDOF 3
