REMARK  Name = ZINC51116193
REMARK  6 active torsions:
REMARK  status: ('A' for Active; 'I' for Inactive)
REMARK    1  A    between atoms: C_4  and  C_6
REMARK    2  A    between atoms: C_6  and  N_7
REMARK    3  A    between atoms: C_8  and  C_10
REMARK    4  A    between atoms: C_12  and  N_19
REMARK    5  A    between atoms: C_13  and  N_17
REMARK    6  A    between atoms: N_17  and  N_18
REMARK                            x       y       z     vdW  Elec       q    Type
REMARK                         _______ _______ _______ _____ _____    ______ ____
ROOT
ATOM      1  C   UNL     1       1.609  -4.298  -3.087  0.00  0.00    +0.040 A 
ATOM      2  C   UNL     1       1.784  -5.666  -3.317  0.00  0.00    +0.047 A 
ATOM      3  C   UNL     1       1.686  -6.165  -4.596  0.00  0.00    +0.150 A 
ATOM      4  C   UNL     1       1.414  -5.310  -5.660  0.00  0.00    +0.090 A 
ATOM      5  C   UNL     1       1.240  -3.946  -5.434  0.00  0.00    +0.066 A 
ATOM      6  C   UNL     1       1.331  -3.442  -4.156  0.00  0.00    +0.035 A 
ATOM      7 CL   UNL     1       0.902  -2.883  -6.764  0.00  0.00    -0.081 Cl
ENDROOT
BRANCH   1   9
ATOM      8  N   UNL     1       1.540  -2.442  -1.496  0.00  0.00    -0.305 N 
ATOM      9  C   UNL     1       1.714  -3.760  -1.717  0.00  0.00    +0.245 C 
ATOM     10  O   UNL     1       1.956  -4.506  -0.788  0.00  0.00    -0.270 OA
ATOM     11  H   UNL     1       1.346  -1.847  -2.237  0.00  0.00    +0.149 HD
BRANCH   8  12
ATOM     12  C   UNL     1       1.643  -1.908  -0.135  0.00  0.00    +0.167 C 
BRANCH  12  16
ATOM     13  C   UNL     1       0.234   1.545  -0.081  0.00  0.00    +0.119 A 
ATOM     14  C   UNL     1       1.412   2.195  -0.260  0.00  0.00    +0.066 A 
ATOM     15  S   UNL     1       2.539   0.813  -0.356  0.00  0.00    -0.079 S 
ATOM     16  C   UNL     1       1.409  -0.419  -0.161  0.00  0.00    +0.095 A 
ATOM     17  N   UNL     1       0.278   0.229  -0.037  0.00  0.00    -0.251 NA
ENDBRANCH  12  16
ENDBRANCH   8  12
ENDBRANCH   1   9
BRANCH   3  18
ATOM     18  N   UNL     1       1.871  -7.613  -4.840  0.00  0.00    +0.058 N 
ATOM     19  O   UNL     1       2.001  -8.372  -3.908  0.00  0.00    -0.126 OA
ATOM     20  O   UNL     1       1.892  -8.037  -5.972  0.00  0.00    -0.126 OA
ENDBRANCH   3  18
BRANCH   4  21
ATOM     21  N   UNL     1       1.316  -5.818  -6.951  0.00  0.00    -0.280 N 
ATOM     22  H   UNL     1       0.929  -6.695  -7.099  0.00  0.00    +0.166 HD
BRANCH  21  23
ATOM     23  N   UNL     1       1.764  -5.081  -8.011  0.00  0.00    -0.256 NA
ATOM     24  H   UNL     1       2.764  -4.953  -7.965  0.00  0.00    +0.140 HD
ATOM     25  H   UNL     1       1.494  -5.505  -8.886  0.00  0.00    +0.140 HD
ENDBRANCH  21  23
ENDBRANCH   4  21
TORSDOF 6
