REMARK  Name = ZINC53123717
REMARK  13 active torsions:
REMARK  status: ('A' for Active; 'I' for Inactive)
REMARK    1  A    between atoms: C_1  and  C_2
REMARK    2  A    between atoms: C_7  and  S_24
REMARK    3  A    between atoms: C_12  and  C_14
REMARK    4  A    between atoms: C_14  and  N_15
REMARK    5  A    between atoms: N_15  and  C_16
REMARK    6  A    between atoms: C_16  and  C_17
REMARK    7  A    between atoms: C_16  and  C_18
REMARK    8  A    between atoms: C_16  and  C_19
REMARK    9  A    between atoms: C_19  and  C_20
REMARK   10  A    between atoms: C_20  and  C_21
REMARK   11  A    between atoms: C_20  and  C_22
REMARK   12  A    between atoms: C_20  and  C_23
REMARK   13  A    between atoms: S_24  and  N_27
REMARK                            x       y       z     vdW  Elec       q    Type
REMARK                         _______ _______ _______ _____ _____    ______ ____
ROOT
ATOM      1  C   UNL     1       0.999   2.349   1.208  0.00  0.00    +0.029 C 
ATOM      2  C   UNL     1       0.198   1.050   1.103  0.00  0.00    +0.083 C 
ATOM      3  C   UNL     1       0.493   0.349  -0.234  0.00  0.00    +0.059 C 
ATOM      4  C   UNL     1       1.085  -0.986   0.159  0.00  0.00    -0.022 A 
ATOM      5  C   UNL     1       1.540  -2.038  -0.613  0.00  0.00    +0.034 A 
ATOM      6  C   UNL     1       2.047  -3.173  -0.009  0.00  0.00    +0.105 A 
ATOM      7  C   UNL     1       2.098  -3.255   1.370  0.00  0.00    +0.030 A 
ATOM      8  C   UNL     1       1.645  -2.208   2.144  0.00  0.00    +0.026 A 
ATOM      9  C   UNL     1       1.132  -1.058   1.542  0.00  0.00    +0.040 A 
ATOM     10  N   UNL     1       0.625   0.104   2.137  0.00  0.00    -0.270 N 
ATOM     11  C   UNL     1       0.542   0.322   3.465  0.00  0.00    +0.203 C 
ATOM     12  O   UNL     1       0.087   1.367   3.881  0.00  0.00    -0.277 OA
ENDROOT
BRANCH   6  13
ATOM     13  S   UNL     1       2.626  -4.513  -0.996  0.00  0.00    +0.056 S 
ATOM     14  O   UNL     1       2.546  -5.678  -0.185  0.00  0.00    -0.153 OA
ATOM     15  O   UNL     1       1.965  -4.411  -2.249  0.00  0.00    -0.153 OA
BRANCH  13  16
ATOM     16  N   UNL     1       4.235  -4.248  -1.286  0.00  0.00    -0.204 NA
ATOM     17  H   UNL     1       4.670  -3.460  -0.924  0.00  0.00    +0.144 HD
ATOM     18  H   UNL     1       4.743  -4.881  -1.817  0.00  0.00    +0.144 HD
ENDBRANCH  13  16
ENDBRANCH   6  13
BRANCH  11  19
ATOM     19  C   UNL     1       1.016  -0.732   4.432  0.00  0.00    +0.016 C 
BRANCH  19  20
ATOM     20  N   UNL     1       0.821  -0.256   5.808  0.00  0.00    +0.388 N 
ATOM     21  H   UNL     1       1.349   0.592   5.949  0.00  0.00    -0.084 HD
ATOM     22  H   UNL     1      -0.159  -0.072   5.965  0.00  0.00    -0.084 HD
BRANCH  20  23
ATOM     23  C   UNL     1       1.282  -1.284   6.752  0.00  0.00    -0.073 C 
ATOM     24  C   UNL     1       0.605  -2.616   6.426  0.00  0.00    -0.010 C 
ATOM     25  C   UNL     1       2.799  -1.440   6.633  0.00  0.00    -0.010 C 
BRANCH  23  26
ATOM     26  C   UNL     1       0.923  -0.864   8.178  0.00  0.00    -0.007 C 
BRANCH  26  27
ATOM     27  C   UNL     1       1.281   0.609   8.383  0.00  0.00    -0.039 C 
ATOM     28  C   UNL     1       0.223   1.489   7.713  0.00  0.00    +0.010 C 
ATOM     29  C   UNL     1       1.329   0.920   9.880  0.00  0.00    +0.010 C 
ATOM     30  C   UNL     1       2.649   0.893   7.759  0.00  0.00    +0.010 C 
ENDBRANCH  26  27
ENDBRANCH  23  26
ENDBRANCH  20  23
ENDBRANCH  19  20
ENDBRANCH  11  19
TORSDOF 7
