REMARK  Name = ZINC46742800
REMARK  4 active torsions:
REMARK  status: ('A' for Active; 'I' for Inactive)
REMARK    1  A    between atoms: N_11  and  C_12
REMARK    2  A    between atoms: C_18  and  C_20
REMARK    3  A    between atoms: C_24  and  S_26
REMARK    4  A    between atoms: S_26  and  N_29
REMARK                            x       y       z     vdW  Elec       q    Type
REMARK                         _______ _______ _______ _____ _____    ______ ____
ROOT
ATOM      1  C   UNL     1       4.650  -1.501   0.258  0.00  0.00    +0.095 C 
ATOM      2  C   UNL     1       5.292  -2.084  -1.003  0.00  0.00    +0.044 C 
ATOM      3  C   UNL     1       6.647  -1.410  -1.240  0.00  0.00    +0.110 C 
ATOM      4  N   UNL     1       7.464  -1.550  -0.027  0.00  0.00    -0.297 N 
ATOM      5  C   UNL     1       6.905  -1.104   1.256  0.00  0.00    +0.110 C 
ATOM      6  C   UNL     1       5.547  -1.782   1.465  0.00  0.00    +0.044 C 
ATOM      7  C   UNL     1       8.702  -2.078  -0.090  0.00  0.00    +0.247 C 
ATOM      8  O   UNL     1       9.394  -2.126   0.908  0.00  0.00    -0.270 OA
ENDROOT
BRANCH   1  19
ATOM      9  C   UNL     1      -0.543  -0.710   0.697  0.00  0.00    +0.002 A 
ATOM     10  C   UNL     1       0.432   0.248   0.478  0.00  0.00    +0.002 A 
ATOM     11  C   UNL     1       1.760  -0.118   0.386  0.00  0.00    +0.028 A 
ATOM     12  C   UNL     1       2.119  -1.451   0.512  0.00  0.00    +0.070 A 
ATOM     13  C   UNL     1       1.136  -2.418   0.733  0.00  0.00    +0.067 A 
ATOM     14  C   UNL     1      -0.195  -2.041   0.824  0.00  0.00    +0.028 A 
ATOM     15  N   UNL     1       1.790  -3.645   0.816  0.00  0.00    -0.306 N 
ATOM     16  H   UNL     1       1.366  -4.505   0.966  0.00  0.00    +0.170 HD
ATOM     17  C   UNL     1       3.109  -3.434   0.654  0.00  0.00    +0.328 A 
ATOM     18  O   UNL     1       3.965  -4.300   0.672  0.00  0.00    -0.247 OA
ATOM     19  N   UNL     1       3.340  -2.121   0.469  0.00  0.00    -0.289 N 
ENDBRANCH   1  19
BRANCH   7  20
ATOM     20  C   UNL     1       9.218  -2.600  -1.373  0.00  0.00    +0.039 A 
ATOM     21  C   UNL     1       9.158  -1.813  -2.525  0.00  0.00    +0.016 A 
ATOM     22  C   UNL     1       9.640  -2.304  -3.718  0.00  0.00    +0.041 A 
ATOM     23  C   UNL     1      10.185  -3.578  -3.777  0.00  0.00    +0.150 A 
ATOM     24  C   UNL     1      10.248  -4.364  -2.636  0.00  0.00    +0.141 A 
ATOM     25  C   UNL     1       9.773  -3.880  -1.436  0.00  0.00    +0.044 A 
ATOM     26  F   UNL     1      10.657  -4.055  -4.949  0.00  0.00    -0.203 F 
BRANCH  24  27
ATOM     27  S   UNL     1      10.941  -5.981  -2.720  0.00  0.00    +0.059 S 
ATOM     28  O   UNL     1      12.183  -5.856  -3.399  0.00  0.00    -0.153 OA
ATOM     29  O   UNL     1      10.839  -6.535  -1.415  0.00  0.00    -0.153 OA
BRANCH  27  30
ATOM     30  N   UNL     1       9.957  -6.886  -3.696  0.00  0.00    -0.203 NA
ATOM     31  H   UNL     1       9.168  -6.486  -4.094  0.00  0.00    +0.144 HD
ATOM     32  H   UNL     1      10.169  -7.817  -3.871  0.00  0.00    +0.144 HD
ENDBRANCH  27  30
ENDBRANCH  24  27
ENDBRANCH   7  20
TORSDOF 4
