REMARK  Name = ZINC17993018
REMARK  6 active torsions:
REMARK  status: ('A' for Active; 'I' for Inactive)
REMARK    1  A    between atoms: C_1  and  C_2
REMARK    2  A    between atoms: C_2  and  C_3
REMARK    3  A    between atoms: C_3  and  N_4
REMARK    4  A    between atoms: C_7  and  C_21
REMARK    5  A    between atoms: C_8  and  C_20
REMARK    6  A    between atoms: C_12  and  C_13
REMARK                            x       y       z     vdW  Elec       q    Type
REMARK                         _______ _______ _______ _____ _____    ______ ____
ROOT
ATOM      1  N   UNL     1       0.775  -1.965  -1.348  0.00  0.00    -0.323 N 
ATOM      2  C   UNL     1       1.782  -2.773  -0.855  0.00  0.00    +0.069 A 
ATOM      3  C   UNL     1       3.043  -2.527  -0.331  0.00  0.00    +0.031 A 
ATOM      4  C   UNL     1       3.829  -3.582   0.084  0.00  0.00    -0.045 A 
ATOM      5  C   UNL     1       3.367  -4.886  -0.019  0.00  0.00    -0.045 A 
ATOM      6  C   UNL     1       2.128  -5.148  -0.533  0.00  0.00    +0.033 A 
ATOM      7  C   UNL     1       1.314  -4.094  -0.960  0.00  0.00    +0.090 A 
ATOM      8  N   UNL     1       0.071  -4.038  -1.499  0.00  0.00    -0.227 NA
ATOM      9  C   UNL     1      -0.255  -2.787  -1.725  0.00  0.00    +0.147 A 
ATOM     10  C   UNL     1       4.240  -6.026   0.439  0.00  0.00    +0.044 C 
ATOM     11  C   UNL     1       5.199  -3.317   0.653  0.00  0.00    +0.044 C 
ENDROOT
BRANCH   9  12
ATOM     12  C   UNL     1      -1.534  -2.334  -2.301  0.00  0.00    +0.082 A 
ATOM     13  C   UNL     1      -1.560  -1.624  -3.497  0.00  0.00    +0.018 A 
ATOM     14  C   UNL     1      -2.790  -1.211  -4.013  0.00  0.00    +0.018 A 
ATOM     15  C   UNL     1      -3.938  -1.502  -3.352  0.00  0.00    +0.086 A 
ATOM     16  N   UNL     1      -3.920  -2.194  -2.185  0.00  0.00    -0.329 N 
ATOM     17  C   UNL     1      -2.760  -2.620  -1.649  0.00  0.00    +0.259 A 
ATOM     18  O   UNL     1      -2.764  -3.246  -0.603  0.00  0.00    -0.267 OA
ATOM     19  H   UNL     1      -4.755  -2.389  -1.733  0.00  0.00    +0.168 HD
ENDBRANCH   9  12
BRANCH   1  20
ATOM     20  C   UNL     1       0.800  -0.503  -1.443  0.00  0.00    +0.123 C 
BRANCH  20  22
ATOM     21  C   UNL     1       0.169   1.627  -0.300  0.00  0.00    +0.005 C 
ATOM     22  C   UNL     1       0.142   0.100  -0.201  0.00  0.00    +0.018 C 
ENDBRANCH  20  22
ENDBRANCH   1  20
TORSDOF 3
