REMARK  Name = ZINC17160622
REMARK  0 active torsions:
REMARK  status: ('A' for Active; 'I' for Inactive)
REMARK                            x       y       z     vdW  Elec       q    Type
REMARK                         _______ _______ _______ _____ _____    ______ ____
ROOT
ATOM      1  C   UNL     1       2.395   1.292  -0.014  0.00  0.00    +0.158 A 
ATOM      2  C   UNL     1       2.313  -0.178  -0.021  0.00  0.00    +0.150 A 
ATOM      3  N   UNL     1       1.113  -0.733  -0.013  0.00  0.00    -0.198 NA
ATOM      4  C   UNL     1       0.002  -0.004   0.002  0.00  0.00    +0.216 A 
ATOM      5  N   UNL     1      -0.016   1.308   0.009  0.00  0.00    -0.193 NA
ATOM      6  C   UNL     1       1.132   2.028   0.002  0.00  0.00    +0.195 A 
ATOM      7  N   UNL     1       1.321   3.340   0.008  0.00  0.00    -0.170 NA
ATOM      8  S   UNL     1       2.873   3.560  -0.005  0.00  0.00    +0.118 S 
ATOM      9  N   UNL     1       3.446   2.100  -0.019  0.00  0.00    -0.186 NA
ATOM     10  N   UNL     1      -1.211  -0.670   0.009  0.00  0.00    -0.327 N 
ATOM     11  N   UNL     1       3.453  -0.952  -0.036  0.00  0.00    -0.341 N 
ATOM     12  H   UNL     1      -2.151  -0.099   0.021  0.00  0.00    +0.145 HD
ATOM     13  H   UNL     1      -1.235  -1.769   0.004  0.00  0.00    +0.145 HD
ATOM     14  H   UNL     1       3.372  -2.049  -0.041  0.00  0.00    +0.144 HD
ATOM     15  H   UNL     1       4.443  -0.473  -0.042  0.00  0.00    +0.144 HD
ENDROOT
TORSDOF 0
