REMARK  Name = ZINC08594374
REMARK  4 active torsions:
REMARK  status: ('A' for Active; 'I' for Inactive)
REMARK    1  A    between atoms: C_1  and  C_2
REMARK    2  A    between atoms: C_2  and  C_3
REMARK    3  A    between atoms: N_16  and  C_17
REMARK    4  A    between atoms: C_22  and  C_23
REMARK                            x       y       z     vdW  Elec       q    Type
REMARK                         _______ _______ _______ _____ _____    ______ ____
ROOT
ATOM      1  C   UNL     1      -1.404  -0.888  -0.072  0.00  0.00    +0.140 A 
ATOM      2  N   UNL     1      -2.098  -1.085   1.017  0.00  0.00    -0.134 NA
ATOM      3  N   UNL     1      -3.314  -0.695   0.848  0.00  0.00    -0.129 NA
ATOM      4  C   UNL     1      -3.460  -0.226  -0.367  0.00  0.00    +0.173 A 
ATOM      5  N   UNL     1      -2.238  -0.330  -0.992  0.00  0.00    -0.250 N 
ATOM      6  C   UNL     1      -2.089   0.095  -2.286  0.00  0.00    +0.208 A 
ATOM      7  N   UNL     1      -3.071   0.612  -2.977  0.00  0.00    -0.215 NA
ATOM      8  C   UNL     1      -4.316   0.765  -2.460  0.00  0.00    +0.078 A 
ATOM      9  C   UNL     1      -4.572   0.347  -1.134  0.00  0.00    +0.045 A 
ATOM     10  C   UNL     1      -5.844   0.499  -0.589  0.00  0.00    +0.014 A 
ATOM     11  C   UNL     1      -6.853   1.043  -1.355  0.00  0.00    +0.001 A 
ATOM     12  C   UNL     1      -6.610   1.438  -2.663  0.00  0.00    +0.002 A 
ATOM     13  C   UNL     1      -5.353   1.318  -3.213  0.00  0.00    +0.028 A 
ATOM     14  N   UNL     1      -0.856  -0.026  -2.882  0.00  0.00    -0.284 N 
ATOM     15  H   UNL     1      -0.094  -0.325  -2.363  0.00  0.00    +0.155 HD
ENDROOT
BRANCH  14  16
ATOM     16  C   UNL     1      -0.701   0.283  -4.238  0.00  0.00    +0.037 A 
ATOM     17  C   UNL     1      -1.788   0.201  -5.099  0.00  0.00    +0.026 A 
ATOM     18  C   UNL     1      -1.633   0.506  -6.437  0.00  0.00    +0.040 A 
ATOM     19  C   UNL     1      -0.395   0.893  -6.921  0.00  0.00    +0.124 A 
ATOM     20  C   UNL     1       0.690   0.976  -6.064  0.00  0.00    +0.043 A 
ATOM     21  C   UNL     1       0.538   0.678  -4.724  0.00  0.00    -0.027 A 
ATOM     22  C   UNL     1       1.718   0.774  -3.792  0.00  0.00    +0.046 C 
ATOM     23  F   UNL     1      -0.245   1.191  -8.230  0.00  0.00    -0.205 F 
ENDBRANCH  14  16
BRANCH   1  25
ATOM     24  C   UNL     1       0.896   0.038  -0.013  0.00  0.00    +0.012 C 
ATOM     25  C   UNL     1       0.054  -1.214  -0.272  0.00  0.00    +0.073 C 
ENDBRANCH   1  25
TORSDOF 2
