REMARK  Name = ZINC67263730
REMARK  10 active torsions:
REMARK  status: ('A' for Active; 'I' for Inactive)
REMARK    1  A    between atoms: C_1  and  C_2
REMARK    2  A    between atoms: C_5  and  C_24
REMARK    3  A    between atoms: C_6  and  O_8
REMARK    4  A    between atoms: O_8  and  C_9
REMARK    5  A    between atoms: C_9  and  C_10
REMARK    6  A    between atoms: N_12  and  C_13
REMARK    7  A    between atoms: C_16  and  C_19
REMARK    8  A    between atoms: C_19  and  N_20
REMARK    9  A    between atoms: C_24  and  C_25
REMARK   10  A    between atoms: C_24  and  C_26
REMARK                            x       y       z     vdW  Elec       q    Type
REMARK                         _______ _______ _______ _____ _____    ______ ____
ROOT
ATOM      1  C   UNL     1       0.061  -2.932   4.751  0.00  0.00    +0.255 C 
ATOM      2  O   UNL     1       0.068  -4.133   4.584  0.00  0.00    -0.272 OA
ATOM      3  N   UNL     1       0.062  -2.425   6.000  0.00  0.00    -0.283 N 
ATOM      4  H   UNL     1       0.124  -1.467   6.135  0.00  0.00    +0.155 HD
ENDROOT
BRANCH   3   5
ATOM      5  C   UNL     1      -0.027  -3.282   7.103  0.00  0.00    +0.034 A 
ATOM      6  C   UNL     1      -0.729  -2.889   8.235  0.00  0.00    +0.023 A 
ATOM      7  C   UNL     1      -0.815  -3.737   9.321  0.00  0.00    +0.007 A 
ATOM      8  C   UNL     1      -0.204  -4.977   9.283  0.00  0.00    -0.030 A 
ATOM      9  C   UNL     1       0.496  -5.372   8.157  0.00  0.00    +0.007 A 
ATOM     10  C   UNL     1       0.580  -4.530   7.065  0.00  0.00    +0.023 A 
BRANCH   8  11
ATOM     11  C   UNL     1      -0.300  -5.900  10.470  0.00  0.00    +0.141 C 
BRANCH  11  12
ATOM     12  N   UNL     1      -1.484  -6.751  10.332  0.00  0.00    -0.295 N 
ATOM     13  C   UNL     1      -1.774  -7.661  11.283  0.00  0.00    +0.297 C 
ATOM     14  O   UNL     1      -1.053  -7.776  12.255  0.00  0.00    -0.253 OA
ATOM     15  N   UNL     1      -2.864  -8.444  11.156  0.00  0.00    -0.313 N 
ATOM     16  H   UNL     1      -2.059  -6.660   9.557  0.00  0.00    +0.151 HD
ATOM     17  H   UNL     1      -3.439  -8.353  10.381  0.00  0.00    +0.146 HD
ATOM     18  H   UNL     1      -3.073  -9.099  11.841  0.00  0.00    +0.146 HD
ENDBRANCH  11  12
ENDBRANCH   8  11
ENDBRANCH   3   5
BRANCH   1  19
ATOM     19  C   UNL     1       0.052  -2.005   3.562  0.00  0.00    +0.324 C 
BRANCH  19  20
ATOM     20  O   UNL     1       0.053  -2.775   2.358  0.00  0.00    -0.482 OA
BRANCH  20  26
ATOM     21  C   UNL     1       0.019   1.504   0.011  0.00  0.00    +0.044 C 
ATOM     22  C   UNL     1       0.029  -0.003   0.002  0.00  0.00    -0.047 A 
ATOM     23  C   UNL     1       0.029  -0.687  -1.200  0.00  0.00    +0.004 A 
ATOM     24  C   UNL     1       0.038  -2.070  -1.211  0.00  0.00    +0.008 A 
ATOM     25  C   UNL     1       0.046  -2.771  -0.020  0.00  0.00    -0.003 A 
ATOM     26  C   UNL     1       0.045  -2.087   1.186  0.00  0.00    +0.125 A 
ATOM     27  C   UNL     1       0.043  -0.700   1.195  0.00  0.00    +0.049 A 
BRANCH  25  28
ATOM     28  C   UNL     1       0.054  -4.278  -0.033  0.00  0.00    +0.016 C 
ATOM     29  C   UNL     1      -1.194  -4.789  -0.755  0.00  0.00    +0.012 C 
ATOM     30  C   UNL     1       1.304  -4.775  -0.763  0.00  0.00    +0.012 C 
ENDBRANCH  25  28
ENDBRANCH  20  26
ENDBRANCH  19  20
ENDBRANCH   1  19
TORSDOF 7
