REMARK  Name = ZINC63641866
REMARK  4 active torsions:
REMARK  status: ('A' for Active; 'I' for Inactive)
REMARK    1  A    between atoms: C_10  and  N_11
REMARK    2  A    between atoms: C_12  and  S_37
REMARK    3  A    between atoms: C_15  and  O_36
REMARK    4  A    between atoms: C_17  and  C_21
REMARK                            x       y       z     vdW  Elec       q    Type
REMARK                         _______ _______ _______ _____ _____    ______ ____
ROOT
ATOM      1  N   UNL     1       4.876   0.127  -0.015  0.00  0.00    -0.245 N 
ATOM      2  C   UNL     1       5.511   0.464   1.254  0.00  0.00    +0.208 C 
ATOM      3  N   UNL     1       6.931   0.775   1.054  0.00  0.00    -0.264 NA
ATOM      4  C   UNL     1       7.091   1.795   0.004  0.00  0.00    +0.198 C 
ATOM      5  C   UNL     1       6.709   1.169  -1.341  0.00  0.00    +0.138 C 
ATOM      6  C   UNL     1       5.396   0.449  -1.204  0.00  0.00    +0.230 C 
ATOM      7  O   UNL     1       4.785   0.152  -2.209  0.00  0.00    -0.275 OA
ATOM      8  H   UNL     1       7.361   1.074   1.916  0.00  0.00    +0.127 HD
ENDROOT
BRANCH   5   9
ATOM      9  C   UNL     1       6.585   2.268  -2.398  0.00  0.00    +0.096 C 
ATOM     10  C   UNL     1       7.904   3.038  -2.499  0.00  0.00    +0.124 C 
ATOM     11  C   UNL     1       7.642   4.210  -3.438  0.00  0.00    -0.036 C 
ATOM     12  C   UNL     1       8.563   4.141  -4.390  0.00  0.00    -0.001 A 
ATOM     13  C   UNL     1       8.876   5.032  -5.519  0.00  0.00    +0.010 A 
ATOM     14  C   UNL     1       9.899   4.642  -6.324  0.00  0.00    +0.001 A 
ATOM     15  C   UNL     1      10.633   3.469  -6.122  0.00  0.00    +0.002 A 
ATOM     16  C   UNL     1      10.418   2.595  -5.107  0.00  0.00    +0.026 A 
ATOM     17  C   UNL     1       9.371   2.900  -4.189  0.00  0.00    +0.043 A 
ATOM     18  N   UNL     1       8.970   2.249  -3.114  0.00  0.00    -0.376 N 
ATOM     19  C   UNL     1       6.459   5.128  -3.249  0.00  0.00    +0.048 C 
ATOM     20  C   UNL     1       5.237   4.215  -3.038  0.00  0.00    +0.085 C 
ATOM     21  N   UNL     1       5.526   3.213  -2.009  0.00  0.00    -0.310 NA
ATOM     22  H   UNL     1       4.687   2.723  -1.734  0.00  0.00    +0.122 HD
ATOM     23  H   UNL     1       9.310   1.401  -2.787  0.00  0.00    +0.160 HD
ENDBRANCH   5   9
BRANCH   1  33
ATOM     24  C   UNL     1       0.009   1.458   0.112  0.00  0.00    +0.001 A 
ATOM     25  C   UNL     1       1.204   2.174   0.085  0.00  0.00    +0.001 A 
ATOM     26  C   UNL     1       2.404   1.532   0.052  0.00  0.00    +0.010 A 
ATOM     27  C   UNL     1       2.442   0.129   0.046  0.00  0.00    +0.004 A 
ATOM     28  C   UNL     1       1.227  -0.600   0.074  0.00  0.00    -0.016 A 
ATOM     29  C   UNL     1       0.007   0.097   0.107  0.00  0.00    +0.008 A 
ATOM     30  C   UNL     1       1.263  -2.005   0.068  0.00  0.00    +0.008 A 
ATOM     31  C   UNL     1       2.460  -2.654   0.036  0.00  0.00    +0.002 A 
ATOM     32  C   UNL     1       3.659  -1.949   0.009  0.00  0.00    +0.024 A 
ATOM     33  C   UNL     1       3.667  -0.571   0.013  0.00  0.00    +0.046 A 
ENDBRANCH   1  33
BRANCH   4  34
ATOM     34  O   UNL     1       6.238   2.907   0.280  0.00  0.00    -0.377 OA
ATOM     35  H   UNL     1       6.418   3.340   1.126  0.00  0.00    +0.211 HD
ENDBRANCH   4  34
BRANCH   2  36
ATOM     36  S   UNL     1       4.679   1.906   1.974  0.00  0.00    -0.140 S 
ATOM     37  H   UNL     1       5.341   2.122   3.125  0.00  0.00    +0.105 HD
ENDBRANCH   2  36
TORSDOF 4
