REMARK  Name = ZINC65439465
REMARK  7 active torsions:
REMARK  status: ('A' for Active; 'I' for Inactive)
REMARK    1  A    between atoms: C_1  and  C_2
REMARK    2  A    between atoms: C_2  and  C_4
REMARK    3  A    between atoms: C_2  and  N_13
REMARK    4  A    between atoms: N_13  and  C_14
REMARK    5  A    between atoms: N_17  and  C_18
REMARK    6  A    between atoms: C_18  and  C_20
REMARK    7  A    between atoms: C_18  and  C_21
REMARK                            x       y       z     vdW  Elec       q    Type
REMARK                         _______ _______ _______ _____ _____    ______ ____
ROOT
ATOM      1  N   UNL     1      -1.372  -0.511   0.012  0.00  0.00    -0.280 N 
ATOM      2  C   UNL     1      -2.290  -0.164  -1.076  0.00  0.00    +0.134 C 
ATOM      3  C   UNL     1      -1.793  -1.297   1.023  0.00  0.00    +0.303 C 
ATOM      4  O   UNL     1      -1.032  -1.586   1.926  0.00  0.00    -0.253 OA
ATOM      5  N   UNL     1      -3.057  -1.764   1.033  0.00  0.00    -0.294 N 
ATOM      6  H   UNL     1      -3.665  -1.534   0.312  0.00  0.00    +0.151 HD
ENDROOT
BRANCH   1   8
ATOM      7  C   UNL     1      -0.019   1.526   0.010  0.00  0.00    +0.035 C 
ATOM      8  C   UNL     1       0.002  -0.004   0.002  0.00  0.00    +0.130 C 
BRANCH   8   9
ATOM      9  C   UNL     1       0.707  -0.490  -1.238  0.00  0.00    +0.100 A 
ATOM     10  N   UNL     1       0.259  -0.499  -2.459  0.00  0.00    -0.242 NA
ATOM     11  C   UNL     1       0.993  -0.963  -3.491  0.00  0.00    +0.079 A 
ATOM     12  C   UNL     1       0.673  -1.050  -4.862  0.00  0.00    +0.029 A 
ATOM     13  C   UNL     1       1.570  -1.559  -5.751  0.00  0.00    +0.002 A 
ATOM     14  C   UNL     1       2.820  -2.008  -5.347  0.00  0.00    +0.001 A 
ATOM     15  C   UNL     1       3.169  -1.939  -4.012  0.00  0.00    +0.017 A 
ATOM     16  C   UNL     1       2.271  -1.427  -3.107  0.00  0.00    +0.039 A 
ATOM     17  S   UNL     1       2.257  -1.137  -1.357  0.00  0.00    -0.070 S 
ENDBRANCH   8   9
ENDBRANCH   1   8
BRANCH   5  18
ATOM     18  C   UNL     1      -3.514  -2.618   2.131  0.00  0.00    +0.100 C 
ATOM     19  C   UNL     1      -3.984  -1.744   3.296  0.00  0.00    +0.030 C 
BRANCH  18  20
ATOM     20  C   UNL     1      -4.675  -3.492   1.649  0.00  0.00    +0.138 C 
ATOM     21  C   UNL     1      -4.211  -4.374   0.470  0.00  0.00    +0.035 C 
ATOM     22  C   UNL     1      -5.449  -4.349  -0.467  0.00  0.00    +0.031 C 
ATOM     23  C   UNL     1      -5.976  -2.913  -0.220  0.00  0.00    +0.160 C 
ATOM     24  O   UNL     1      -5.744  -2.663   1.178  0.00  0.00    -0.375 OA
ENDBRANCH  18  20
ENDBRANCH   5  18
TORSDOF 4
