REMARK  Name = ZINC66736964
REMARK  4 active torsions:
REMARK  status: ('A' for Active; 'I' for Inactive)
REMARK    1  A    between atoms: C_7  and  C_13
REMARK    2  A    between atoms: N_15  and  S_16
REMARK    3  A    between atoms: S_16  and  C_19
REMARK    4  A    between atoms: C_23  and  C_25
REMARK                            x       y       z     vdW  Elec       q    Type
REMARK                         _______ _______ _______ _____ _____    ______ ____
ROOT
ATOM      1  C   UNL     1       1.350  -2.692   1.393  0.00  0.00    +0.272 C 
ATOM      2  O   UNL     1       0.244  -2.843   2.151  0.00  0.00    -0.269 OA
ATOM      3  N   UNL     1       2.510  -2.983   1.879  0.00  0.00    -0.090 NA
ENDROOT
BRANCH   1  10
ATOM      4  C   UNL     1      -0.017   1.379   0.010  0.00  0.00    +0.000 A 
ATOM      5  C   UNL     1       1.170   2.089   0.002  0.00  0.00    +0.002 A 
ATOM      6  C   UNL     1       2.378   1.420  -0.013  0.00  0.00    +0.023 A 
ATOM      7  C   UNL     1       2.400   0.032  -0.021  0.00  0.00    +0.037 A 
ATOM      8  C   UNL     1       1.207  -0.679  -0.013  0.00  0.00    -0.014 A 
ATOM      9  C   UNL     1       0.002  -0.004   0.002  0.00  0.00    +0.006 A 
ATOM     10  C   UNL     1       1.231  -2.185  -0.021  0.00  0.00    +0.121 C 
ATOM     11  C   UNL     1       2.428  -2.673  -0.839  0.00  0.00    +0.114 C 
ATOM     12  C   UNL     1       3.672  -1.943  -0.411  0.00  0.00    +0.218 C 
ATOM     13  O   UNL     1       4.736  -2.526  -0.405  0.00  0.00    -0.275 OA
ATOM     14  N   UNL     1       3.619  -0.652  -0.036  0.00  0.00    -0.285 N 
ATOM     15  H   UNL     1       4.433  -0.192   0.225  0.00  0.00    +0.155 HD
ENDBRANCH   1  10
BRANCH   3  16
ATOM     16  S   UNL     1       2.640  -3.540   3.433  0.00  0.00    +0.102 S 
ATOM     17  O   UNL     1       2.247  -2.471   4.283  0.00  0.00    -0.146 OA
ATOM     18  O   UNL     1       2.004  -4.811   3.464  0.00  0.00    -0.146 OA
BRANCH  16  19
ATOM     19  C   UNL     1       4.351  -3.826   3.742  0.00  0.00    +0.114 A 
ATOM     20  C   UNL     1       4.905  -5.064   3.463  0.00  0.00    +0.032 A 
ATOM     21  C   UNL     1       6.247  -5.298   3.702  0.00  0.00    +0.041 A 
ATOM     22  C   UNL     1       7.044  -4.296   4.223  0.00  0.00    +0.141 A 
ATOM     23  C   UNL     1       6.490  -3.044   4.506  0.00  0.00    +0.089 A 
ATOM     24  C   UNL     1       5.135  -2.815   4.256  0.00  0.00    +0.050 A 
ATOM     25  F   UNL     1       8.355  -4.526   4.457  0.00  0.00    -0.204 F 
BRANCH  23  26
ATOM     26  C   UNL     1       7.308  -2.000   5.046  0.00  0.00    +0.102 C 
ATOM     27  N   UNL     1       7.958  -1.172   5.474  0.00  0.00    -0.191 NA
ENDBRANCH  23  26
ENDBRANCH  16  19
ENDBRANCH   3  16
TORSDOF 4
