REMARK  Name = ZINC65206272
REMARK  10 active torsions:
REMARK  status: ('A' for Active; 'I' for Inactive)
REMARK    1  A    between atoms: C_1  and  C_2
REMARK    2  A    between atoms: C_4  and  C_24
REMARK    3  A    between atoms: C_6  and  C_23
REMARK    4  A    between atoms: C_10  and  C_11
REMARK    5  A    between atoms: N_13  and  N_14
REMARK    6  A    between atoms: N_17  and  C_18
REMARK    7  A    between atoms: C_18  and  C_19
REMARK    8  A    between atoms: C_19  and  C_20
REMARK    9  A    between atoms: C_20  and  O_21
REMARK   10  A    between atoms: O_21  and  C_22
REMARK                            x       y       z     vdW  Elec       q    Type
REMARK                         _______ _______ _______ _____ _____    ______ ____
ROOT
ATOM      1  C   UNL     1       3.216  -0.290   1.211  0.00  0.00    +0.267 C 
ATOM      2  O   UNL     1       3.442   0.902   1.298  0.00  0.00    -0.268 OA
ATOM      3  N   UNL     1       3.858  -1.158   2.018  0.00  0.00    -0.229 N 
ATOM      4  H   UNL     1       3.677  -2.109   1.948  0.00  0.00    +0.173 HD
ENDROOT
BRANCH   1  14
ATOM      5  C   UNL     1       1.632   1.431  -0.722  0.00  0.00    +0.046 C 
ATOM      6  C   UNL     1       1.502  -0.069  -0.663  0.00  0.00    -0.020 A 
ATOM      7  C   UNL     1       0.622  -0.734  -1.532  0.00  0.00    +0.032 A 
ATOM      8  C   UNL     1      -0.230  -0.199  -2.530  0.00  0.00    +0.050 A 
ATOM      9  N   UNL     1      -0.982  -1.011  -3.239  0.00  0.00    -0.237 NA
ATOM     10  C   UNL     1      -0.977  -2.321  -3.058  0.00  0.00    +0.128 A 
ATOM     11  N   UNL     1      -0.208  -2.885  -2.147  0.00  0.00    -0.225 NA
ATOM     12  C   UNL     1       0.577  -2.146  -1.393  0.00  0.00    +0.113 A 
ATOM     13  S   UNL     1       1.737  -2.465  -0.090  0.00  0.00    -0.064 S 
ATOM     14  C   UNL     1       2.241  -0.783   0.227  0.00  0.00    +0.081 A 
ATOM     15  C   UNL     1      -1.868  -3.187  -3.911  0.00  0.00    +0.088 C 
ATOM     16  C   UNL     1      -0.274   1.288  -2.775  0.00  0.00    +0.066 C 
ENDBRANCH   1  14
BRANCH   3  17
ATOM     17  N   UNL     1       4.786  -0.688   2.955  0.00  0.00    -0.218 N 
ATOM     18  C   UNL     1       5.428  -1.556   3.762  0.00  0.00    +0.316 C 
ATOM     19  O   UNL     1       6.234  -1.148   4.576  0.00  0.00    -0.251 OA
ATOM     20  N   UNL     1       5.177  -2.877   3.666  0.00  0.00    -0.298 N 
ATOM     21  H   UNL     1       4.967   0.263   3.024  0.00  0.00    +0.174 HD
ATOM     22  H   UNL     1       4.534  -3.203   3.017  0.00  0.00    +0.150 HD
BRANCH  20  23
ATOM     23  C   UNL     1       5.875  -3.821   4.542  0.00  0.00    +0.108 C 
BRANCH  23  24
ATOM     24  C   UNL     1       5.410  -5.245   4.231  0.00  0.00    +0.047 C 
BRANCH  24  25
ATOM     25  C   UNL     1       6.139  -6.231   5.146  0.00  0.00    +0.161 C 
BRANCH  25  26
ATOM     26  O   UNL     1       5.705  -7.561   4.855  0.00  0.00    -0.383 OA
ATOM     27  C   UNL     1       6.329  -8.565   5.659  0.00  0.00    +0.193 C 
ENDBRANCH  25  26
ENDBRANCH  24  25
ENDBRANCH  23  24
ENDBRANCH  20  23
ENDBRANCH   3  17
TORSDOF 6
