REMARK  Name = ZINC67589289
REMARK  7 active torsions:
REMARK  status: ('A' for Active; 'I' for Inactive)
REMARK    1  A    between atoms: C_6  and  O_7
REMARK    2  A    between atoms: O_7  and  C_8
REMARK    3  A    between atoms: C_8  and  C_9
REMARK    4  A    between atoms: C_9  and  C_11
REMARK    5  A    between atoms: C_9  and  O_26
REMARK    6  A    between atoms: C_11  and  N_12
REMARK    7  A    between atoms: N_15  and  C_16
REMARK                            x       y       z     vdW  Elec       q    Type
REMARK                         _______ _______ _______ _____ _____    ______ ____
ROOT
ATOM      1  N   UNL     1      -6.017  -0.981  -0.072  0.00  0.00    -0.297 N 
ATOM      2  C   UNL     1      -7.268  -0.485  -0.159  0.00  0.00    +0.300 C 
ATOM      3  O   UNL     1      -7.441   0.715  -0.242  0.00  0.00    -0.253 OA
ATOM      4  N   UNL     1      -8.325  -1.321  -0.153  0.00  0.00    -0.294 N 
ATOM      5  H   UNL     1      -5.879  -1.939  -0.005  0.00  0.00    +0.150 HD
ATOM      6  H   UNL     1      -8.187  -2.278  -0.086  0.00  0.00    +0.151 HD
ENDROOT
BRANCH   4   7
ATOM      7  C   UNL     1      -9.685  -0.782  -0.248  0.00  0.00    +0.037 C 
ATOM      8  C   UNL     1      -9.835  -0.004  -1.557  0.00  0.00    +0.029 C 
ATOM      9  C   UNL     1     -11.254   0.558  -1.656  0.00  0.00    -0.008 C 
ATOM     10  C   UNL     1     -12.262  -0.593  -1.628  0.00  0.00    +0.007 C 
ATOM     11  C   UNL     1     -12.112  -1.371  -0.319  0.00  0.00    -0.008 C 
ATOM     12  C   UNL     1     -10.692  -1.933  -0.220  0.00  0.00    +0.029 C 
ATOM     13  C   UNL     1     -12.373  -0.435   0.863  0.00  0.00    +0.007 C 
ATOM     14  C   UNL     1     -11.366   0.716   0.835  0.00  0.00    -0.008 C 
ATOM     15  C   UNL     1     -11.516   1.494  -0.474  0.00  0.00    +0.007 C 
ATOM     16  C   UNL     1      -9.946   0.153   0.934  0.00  0.00    +0.029 C 
ENDBRANCH   4   7
BRANCH   1  17
ATOM     17  C   UNL     1      -4.868  -0.073  -0.078  0.00  0.00    +0.140 C 
BRANCH  17  18
ATOM     18  C   UNL     1      -3.576  -0.886   0.031  0.00  0.00    +0.169 C 
BRANCH  18  19
ATOM     19  O   UNL     1      -3.585  -1.634   1.248  0.00  0.00    -0.387 OA
ATOM     20  H   UNL     1      -3.648  -1.089   2.045  0.00  0.00    +0.210 HD
ENDBRANCH  18  19
BRANCH  18  21
ATOM     21  C   UNL     1      -2.375   0.063   0.025  0.00  0.00    +0.261 C 
BRANCH  21  22
ATOM     22  O   UNL     1      -1.166  -0.700   0.009  0.00  0.00    -0.489 OA
BRANCH  22  28
ATOM     23  C   UNL     1      -0.017   1.382   0.010  0.00  0.00    +0.049 A 
ATOM     24  C   UNL     1       1.170   2.092   0.002  0.00  0.00    +0.053 A 
ATOM     25  C   UNL     1       2.381   1.419  -0.013  0.00  0.00    +0.166 A 
ATOM     26  C   UNL     1       2.402   0.027  -0.021  0.00  0.00    +0.170 A 
ATOM     27  C   UNL     1       1.212  -0.682  -0.012  0.00  0.00    +0.095 A 
ATOM     28  C   UNL     1       0.002  -0.004   0.002  0.00  0.00    +0.124 A 
ATOM     29  O   UNL     1       3.702  -0.390  -0.037  0.00  0.00    -0.452 OA
ATOM     30  C   UNL     1       4.468   0.757  -0.451  0.00  0.00    +0.466 C 
ATOM     31  O   UNL     1       3.668   1.875  -0.024  0.00  0.00    -0.453 OA
ENDBRANCH  22  28
ENDBRANCH  21  22
ENDBRANCH  18  21
ENDBRANCH  17  18
ENDBRANCH   1  17
TORSDOF 7
