REMARK  Name = ZINC55161450
REMARK  6 active torsions:
REMARK  status: ('A' for Active; 'I' for Inactive)
REMARK    1  A    between atoms: C_1  and  C_2
REMARK    2  A    between atoms: C_6  and  C_23
REMARK    3  A    between atoms: C_10  and  C_12
REMARK    4  A    between atoms: C_17  and  C_20
REMARK    5  A    between atoms: C_20  and  C_21
REMARK    6  A    between atoms: C_21  and  N_22
REMARK                            x       y       z     vdW  Elec       q    Type
REMARK                         _______ _______ _______ _____ _____    ______ ____
ROOT
ATOM      1  C   UNL     1      -0.030   1.593   0.058  0.00  0.00    +0.028 C 
ATOM      2  C   UNL     1       0.214   0.094  -0.133  0.00  0.00    +0.073 C 
ATOM      3  C   UNL     1       0.981  -0.139  -1.439  0.00  0.00    +0.023 C 
ATOM      4  C   UNL     1       1.343  -1.621  -1.555  0.00  0.00    +0.016 C 
ATOM      5  C   UNL     1       2.247  -2.021  -0.387  0.00  0.00    +0.092 C 
ATOM      6  C   UNL     1       1.495  -1.809   0.931  0.00  0.00    +0.120 C 
ATOM      7  N   UNL     1       1.014  -0.421   0.986  0.00  0.00    -0.298 N 
ATOM      8  C   UNL     1       1.304   0.365   2.042  0.00  0.00    +0.219 C 
ATOM      9  O   UNL     1       0.818   1.473   2.125  0.00  0.00    -0.275 OA
ENDROOT
BRANCH   8  10
ATOM     10  C   UNL     1       2.232  -0.133   3.120  0.00  0.00    +0.075 C 
ATOM     11  C   UNL     1       1.569  -1.289   3.870  0.00  0.00    +0.013 C 
ATOM     12  C   UNL     1       2.511  -1.795   4.964  0.00  0.00    +0.001 C 
ATOM     13  C   UNL     1       2.812  -0.658   5.943  0.00  0.00    +0.003 C 
ATOM     14  C   UNL     1       3.476   0.498   5.193  0.00  0.00    -0.012 C 
ATOM     15  C   UNL     1       2.534   1.004   4.098  0.00  0.00    +0.016 C 
BRANCH  14  16
ATOM     16  C   UNL     1       3.778   1.635   6.171  0.00  0.00    -0.016 C 
BRANCH  16  17
ATOM     17  C   UNL     1       4.816   1.167   7.193  0.00  0.00    -0.086 C 
BRANCH  17  18
ATOM     18  N   UNL     1       5.105   2.258   8.133  0.00  0.00    +0.378 N 
ATOM     19  H   UNL     1       5.467   3.052   7.625  0.00  0.00    -0.090 HD
ATOM     20  H   UNL     1       4.258   2.523   8.612  0.00  0.00    -0.090 HD
ATOM     21  H   UNL     1       5.790   1.949   8.806  0.00  0.00    -0.090 HD
ENDBRANCH  17  18
ENDBRANCH  16  17
ENDBRANCH  14  16
ENDBRANCH   8  10
BRANCH   5  22
ATOM     22  C   UNL     1       3.490  -1.170  -0.399  0.00  0.00    +0.215 C 
ATOM     23  O   UNL     1       3.753  -0.465   0.552  0.00  0.00    -0.276 OA
ATOM     24  N   UNL     1       4.311  -1.192  -1.468  0.00  0.00    -0.329 N 
ATOM     25  H   UNL     1       4.102  -1.756  -2.229  0.00  0.00    +0.145 HD
ATOM     26  H   UNL     1       5.112  -0.644  -1.476  0.00  0.00    +0.145 HD
ENDBRANCH   5  22
TORSDOF 5
