REMARK  Name = ZINC38551043
REMARK  8 active torsions:
REMARK  status: ('A' for Active; 'I' for Inactive)
REMARK    1  A    between atoms: C_1  and  C_2
REMARK    2  A    between atoms: N_8  and  C_9
REMARK    3  A    between atoms: C_9  and  C_11
REMARK    4  A    between atoms: C_9  and  C_19
REMARK    5  A    between atoms: C_14  and  O_17
REMARK    6  A    between atoms: O_17  and  C_18
REMARK    7  A    between atoms: C_23  and  N_24
REMARK    8  A    between atoms: C_25  and  C_27
REMARK                            x       y       z     vdW  Elec       q    Type
REMARK                         _______ _______ _______ _____ _____    ______ ____
ROOT
ATOM      1  C   UNL     1      -0.088  -2.027   3.593  0.00  0.00    +0.135 C 
ENDROOT
BRANCH   1   9
ATOM      2  C   UNL     1      -2.566  -6.446   4.380  0.00  0.00    +0.044 C 
ATOM      3  C   UNL     1      -1.831  -5.827   3.220  0.00  0.00    -0.046 A 
ATOM      4  C   UNL     1      -1.686  -6.516   2.022  0.00  0.00    +0.021 A 
ATOM      5  C   UNL     1      -1.007  -5.921   0.978  0.00  0.00    +0.084 A 
ATOM      6  N   UNL     1      -0.497  -4.711   1.104  0.00  0.00    -0.350 N 
ATOM      7  C   UNL     1      -0.613  -4.022   2.229  0.00  0.00    +0.097 A 
ATOM      8  C   UNL     1      -1.289  -4.558   3.321  0.00  0.00    +0.045 A 
ATOM      9  N   UNL     1      -0.059  -2.751   2.319  0.00  0.00    -0.320 N 
ATOM     10  H   UNL     1       0.347  -2.342   1.538  0.00  0.00    +0.148 HD
ATOM     11  H   UNL     1      -0.024  -4.316   0.355  0.00  0.00    +0.166 HD
ENDBRANCH   1   9
BRANCH   1  12
ATOM     12  C   UNL     1      -1.446  -1.402   3.785  0.00  0.00    +0.009 A 
ATOM     13  C   UNL     1      -2.063  -1.442   5.035  0.00  0.00    -0.030 A 
ATOM     14  C   UNL     1      -3.287  -0.857   5.129  0.00  0.00    -0.005 A 
ATOM     15  S   UNL     1      -3.594  -0.246   3.493  0.00  0.00    -0.078 S 
ATOM     16  C   UNL     1      -2.069  -0.793   2.741  0.00  0.00    +0.078 A 
ATOM     17  C   UNL     1      -4.160  -0.760   6.338  0.00  0.00    +0.043 C 
ATOM     18  C   UNL     1      -3.635  -1.745   7.393  0.00  0.00    +0.005 C 
ATOM     19  C   UNL     1      -2.119  -1.571   7.516  0.00  0.00    +0.005 C 
ATOM     20  C   UNL     1      -1.428  -2.099   6.257  0.00  0.00    +0.036 C 
BRANCH  16  21
ATOM     21  N   UNL     1      -1.632  -0.637   1.424  0.00  0.00    -0.273 N 
ATOM     22  C   UNL     1      -2.347   0.110   0.560  0.00  0.00    +0.284 C 
ATOM     23  O   UNL     1      -3.324   0.723   0.950  0.00  0.00    -0.266 OA
ATOM     24  H   UNL     1      -0.813  -1.067   1.131  0.00  0.00    +0.156 HD
BRANCH  22  25
ATOM     25  C   UNL     1      -1.949   0.185  -0.849  0.00  0.00    +0.189 A 
ATOM     26  C   UNL     1      -2.521   0.977  -1.803  0.00  0.00    +0.054 A 
ATOM     27  C   UNL     1      -1.829   0.730  -2.999  0.00  0.00    +0.042 A 
ATOM     28  C   UNL     1      -0.878  -0.190  -2.726  0.00  0.00    +0.196 A 
ATOM     29  O   UNL     1      -0.950  -0.512  -1.428  0.00  0.00    -0.458 OA
ENDBRANCH  22  25
ENDBRANCH  16  21
ENDBRANCH   1  12
BRANCH   1  30
ATOM     30  C   UNL     1       0.965  -0.949   3.582  0.00  0.00    -0.023 A 
ATOM     31  C   UNL     1       1.249  -0.274   2.409  0.00  0.00    +0.009 A 
ATOM     32  C   UNL     1       2.214   0.715   2.397  0.00  0.00    +0.046 A 
ATOM     33  C   UNL     1       2.897   1.030   3.562  0.00  0.00    +0.120 A 
ATOM     34  C   UNL     1       2.610   0.351   4.737  0.00  0.00    +0.046 A 
ATOM     35  C   UNL     1       1.641  -0.633   4.746  0.00  0.00    +0.009 A 
BRANCH  33  36
ATOM     36  O   UNL     1       3.847   2.002   3.552  0.00  0.00    -0.495 OA
ATOM     37  C   UNL     1       4.511   2.273   4.788  0.00  0.00    +0.277 C 
ENDBRANCH  33  36
ENDBRANCH   1  30
TORSDOF 6
