REMARK  Name = ZINC36266772
REMARK  6 active torsions:
REMARK  status: ('A' for Active; 'I' for Inactive)
REMARK    1  A    between atoms: C_1  and  C_2
REMARK    2  A    between atoms: C_5  and  S_9
REMARK    3  A    between atoms: S_9  and  N_12
REMARK    4  A    between atoms: N_12  and  C_13
REMARK    5  A    between atoms: C_13  and  C_14
REMARK    6  A    between atoms: C_14  and  N_21
REMARK                            x       y       z     vdW  Elec       q    Type
REMARK                         _______ _______ _______ _____ _____    ______ ____
ROOT
ATOM      1  N   UNL     1       0.584  -5.178   2.713  0.00  0.00    -0.191 NA
ATOM      2  H   UNL     1       0.576  -6.037   3.163  0.00  0.00    +0.148 HD
ENDROOT
BRANCH   1   3
ATOM      3  S   UNL     1      -0.776  -4.233   2.707  0.00  0.00    +0.060 S 
ATOM      4  O   UNL     1      -0.366  -2.929   3.094  0.00  0.00    -0.153 OA
ATOM      5  O   UNL     1      -1.776  -4.958   3.410  0.00  0.00    -0.153 OA
BRANCH   3  10
ATOM      6  C   UNL     1      -2.643  -3.826  -3.017  0.00  0.00    +0.044 C 
ATOM      7  C   UNL     1      -2.176  -3.928  -1.587  0.00  0.00    -0.049 A 
ATOM      8  C   UNL     1      -2.963  -4.567  -0.647  0.00  0.00    +0.005 A 
ATOM      9  C   UNL     1      -2.535  -4.660   0.664  0.00  0.00    +0.030 A 
ATOM     10  C   UNL     1      -1.321  -4.115   1.036  0.00  0.00    +0.123 A 
ATOM     11  C   UNL     1      -0.533  -3.475   0.095  0.00  0.00    +0.068 A 
ATOM     12  C   UNL     1      -0.959  -3.387  -1.218  0.00  0.00    +0.025 A 
ATOM     13 CL   UNL     1       0.992  -2.789   0.561  0.00  0.00    -0.082 Cl
ENDBRANCH   3  10
ENDBRANCH   1   3
BRANCH   1  14
ATOM     14  C   UNL     1       1.800  -4.715   2.038  0.00  0.00    +0.093 C 
BRANCH  14  15
ATOM     15  C   UNL     1       2.990  -5.561   2.495  0.00  0.00    -0.057 C 
ATOM     16  C   UNL     1       4.191  -5.269   1.576  0.00  0.00    -0.012 C 
ATOM     17  C   UNL     1       4.910  -3.954   1.932  0.00  0.00    -0.001 C 
ATOM     18  C   UNL     1       3.949  -2.843   2.259  0.00  0.00    -0.000 C 
ATOM     19  C   UNL     1       3.741  -2.808   3.786  0.00  0.00    -0.000 C 
ATOM     20  C   UNL     1       2.797  -3.819   4.240  0.00  0.00    -0.001 C 
ATOM     21  C   UNL     1       3.281  -5.253   3.939  0.00  0.00    -0.012 C 
BRANCH  15  22
ATOM     22  N   UNL     1       2.636  -6.982   2.375  0.00  0.00    +0.383 N 
ATOM     23  H   UNL     1       2.416  -7.194   1.413  0.00  0.00    -0.089 HD
ATOM     24  H   UNL     1       3.416  -7.549   2.674  0.00  0.00    -0.089 HD
ATOM     25  H   UNL     1       1.835  -7.179   2.955  0.00  0.00    -0.089 HD
ENDBRANCH  15  22
ENDBRANCH  14  15
ENDBRANCH   1  14
TORSDOF 5
