REMARK  Name = ZINC50956290
REMARK  3 active torsions:
REMARK  status: ('A' for Active; 'I' for Inactive)
REMARK    1  A    between atoms: C_6  and  C_7
REMARK    2  A    between atoms: C_12  and  N_16
REMARK    3  A    between atoms: C_20  and  C_23
REMARK                            x       y       z     vdW  Elec       q    Type
REMARK                         _______ _______ _______ _____ _____    ______ ____
ROOT
ATOM      1  C   UNL     1      -1.269  -0.765  -0.104  0.00  0.00    +0.022 A 
ATOM      2  C   UNL     1      -1.450  -2.112  -0.068  0.00  0.00    +0.044 A 
ATOM      3  C   UNL     1      -2.747  -2.643  -0.019  0.00  0.00    +0.084 A 
ATOM      4  C   UNL     1      -3.793  -1.692  -0.010  0.00  0.00    +0.078 A 
ATOM      5  S   UNL     1      -2.940  -0.139  -0.062  0.00  0.00    -0.083 S 
ATOM      6  C   UNL     1      -5.118  -2.088   0.037  0.00  0.00    +0.139 A 
ATOM      7  N   UNL     1      -5.387  -3.394   0.075  0.00  0.00    -0.220 NA
ATOM      8  C   UNL     1      -4.401  -4.273   0.066  0.00  0.00    +0.224 A 
ATOM      9  N   UNL     1      -3.137  -3.942   0.022  0.00  0.00    -0.235 NA
ENDROOT
BRANCH   1  15
ATOM     10  C   UNL     1      -0.020   1.389  -0.183  0.00  0.00    +0.010 A 
ATOM     11  C   UNL     1       1.166   2.092  -0.233  0.00  0.00    +0.020 A 
ATOM     12  C   UNL     1       2.374   1.416  -0.259  0.00  0.00    +0.041 A 
ATOM     13  C   UNL     1       2.399   0.032  -0.234  0.00  0.00    +0.020 A 
ATOM     14  C   UNL     1       1.220  -0.682  -0.184  0.00  0.00    +0.010 A 
ATOM     15  C   UNL     1      -0.001  -0.006  -0.158  0.00  0.00    -0.011 A 
ATOM     16 CL   UNL     1       3.862   2.307  -0.323  0.00  0.00    -0.084 Cl
ENDBRANCH   1  15
BRANCH   6  17
ATOM     17  N   UNL     1      -6.139  -1.151   0.046  0.00  0.00    -0.309 N 
ATOM     18  C   UNL     1      -5.847   0.287   0.149  0.00  0.00    +0.134 C 
ATOM     19  C   UNL     1      -6.710   0.877   1.270  0.00  0.00    +0.180 C 
ATOM     20  O   UNL     1      -8.077   0.521   1.048  0.00  0.00    -0.364 OA
ATOM     21  C   UNL     1      -8.329  -0.886   1.082  0.00  0.00    +0.221 C 
ATOM     22  C   UNL     1      -7.548  -1.565  -0.054  0.00  0.00    +0.147 C 
BRANCH  21  23
ATOM     23  C   UNL     1      -9.803  -1.138   0.899  0.00  0.00    +0.241 C 
ATOM     24  O   UNL     1     -10.552  -0.214   0.664  0.00  0.00    -0.273 OA
ATOM     25  N   UNL     1     -10.290  -2.391   0.998  0.00  0.00    -0.327 N 
ATOM     26  H   UNL     1      -9.691  -3.131   1.186  0.00  0.00    +0.145 HD
ATOM     27  H   UNL     1     -11.239  -2.554   0.880  0.00  0.00    +0.145 HD
ENDBRANCH  21  23
ENDBRANCH   6  17
TORSDOF 3
