REMARK  Name = ZINC06811900
REMARK  9 active torsions:
REMARK  status: ('A' for Active; 'I' for Inactive)
REMARK    1  A    between atoms: C_1  and  C_2
REMARK    2  A    between atoms: C_2  and  C_3
REMARK    3  A    between atoms: C_9  and  C_26
REMARK    4  A    between atoms: C_11  and  C_14
REMARK    5  A    between atoms: N_16  and  C_17
REMARK    6  A    between atoms: C_20  and  O_23
REMARK    7  A    between atoms: O_23  and  C_24
REMARK    8  A    between atoms: C_24  and  C_25
REMARK    9  A    between atoms: C_29  and  C_32
REMARK                            x       y       z     vdW  Elec       q    Type
REMARK                         _______ _______ _______ _____ _____    ______ ____
ROOT
ATOM      1  C   UNL     1      -4.993   1.468   2.302  0.00  0.00    +0.151 A 
ATOM      2  N   UNL     1      -6.072   0.755   2.129  0.00  0.00    -0.132 NA
ATOM      3  N   UNL     1      -6.019   0.137   1.000  0.00  0.00    -0.121 NA
ATOM      4  C   UNL     1      -4.899   0.427   0.399  0.00  0.00    +0.209 A 
ATOM      5  N   UNL     1      -4.207   1.290   1.200  0.00  0.00    -0.225 N 
ATOM      6  N   UNL     1      -2.998   1.854   0.944  0.00  0.00    -0.272 N 
ATOM      7  C   UNL     1      -2.200   1.117  -0.037  0.00  0.00    +0.140 C 
ATOM      8  C   UNL     1      -2.947   1.022  -1.374  0.00  0.00    +0.166 C 
ATOM      9  S   UNL     1      -4.318  -0.154  -1.164  0.00  0.00    -0.069 S 
ATOM     10  H   UNL     1      -2.479   2.000   1.796  0.00  0.00    +0.167 HD
ENDROOT
BRANCH   7  11
ATOM     11  C   UNL     1      -0.889   1.829  -0.248  0.00  0.00    -0.024 A 
ATOM     12  C   UNL     1       0.281   1.102  -0.363  0.00  0.00    +0.006 A 
ATOM     13  C   UNL     1       1.484   1.754  -0.562  0.00  0.00    +0.004 A 
ATOM     14  C   UNL     1       1.517   3.134  -0.641  0.00  0.00    -0.050 A 
ATOM     15  C   UNL     1       0.347   3.861  -0.521  0.00  0.00    +0.004 A 
ATOM     16  C   UNL     1      -0.855   3.208  -0.323  0.00  0.00    +0.006 A 
ATOM     17  C   UNL     1       2.827   3.845  -0.857  0.00  0.00    +0.044 C 
ENDBRANCH   7  11
BRANCH   8  18
ATOM     18  C   UNL     1      -3.489   2.376  -1.752  0.00  0.00    +0.233 C 
ATOM     19  O   UNL     1      -3.801   3.168  -0.888  0.00  0.00    -0.274 OA
ATOM     20  N   UNL     1      -3.629   2.707  -3.051  0.00  0.00    -0.285 N 
ATOM     21  H   UNL     1      -3.309   2.106  -3.742  0.00  0.00    +0.155 HD
BRANCH  20  22
ATOM     22  C   UNL     1      -4.235   3.920  -3.404  0.00  0.00    +0.034 A 
ATOM     23  C   UNL     1      -5.257   4.439  -2.621  0.00  0.00    +0.027 A 
ATOM     24  C   UNL     1      -5.851   5.637  -2.966  0.00  0.00    +0.047 A 
ATOM     25  C   UNL     1      -5.433   6.317  -4.101  0.00  0.00    +0.121 A 
ATOM     26  C   UNL     1      -4.415   5.796  -4.887  0.00  0.00    +0.047 A 
ATOM     27  C   UNL     1      -3.817   4.601  -4.540  0.00  0.00    +0.027 A 
BRANCH  25  28
ATOM     28  O   UNL     1      -6.022   7.494  -4.444  0.00  0.00    -0.492 OA
BRANCH  28  29
ATOM     29  C   UNL     1      -7.063   7.971  -3.590  0.00  0.00    +0.225 C 
ATOM     30  C   UNL     1      -7.600   9.297  -4.132  0.00  0.00    +0.048 C 
ENDBRANCH  28  29
ENDBRANCH  25  28
ENDBRANCH  20  22
ENDBRANCH   8  18
BRANCH   1  32
ATOM     31  C   UNL     1      -5.205   3.744   3.263  0.00  0.00    +0.012 C 
ATOM     32  C   UNL     1      -4.673   2.329   3.497  0.00  0.00    +0.074 C 
ENDBRANCH   1  32
TORSDOF 6
