REMARK  Name = ZINC04596805
REMARK  6 active torsions:
REMARK  status: ('A' for Active; 'I' for Inactive)
REMARK    1  A    between atoms: C_3  and  N_16
REMARK    2  A    between atoms: C_4  and  N_13
REMARK    3  A    between atoms: C_6  and  C_7
REMARK    4  A    between atoms: N_8  and  N_9
REMARK    5  A    between atoms: N_9  and  C_10
REMARK    6  A    between atoms: C_10  and  N_12
REMARK                            x       y       z     vdW  Elec       q    Type
REMARK                         _______ _______ _______ _____ _____    ______ ____
ROOT
ATOM      1  C   UNL     1      -2.027   5.402   3.774  0.00  0.00    +0.011 A 
ATOM      2  C   UNL     1      -1.435   4.911   2.631  0.00  0.00    +0.026 A 
ATOM      3  C   UNL     1      -1.427   3.542   2.384  0.00  0.00    +0.060 A 
ATOM      4  C   UNL     1      -2.005   2.664   3.294  0.00  0.00    +0.148 A 
ATOM      5  C   UNL     1      -2.594   3.147   4.441  0.00  0.00    +0.044 A 
ATOM      6  C   UNL     1      -2.609   4.522   4.691  0.00  0.00    -0.003 A 
ENDROOT
BRANCH   3   7
ATOM      7  N   UNL     1      -0.832   3.049   1.222  0.00  0.00    -0.324 N 
ATOM      8  C   UNL     1      -1.470   3.612   0.023  0.00  0.00    +0.133 C 
ATOM      9  C   UNL     1      -0.827   3.001  -1.225  0.00  0.00    +0.178 C 
ATOM     10  O   UNL     1       0.583   3.242  -1.196  0.00  0.00    -0.377 OA
ATOM     11  C   UNL     1       1.236   2.706  -0.042  0.00  0.00    +0.178 C 
ATOM     12  C   UNL     1       0.614   3.315   1.218  0.00  0.00    +0.133 C 
ENDBRANCH   3   7
BRANCH   4  13
ATOM     13  N   UNL     1      -1.989   1.207   3.028  0.00  0.00    +0.058 N 
ATOM     14  O   UNL     1      -2.579   0.446   3.773  0.00  0.00    -0.126 OA
ATOM     15  O   UNL     1      -1.384   0.771   2.065  0.00  0.00    -0.126 OA
ENDBRANCH   4  13
BRANCH   6  16
ATOM     16  C   UNL     1      -3.238   5.043   5.918  0.00  0.00    +0.138 C 
ATOM     17  N   UNL     1      -3.251   6.321   6.148  0.00  0.00    -0.188 NA
BRANCH  17  18
ATOM     18  N   UNL     1      -3.849   6.816   7.315  0.00  0.00    -0.219 N 
ATOM     19  H   UNL     1      -4.252   6.204   7.950  0.00  0.00    +0.176 HD
BRANCH  18  20
ATOM     20  C   UNL     1      -3.863   8.142   7.554  0.00  0.00    +0.147 C 
ATOM     21  S   UNL     1      -4.593   8.748   8.979  0.00  0.00    -0.017 S 
BRANCH  20  22
ATOM     22  N   UNL     1      -3.302   8.992   6.670  0.00  0.00    -0.339 N 
ATOM     23  H   UNL     1      -2.889   8.649   5.863  0.00  0.00    +0.144 HD
ATOM     24  H   UNL     1      -3.312   9.947   6.842  0.00  0.00    +0.144 HD
ENDBRANCH  20  22
ENDBRANCH  18  20
ENDBRANCH  17  18
ENDBRANCH   6  16
TORSDOF 6
