REMARK  Name = ZINC16887327
REMARK  14 active torsions:
REMARK  status: ('A' for Active; 'I' for Inactive)
REMARK    1  A    between atoms: C_1  and  C_2
REMARK    2  A    between atoms: C_5  and  S_8
REMARK    3  A    between atoms: S_8  and  N_11
REMARK    4  A    between atoms: N_11  and  C_12
REMARK    5  A    between atoms: C_12  and  C_14
REMARK    6  A    between atoms: C_12  and  C_23
REMARK    7  A    between atoms: C_14  and  S_15
REMARK    8  A    between atoms: S_15  and  C_16
REMARK    9  A    between atoms: C_16  and  C_17
REMARK   10  A    between atoms: N_25  and  CA_26
REMARK   11  A    between atoms: CA_26  and  CB_28
REMARK   12  A    between atoms: CA_26  and  C_31
REMARK   13  A    between atoms: CB_28  and  CG1_29
REMARK   14  A    between atoms: CB_28  and  CG2_30
REMARK                            x       y       z     vdW  Elec       q    Type
REMARK                         _______ _______ _______ _____ _____    ______ ____
ROOT
ATOM      1  C   UNK A   0       4.398   5.188  -0.505  0.00  0.00    +0.172 C 
ENDROOT
BRANCH   1   2
ATOM      2  C   UNK A   0       2.959   4.742  -0.494  0.00  0.00    +0.233 C 
ATOM      3  O   UNK A   0       2.094   5.473  -0.926  0.00  0.00    -0.274 OA
ATOM      4  N   VAL A   1       2.634   3.529  -0.004  0.00  0.00    -0.301 N 
ATOM      5  H   VAL A   1       3.326   2.944   0.341  0.00  0.00    +0.150 HD
BRANCH   4   6
ATOM      6  CA  VAL A   1       1.235   3.094   0.007  0.00  0.00    +0.189 C 
BRANCH   6   7
ATOM      7  CB  VAL A   1       0.546   3.625   1.266  0.00  0.00    +0.014 C 
ATOM      8  CG1 VAL A   1       0.605   5.154   1.273  0.00  0.00    +0.009 C 
ATOM      9  CG2 VAL A   1      -0.915   3.171   1.277  0.00  0.00    +0.009 C 
ENDBRANCH   6   7
BRANCH   6  10
ATOM     10  C   VAL A   1       1.177   1.588  -0.001  0.00  0.00    +0.376 C 
ATOM     11  O   VAL A   1       2.199   0.944  -0.014  0.00  0.00    -0.244 OA
ATOM     12  OXT VAL A   1      -0.011   0.963   0.007  0.00  0.00    -0.244 OA
ENDBRANCH   6  10
ENDBRANCH   4   6
ENDBRANCH   1   2
BRANCH   1  13
ATOM     13  N   UNK A   0       4.488   6.532  -1.083  0.00  0.00    -0.177 NA
ATOM     14  H   UNK A   0       4.543   6.644  -2.045  0.00  0.00    +0.149 HD
BRANCH  13  15
ATOM     15  S   UNK A   0       4.496   7.859  -0.093  0.00  0.00    +0.059 S 
ATOM     16  O   UNK A   0       4.617   8.995  -0.938  0.00  0.00    -0.153 OA
ATOM     17  O   UNK A   0       3.414   7.697   0.814  0.00  0.00    -0.153 OA
BRANCH  15  22
ATOM     18  C   UNK A   0       9.551   7.607   3.192  0.00  0.00    +0.044 C 
ATOM     19  C   UNK A   0       8.288   7.670   2.372  0.00  0.00    -0.050 A 
ATOM     20  C   UNK A   0       8.288   8.323   1.153  0.00  0.00    +0.005 A 
ATOM     21  C   UNK A   0       7.130   8.381   0.400  0.00  0.00    +0.029 A 
ATOM     22  C   UNK A   0       5.972   7.786   0.866  0.00  0.00    +0.105 A 
ATOM     23  C   UNK A   0       5.971   7.137   2.087  0.00  0.00    +0.029 A 
ATOM     24  C   UNK A   0       7.130   7.075   2.837  0.00  0.00    +0.005 A 
ENDBRANCH  15  22
ENDBRANCH  13  15
ENDBRANCH   1  13
BRANCH   1  25
ATOM     25  C   UNK A   0       5.228   4.216  -1.346  0.00  0.00    +0.099 C 
BRANCH  25  26
ATOM     26  S   UNK A   0       6.981   4.668  -1.239  0.00  0.00    -0.154 S 
BRANCH  26  27
ATOM     27  C   UNK A   0       7.816   3.435  -2.276  0.00  0.00    +0.104 C 
BRANCH  27  28
ATOM     28  C   UNK A   0       9.300   3.699  -2.274  0.00  0.00    -0.038 A 
ATOM     29  C   UNK A   0       9.855   4.531  -3.229  0.00  0.00    +0.004 A 
ATOM     30  C   UNK A   0      11.215   4.778  -3.225  0.00  0.00    +0.000 A 
ATOM     31  C   UNK A   0      12.022   4.184  -2.272  0.00  0.00    +0.000 A 
ATOM     32  C   UNK A   0      11.468   3.348  -1.321  0.00  0.00    +0.000 A 
ATOM     33  C   UNK A   0      10.107   3.106  -1.322  0.00  0.00    +0.004 A 
ENDBRANCH  27  28
ENDBRANCH  26  27
ENDBRANCH  25  26
ENDBRANCH   1  25
TORSDOF 11
