REMARK  Name = ZINC19562171
REMARK  7 active torsions:
REMARK  status: ('A' for Active; 'I' for Inactive)
REMARK    1  A    between atoms: C_1  and  O_2
REMARK    2  A    between atoms: O_2  and  C_3
REMARK    3  A    between atoms: C_9  and  O_34
REMARK    4  A    between atoms: N_16  and  C_19
REMARK    5  A    between atoms: C_19  and  C_20
REMARK    6  A    between atoms: C_20  and  C_22
REMARK    7  A    between atoms: C_20  and  O_33
REMARK                            x       y       z     vdW  Elec       q    Type
REMARK                         _______ _______ _______ _____ _____    ______ ____
ROOT
ATOM      1  C   UNL     1       1.144   6.385  -5.509  0.00  0.00    +0.121 A 
ATOM      2  C   UNL     1       2.254   5.765  -4.954  0.00  0.00    +0.049 A 
ATOM      3  C   UNL     1       2.250   4.400  -4.754  0.00  0.00    +0.049 A 
ATOM      4  C   UNL     1       1.138   3.642  -5.105  0.00  0.00    +0.127 A 
ATOM      5  C   UNL     1       0.030   4.262  -5.656  0.00  0.00    +0.026 A 
ATOM      6  C   UNL     1       0.036   5.632  -5.859  0.00  0.00    +0.055 A 
ATOM      7  C   UNL     1      -1.199   3.478  -6.042  0.00  0.00    +0.152 C 
ATOM      8  C   UNL     1      -0.847   1.992  -6.159  0.00  0.00    +0.084 C 
ATOM      9  C   UNL     1      -0.059   1.585  -4.909  0.00  0.00    +0.110 C 
ATOM     10  O   UNL     1       1.176   2.300  -4.895  0.00  0.00    -0.485 OA
ATOM     11  C   UNL     1       0.212   0.080  -4.943  0.00  0.00    +0.029 C 
ATOM     12  C   UNL     1       0.941  -0.333  -3.662  0.00  0.00    -0.075 C 
ATOM     13  N   UNL     1       0.116   0.011  -2.497  0.00  0.00    +0.382 N 
ATOM     14  C   UNL     1      -0.112   1.459  -2.416  0.00  0.00    -0.075 C 
ATOM     15  C   UNL     1      -0.871   1.928  -3.659  0.00  0.00    +0.029 C 
ATOM     16  H   UNL     1      -0.863  -0.476  -2.623  0.00  0.00    -0.082 HD
ENDROOT
BRANCH   1  18
ATOM     17  C   UNL     1       2.322   8.443  -5.322  0.00  0.00    +0.277 C 
ATOM     18  O   UNL     1       1.145   7.731  -5.708  0.00  0.00    -0.495 OA
ENDBRANCH   1  18
BRANCH   7  19
ATOM     19  O   UNL     1      -1.690   3.950  -7.298  0.00  0.00    -0.387 OA
ATOM     20  H   UNL     1      -2.586   3.495  -7.744  0.00  0.00    +0.210 HD
ENDBRANCH   7  19
BRANCH  13  21
ATOM     21  C   UNL     1       0.718  -0.497  -1.257  0.00  0.00    -0.042 C 
BRANCH  21  22
ATOM     22  C   UNL     1       0.704  -2.027  -1.272  0.00  0.00    +0.130 C 
BRANCH  22  23
ATOM     23  C   UNL     1       1.307  -2.549   0.007  0.00  0.00    +0.004 A 
ATOM     24  C   UNL     1       0.640  -2.903   1.117  0.00  0.00    +0.089 A 
ATOM     25  N   UNL     1       1.521  -3.331   2.073  0.00  0.00    -0.360 N 
ATOM     26  H   UNL     1       1.149  -3.669   3.051  0.00  0.00    +0.165 HD
ATOM     27  C   UNL     1       2.810  -3.252   1.591  0.00  0.00    +0.047 A 
ATOM     28  C   UNL     1       2.731  -2.758   0.276  0.00  0.00    +0.008 A 
ATOM     29  C   UNL     1       3.897  -2.571  -0.469  0.00  0.00    +0.048 A 
ATOM     30  C   UNL     1       5.120  -2.873   0.090  0.00  0.00    +0.124 A 
ATOM     31  C   UNL     1       5.196  -3.360   1.390  0.00  0.00    +0.040 A 
ATOM     32  C   UNL     1       4.054  -3.550   2.137  0.00  0.00    +0.029 A 
ATOM     33  F   UNL     1       6.250  -2.694  -0.627  0.00  0.00    -0.205 F 
ENDBRANCH  22  23
BRANCH  22  34
ATOM     34  O   UNL     1      -0.643  -2.490  -1.387  0.00  0.00    -0.389 OA
ATOM     35  H   UNL     1      -0.854  -3.569  -1.415  0.00  0.00    +0.210 HD
ENDBRANCH  22  34
ENDBRANCH  21  22
ENDBRANCH  13  21
TORSDOF 6
