REMARK  Name = ZINC08790249
REMARK  8 active torsions:
REMARK  status: ('A' for Active; 'I' for Inactive)
REMARK    1  A    between atoms: C_1  and  C_2
REMARK    2  A    between atoms: C_2  and  C_3
REMARK    3  A    between atoms: C_3  and  C_5
REMARK    4  A    between atoms: C_3  and  N_6
REMARK    5  A    between atoms: C_7  and  C_9
REMARK    6  A    between atoms: C_14  and  N_15
REMARK    7  A    between atoms: C_31  and  C_36
REMARK    8  A    between atoms: C_39  and  C_42
REMARK                            x       y       z     vdW  Elec       q    Type
REMARK                         _______ _______ _______ _____ _____    ______ ____
ROOT
ATOM      1  N   UNL     1      -5.174   3.101  -0.734  0.00  0.00    -0.192 N 
ATOM      2  C   UNL     1      -5.224   4.332  -0.184  0.00  0.00    +0.248 C 
ATOM      3  O   UNL     1      -5.538   4.612   0.953  0.00  0.00    -0.273 OA
ATOM      4  C   UNL     1      -4.807   5.292  -1.280  0.00  0.00    +0.170 C 
ATOM      5  C   UNL     1      -5.960   6.254  -1.588  0.00  0.00    +0.069 C 
ATOM      6  C   UNL     1      -5.836   6.747  -3.007  0.00  0.00    -0.015 A 
ATOM      7  C   UNL     1      -6.455   7.925  -3.589  0.00  0.00    +0.003 A 
ATOM      8  C   UNL     1      -7.295   8.909  -3.060  0.00  0.00    +0.010 A 
ATOM      9  C   UNL     1      -7.702   9.902  -3.917  0.00  0.00    +0.001 A 
ATOM     10  C   UNL     1      -7.306   9.937  -5.244  0.00  0.00    +0.002 A 
ATOM     11  C   UNL     1      -6.475   8.976  -5.793  0.00  0.00    +0.026 A 
ATOM     12  C   UNL     1      -6.045   7.956  -4.946  0.00  0.00    +0.047 A 
ATOM     13  N   UNL     1      -5.239   6.874  -5.151  0.00  0.00    -0.356 N 
ATOM     14  H   UNL     1      -4.815   6.645  -5.993  0.00  0.00    +0.166 HD
ATOM     15  C   UNL     1      -5.118   6.161  -3.988  0.00  0.00    +0.046 A 
ATOM     16  C   UNL     1      -4.305   4.896  -3.793  0.00  0.00    +0.155 C 
ATOM     17  N   UNL     1      -4.605   4.399  -2.442  0.00  0.00    -0.260 N 
ATOM     18  C   UNL     1      -4.798   3.148  -2.020  0.00  0.00    +0.317 C 
ATOM     19  O   UNL     1      -4.654   2.166  -2.721  0.00  0.00    -0.252 OA
ENDROOT
BRANCH  16  20
ATOM     20  C   UNL     1      -4.686   3.871  -4.830  0.00  0.00    -0.021 A 
ATOM     21  C   UNL     1      -5.826   3.108  -4.661  0.00  0.00    +0.006 A 
ATOM     22  C   UNL     1      -6.177   2.170  -5.614  0.00  0.00    +0.004 A 
ATOM     23  C   UNL     1      -5.384   1.990  -6.731  0.00  0.00    -0.050 A 
ATOM     24  C   UNL     1      -4.241   2.750  -6.898  0.00  0.00    +0.004 A 
ATOM     25  C   UNL     1      -3.892   3.690  -5.947  0.00  0.00    +0.006 A 
ATOM     26  C   UNL     1      -5.764   0.964  -7.768  0.00  0.00    +0.044 C 
ENDBRANCH  16  20
BRANCH   1  32
ATOM     27  C   UNL     1      -4.457   1.229   0.631  0.00  0.00    +0.059 A 
ATOM     28  C   UNL     1      -4.767   0.054   1.320  0.00  0.00    +0.015 A 
ATOM     29  C   UNL     1      -6.062  -0.417   1.327  0.00  0.00    +0.001 A 
ATOM     30  C   UNL     1      -7.060   0.268   0.653  0.00  0.00    +0.002 A 
ATOM     31  C   UNL     1      -6.767   1.431  -0.032  0.00  0.00    +0.025 A 
ATOM     32  C   UNL     1      -5.470   1.923  -0.046  0.00  0.00    +0.058 A 
BRANCH  27  34
ATOM     33  N   UNL     1      -2.103   1.072   1.277  0.00  0.00    -0.309 N 
ATOM     34  C   UNL     1      -3.073   1.740   0.621  0.00  0.00    +0.246 C 
ATOM     35  O   UNL     1      -2.807   2.762   0.019  0.00  0.00    -0.270 OA
ATOM     36  H   UNL     1      -2.316   0.256   1.757  0.00  0.00    +0.149 HD
BRANCH  33  37
ATOM     37  C   UNL     1      -0.729   1.579   1.267  0.00  0.00    +0.070 C 
ATOM     38  C   UNL     1      -0.013   1.086   0.008  0.00  0.00    +0.028 C 
BRANCH  37  40
ATOM     39  C   UNL     1      -0.630   1.667   3.762  0.00  0.00    +0.005 C 
ATOM     40  C   UNL     1       0.011   1.072   2.506  0.00  0.00    +0.018 C 
ENDBRANCH  37  40
ENDBRANCH  33  37
ENDBRANCH  27  34
ENDBRANCH   1  32
TORSDOF 5
