REMARK  Name = ZINC65975510
REMARK  9 active torsions:
REMARK  status: ('A' for Active; 'I' for Inactive)
REMARK    1  A    between atoms: C_1  and  C_2
REMARK    2  A    between atoms: C_2  and  C_3
REMARK    3  A    between atoms: C_2  and  N_12
REMARK    4  A    between atoms: N_8  and  C_9
REMARK    5  A    between atoms: C_9  and  C_10
REMARK    6  A    between atoms: N_12  and  C_13
REMARK    7  A    between atoms: C_16  and  N_19
REMARK    8  A    between atoms: N_19  and  C_20
REMARK    9  A    between atoms: C_21  and  C_23
REMARK                            x       y       z     vdW  Elec       q    Type
REMARK                         _______ _______ _______ _____ _____    ______ ____
ROOT
ATOM      1  C   UNL     1      -0.028   1.547   0.160  0.00  0.00    +0.038 C 
ATOM      2  C   UNL     1      -0.005   0.019   0.097  0.00  0.00    +0.154 C 
ENDROOT
BRANCH   2   3
ATOM      3  C   UNL     1      -1.418  -0.506   0.103  0.00  0.00    +0.240 C 
ATOM      4  O   UNL     1      -1.786  -1.245   0.990  0.00  0.00    -0.273 OA
ATOM      5  N   UNL     1      -2.272  -0.152  -0.878  0.00  0.00    -0.239 N 
ATOM      6  C   UNL     1      -3.535  -0.621  -0.874  0.00  0.00    +0.306 C 
ATOM      7  O   UNL     1      -3.905  -1.363   0.016  0.00  0.00    -0.252 OA
ATOM      8  N   UNL     1      -4.389  -0.268  -1.855  0.00  0.00    -0.296 N 
ATOM      9  H   UNL     1      -1.977   0.440  -1.588  0.00  0.00    +0.159 HD
ATOM     10  H   UNL     1      -4.094   0.324  -2.564  0.00  0.00    +0.151 HD
BRANCH   8  11
ATOM     11  C   UNL     1      -5.763  -0.778  -1.849  0.00  0.00    +0.132 C 
BRANCH  11  12
ATOM     12  C   UNL     1      -6.504  -0.237  -3.045  0.00  0.00    -0.016 C 
ATOM     13  C   UNL     1      -7.089  -1.060  -3.879  0.00  0.00    +0.005 C 
ENDBRANCH  11  12
ENDBRANCH   8  11
ENDBRANCH   2   3
BRANCH   2  14
ATOM     14  N   UNL     1       0.716  -0.507   1.259  0.00  0.00    -0.333 N 
ATOM     15  H   UNL     1       0.226  -0.778   2.051  0.00  0.00    +0.147 HD
BRANCH  14  16
ATOM     16  C   UNL     1       2.110  -0.618   1.226  0.00  0.00    +0.028 A 
ATOM     17  C   UNL     1       2.811  -0.225   0.094  0.00  0.00    +0.025 A 
ATOM     18  C   UNL     1       4.187  -0.335   0.061  0.00  0.00    +0.025 A 
ATOM     19  C   UNL     1       4.869  -0.839   1.160  0.00  0.00    +0.036 A 
ATOM     20  C   UNL     1       4.168  -1.233   2.292  0.00  0.00    +0.025 A 
ATOM     21  C   UNL     1       2.793  -1.117   2.328  0.00  0.00    +0.025 A 
BRANCH  19  22
ATOM     22  N   UNL     1       6.266  -0.951   1.127  0.00  0.00    -0.275 N 
ATOM     23  C   UNL     1       6.992  -0.689  -0.118  0.00  0.00    +0.138 C 
ATOM     24  C   UNL     1       6.941  -1.300   2.240  0.00  0.00    +0.216 C 
ATOM     25  O   UNL     1       6.335  -1.609   3.245  0.00  0.00    -0.276 OA
ATOM     26  C   UNL     1       8.448  -1.306   2.237  0.00  0.00    +0.109 C 
ENDBRANCH  19  22
ENDBRANCH  14  16
ENDBRANCH   2  14
TORSDOF 6
