REMARK  Name = ZINC65496120
REMARK  8 active torsions:
REMARK  status: ('A' for Active; 'I' for Inactive)
REMARK    1  A    between atoms: C_1  and  C_2
REMARK    2  A    between atoms: C_4  and  C_13
REMARK    3  A    between atoms: C_6  and  S_9
REMARK    4  A    between atoms: C_7  and  C_8
REMARK    5  A    between atoms: S_9  and  N_12
REMARK    6  A    between atoms: C_21  and  C_25
REMARK    7  A    between atoms: C_25  and  C_26
REMARK    8  A    between atoms: C_25  and  C_27
REMARK                            x       y       z     vdW  Elec       q    Type
REMARK                         _______ _______ _______ _____ _____    ______ ____
ROOT
ATOM      1  C   UNL     1      -1.612  -7.121  -4.409  0.00  0.00    +0.044 C 
ATOM      2  C   UNL     1      -0.766  -6.370  -3.413  0.00  0.00    -0.045 A 
ATOM      3  C   UNL     1      -0.763  -4.990  -3.413  0.00  0.00    +0.016 A 
ATOM      4  C   UNL     1       0.020  -4.297  -2.490  0.00  0.00    +0.039 A 
ATOM      5  C   UNL     1       0.796  -5.005  -1.571  0.00  0.00    +0.041 A 
ATOM      6  C   UNL     1       0.784  -6.384  -1.581  0.00  0.00    +0.109 A 
ATOM      7  C   UNL     1       0.001  -7.066  -2.496  0.00  0.00    -0.021 A 
ATOM      8  C   UNL     1      -0.011  -8.573  -2.497  0.00  0.00    +0.046 C 
ENDROOT
BRANCH   4   9
ATOM      9  C   UNL     1       0.029  -2.818  -2.485  0.00  0.00    +0.247 C 
ATOM     10  O   UNL     1      -0.042  -2.214  -1.433  0.00  0.00    -0.270 OA
ATOM     11  N   UNL     1       0.115  -2.141  -3.647  0.00  0.00    -0.293 N 
ATOM     12  C   UNL     1       0.212  -0.674  -3.664  0.00  0.00    +0.114 C 
ATOM     13  C   UNL     1       1.562  -0.261  -4.262  0.00  0.00    +0.076 C 
ATOM     14  C   UNL     1       1.812  -1.069  -5.517  0.00  0.00    +0.067 C 
ATOM     15  C   UNL     1       1.167  -2.206  -5.799  0.00  0.00    -0.003 C 
ATOM     16  C   UNL     1       0.121  -2.850  -4.942  0.00  0.00    +0.143 C 
ATOM     17  C   UNL     1       1.731  -2.658  -7.120  0.00  0.00    +0.160 C 
ATOM     18  N   UNL     1       2.712  -1.599  -7.430  0.00  0.00    -0.179 NA
ATOM     19  N   UNL     1       2.687  -0.780  -6.505  0.00  0.00    -0.158 NA
BRANCH  17  20
ATOM     20  C   UNL     1       2.419  -4.017  -6.981  0.00  0.00    +0.013 C 
ATOM     21  C   UNL     1       2.980  -4.446  -8.338  0.00  0.00    +0.010 C 
ATOM     22  C   UNL     1       3.561  -3.910  -5.969  0.00  0.00    +0.010 C 
ENDBRANCH  17  20
ENDBRANCH   4   9
BRANCH   6  23
ATOM     23  S   UNL     1       1.763  -7.280  -0.422  0.00  0.00    +0.056 S 
ATOM     24  O   UNL     1       2.476  -8.260  -1.164  0.00  0.00    -0.153 OA
ATOM     25  O   UNL     1       2.418  -6.315   0.390  0.00  0.00    -0.153 OA
BRANCH  23  26
ATOM     26  N   UNL     1       0.721  -8.102   0.568  0.00  0.00    -0.204 NA
ATOM     27  H   UNL     1      -0.237  -8.025   0.435  0.00  0.00    +0.144 HD
ATOM     28  H   UNL     1       1.068  -8.661   1.281  0.00  0.00    +0.144 HD
ENDBRANCH  23  26
ENDBRANCH   6  23
TORSDOF 4
