REMARK  Name = ZINC20799913
REMARK  4 active torsions:
REMARK  status: ('A' for Active; 'I' for Inactive)
REMARK    1  A    between atoms: C_4  and  N_29
REMARK    2  A    between atoms: C_5  and  N_7
REMARK    3  A    between atoms: C_8  and  C_10
REMARK    4  A    between atoms: C_18  and  N_28
REMARK                            x       y       z     vdW  Elec       q    Type
REMARK                         _______ _______ _______ _____ _____    ______ ____
ROOT
ATOM      1  C   UNL     1      -0.573  -3.959   0.028  0.00  0.00    +0.121 C 
ATOM      2  C   UNL     1       0.183  -4.666  -1.099  0.00  0.00    +0.113 C 
ATOM      3  C   UNL     1      -0.516  -4.423  -2.411  0.00  0.00    +0.219 C 
ATOM      4  O   UNL     1       0.140  -4.260  -3.418  0.00  0.00    -0.275 OA
ATOM      5  N   UNL     1      -1.858  -4.387  -2.478  0.00  0.00    -0.270 N 
ATOM      6  C   UNL     1      -2.628  -4.460  -1.325  0.00  0.00    +0.136 A 
ATOM      7  C   UNL     1      -2.042  -4.265  -0.083  0.00  0.00    +0.045 A 
ATOM      8  C   UNL     1      -2.836  -4.358   1.055  0.00  0.00    +0.127 A 
ATOM      9  N   UNL     1      -4.136  -4.612   0.911  0.00  0.00    -0.199 NA
ATOM     10  C   UNL     1      -4.666  -4.768  -0.292  0.00  0.00    +0.221 A 
ATOM     11  N   UNL     1      -3.935  -4.692  -1.394  0.00  0.00    -0.199 NA
ATOM     12  N   UNL     1      -6.023  -5.020  -0.402  0.00  0.00    -0.300 N 
ATOM     13  C   UNL     1      -6.646  -5.205  -1.719  0.00  0.00    +0.108 C 
ATOM     14  C   UNL     1      -7.411  -6.532  -1.721  0.00  0.00    +0.019 C 
ATOM     15  C   UNL     1      -8.398  -6.549  -0.551  0.00  0.00    +0.003 C 
ATOM     16  C   UNL     1      -7.630  -6.436   0.768  0.00  0.00    +0.019 C 
ATOM     17  C   UNL     1      -6.866  -5.114   0.798  0.00  0.00    +0.108 C 
ATOM     18  H   UNL     1      -2.293  -4.308  -3.341  0.00  0.00    +0.156 HD
ENDROOT
BRANCH   1  20
ATOM     19  N   UNL     1       0.885  -1.962  -0.008  0.00  0.00    -0.283 N 
ATOM     20  C   UNL     1      -0.360  -2.472  -0.081  0.00  0.00    +0.225 C 
ATOM     21  O   UNL     1      -1.310  -1.733  -0.234  0.00  0.00    -0.275 OA
ATOM     22  H   UNL     1       1.651  -2.556   0.034  0.00  0.00    +0.155 HD
BRANCH  19  27
ATOM     23  C   UNL     1       0.532   1.603  -0.836  0.00  0.00    +0.002 A 
ATOM     24  C   UNL     1       1.447   2.166   0.034  0.00  0.00    +0.002 A 
ATOM     25  C   UNL     1       2.177   1.362   0.890  0.00  0.00    +0.034 A 
ATOM     26  C   UNL     1       1.992  -0.007   0.879  0.00  0.00    +0.147 A 
ATOM     27  C   UNL     1       1.073  -0.575   0.006  0.00  0.00    +0.064 A 
ATOM     28  C   UNL     1       0.343   0.236  -0.852  0.00  0.00    +0.025 A 
BRANCH  26  29
ATOM     29  N   UNL     1       2.774  -0.868   1.795  0.00  0.00    +0.058 N 
ATOM     30  O   UNL     1       3.596  -0.375   2.533  0.00  0.00    -0.126 OA
ATOM     31  O   UNL     1       2.591  -2.063   1.805  0.00  0.00    -0.126 OA
ENDBRANCH  26  29
ENDBRANCH  19  27
ENDBRANCH   1  20
BRANCH   8  32
ATOM     32  N   UNL     1      -2.285  -4.189   2.316  0.00  0.00    -0.343 N 
ATOM     33  H   UNL     1      -1.338  -4.005   2.410  0.00  0.00    +0.144 HD
ATOM     34  H   UNL     1      -2.848  -4.255   3.103  0.00  0.00    +0.144 HD
ENDBRANCH   8  32
TORSDOF 4
