REMARK  Name = ZINC39533897
REMARK  10 active torsions:
REMARK  status: ('A' for Active; 'I' for Inactive)
REMARK    1  A    between atoms: C_1  and  S_2
REMARK    2  A    between atoms: S_2  and  N_3
REMARK    3  A    between atoms: N_3  and  C_4
REMARK    4  A    between atoms: C_4  and  C_5
REMARK    5  A    between atoms: C_5  and  C_7
REMARK    6  A    between atoms: C_5  and  N_19
REMARK    7  A    between atoms: C_10  and  C_13
REMARK    8  A    between atoms: C_23  and  S_26
REMARK    9  A    between atoms: S_26  and  O_29
REMARK   10  A    between atoms: O_29  and  C_30
REMARK                            x       y       z     vdW  Elec       q    Type
REMARK                         _______ _______ _______ _____ _____    ______ ____
ROOT
ATOM      1  C   UNL     1       1.348  -2.190  -3.099  0.00  0.00    +0.101 C 
ENDROOT
BRANCH   1   2
ATOM      2  N   UNL     1       0.012  -1.758  -3.533  0.00  0.00    -0.296 NA
ATOM      3  C   UNL     1       0.079  -0.469  -4.237  0.00  0.00    +0.066 C 
ATOM      4  C   UNL     1      -1.320  -0.084  -4.723  0.00  0.00    -0.064 C 
ATOM      5  N   UNL     1      -2.228   0.013  -3.572  0.00  0.00    +0.398 N 
ATOM      6  C   UNL     1      -2.303  -1.287  -2.894  0.00  0.00    +0.130 C 
ATOM      7  C   UNL     1      -0.913  -1.683  -2.393  0.00  0.00    +0.095 C 
ATOM      8  H   UNL     1      -1.882   0.709  -2.928  0.00  0.00    -0.083 HD
ATOM      9  H   UNL     1      -3.148   0.280  -3.892  0.00  0.00    -0.083 HD
BRANCH   6  10
ATOM     10  S   UNL     1      -3.442  -1.170  -1.487  0.00  0.00    +0.109 S 
ATOM     11  O   UNL     1      -3.664  -2.458  -0.929  0.00  0.00    -0.138 OA
ATOM     12  O   UNL     1      -3.085  -0.073  -0.657  0.00  0.00    -0.138 OA
BRANCH  10  13
ATOM     13  O   UNL     1      -4.779  -0.776  -2.098  0.00  0.00    -0.347 OA
BRANCH  13  14
ATOM     14  C   UNL     1      -5.413  -1.790  -2.743  0.00  0.00    +0.156 A 
ATOM     15  C   UNL     1      -5.177  -2.009  -4.093  0.00  0.00    +0.048 A 
ATOM     16  C   UNL     1      -5.822  -3.041  -4.747  0.00  0.00    +0.004 A 
ATOM     17  C   UNL     1      -6.702  -3.855  -4.058  0.00  0.00    +0.000 A 
ATOM     18  C   UNL     1      -6.939  -3.638  -2.713  0.00  0.00    +0.004 A 
ATOM     19  C   UNL     1      -6.292  -2.611  -2.053  0.00  0.00    +0.048 A 
ENDBRANCH  13  14
ENDBRANCH  10  13
ENDBRANCH   6  10
ENDBRANCH   1   2
BRANCH   1  20
ATOM     20  C   UNL     1       1.352  -3.684  -2.900  0.00  0.00    -0.029 A 
ATOM     21  C   UNL     1       0.157  -4.382  -2.895  0.00  0.00    +0.006 A 
ATOM     22  C   UNL     1       0.155  -5.750  -2.714  0.00  0.00    +0.009 A 
ATOM     23  C   UNL     1       1.359  -6.428  -2.535  0.00  0.00    -0.018 A 
ATOM     24  C   UNL     1       2.559  -5.721  -2.540  0.00  0.00    +0.009 A 
ATOM     25  C   UNL     1       2.550  -4.353  -2.729  0.00  0.00    +0.006 A 
BRANCH  23  26
ATOM     26  C   UNL     1       1.363  -7.899  -2.338  0.00  0.00    -0.018 A 
ATOM     27  C   UNL     1       0.163  -8.608  -2.338  0.00  0.00    +0.008 A 
ATOM     28  C   UNL     1       0.172  -9.976  -2.155  0.00  0.00    +0.001 A 
ATOM     29  C   UNL     1       1.370 -10.643  -1.972  0.00  0.00    +0.000 A 
ATOM     30  C   UNL     1       2.564  -9.945  -1.971  0.00  0.00    +0.001 A 
ATOM     31  C   UNL     1       2.567  -8.578  -2.159  0.00  0.00    +0.008 A 
ENDBRANCH  23  26
ENDBRANCH   1  20
BRANCH   1  32
ATOM     32  C   UNL     1       1.705  -1.500  -1.782  0.00  0.00    +0.117 C 
BRANCH  32  33
ATOM     33  N   UNL     1       1.643  -0.043  -1.960  0.00  0.00    -0.262 NA
ATOM     34  H   UNL     1       2.407   0.284  -2.534  0.00  0.00    +0.135 HD
BRANCH  33  36
ATOM     35  C   UNL     1       1.548   2.544  -0.840  0.00  0.00    +0.102 C 
ATOM     36  S   UNL     1       1.624   0.785  -0.402  0.00  0.00    -0.084 S 
ENDBRANCH  33  36
ENDBRANCH  32  33
ENDBRANCH   1  32
TORSDOF 9
