REMARK  Name = ZINC27531088
REMARK  6 active torsions:
REMARK  status: ('A' for Active; 'I' for Inactive)
REMARK    1  A    between atoms: N_7  and  C1*_10
REMARK    2  A    between atoms: C2*_12  and  O2*_22
REMARK    3  A    between atoms: C3*_14  and  O3*_21
REMARK    4  A    between atoms: C4*_16  and  C5*_19
REMARK    5  A    between atoms: C5*_19  and  O5*_20
REMARK    6  A    between atoms: C_24  and  C_26
REMARK                            x       y       z     vdW  Elec       q    Type
REMARK                         _______ _______ _______ _____ _____    ______ ____
ROOT
ATOM      1  C   UNL     1       4.976   1.887   3.795  0.00  0.00    +0.225 A 
ATOM      2  N   UNL     1       4.550   1.663   5.024  0.00  0.00    -0.218 NA
ATOM      3  C   UNL     1       3.364   1.108   5.251  0.00  0.00    +0.156 A 
ATOM      4  C   UNL     1       2.566   0.761   4.149  0.00  0.00    +0.148 A 
ATOM      5  C   UNL     1       3.067   1.014   2.860  0.00  0.00    +0.167 A 
ATOM      6  N   UNL     1       4.263   1.578   2.732  0.00  0.00    -0.216 NA
ATOM      7  N   UNL     1       2.098   0.589   1.988  0.00  0.00    -0.286 N 
ATOM      8  C   UNL     1       1.067   0.095   2.730  0.00  0.00    +0.203 A 
ATOM      9  N   UNL     1       1.344   0.197   3.998  0.00  0.00    -0.231 NA
ATOM     10  N   UNL     1       2.925   0.876   6.548  0.00  0.00    -0.268 N 
ATOM     11  C   UNL     1       3.704   1.215   7.594  0.00  0.00    +0.225 C 
ATOM     12  O   UNL     1       4.788   1.723   7.403  0.00  0.00    -0.275 OA
ATOM     13  H   UNL     1       1.941   0.415   6.721  0.00  0.00    +0.156 HD
ENDROOT
BRANCH  11  14
ATOM     14  C   UNL     1       3.227   0.964   9.002  0.00  0.00    +0.048 C 
ATOM     15  C   UNL     1       2.978  -0.533   9.196  0.00  0.00    +0.019 C 
ATOM     16  C   UNL     1       2.494  -0.789  10.625  0.00  0.00    -0.009 C 
ATOM     17  C   UNL     1       3.559  -0.316  11.616  0.00  0.00    +0.007 C 
ATOM     18  C   UNL     1       3.807   1.182  11.422  0.00  0.00    -0.009 C 
ATOM     19  C   UNL     1       4.292   1.437   9.993  0.00  0.00    +0.019 C 
ATOM     20  C   UNL     1       2.507   1.950  11.665  0.00  0.00    +0.007 C 
ATOM     21  C   UNL     1       1.442   1.477  10.673  0.00  0.00    -0.009 C 
ATOM     22  C   UNL     1       1.194  -0.020  10.867  0.00  0.00    +0.007 C 
ATOM     23  C   UNL     1       1.926   1.732   9.244  0.00  0.00    +0.019 C 
ENDBRANCH  11  14
BRANCH   7  24
ATOM     24  C1* UNL     1       2.161   0.650   0.525  0.00  0.00    +0.253 C 
ATOM     25  C2* UNL     1       1.646   2.017   0.009  0.00  0.00    +0.195 C 
ATOM     26  C3* UNL     1       0.111   1.814   0.028  0.00  0.00    +0.178 C 
ATOM     27  C4* UNL     1      -0.067   0.283   0.011  0.00  0.00    +0.177 C 
ATOM     28  O4* UNL     1       1.245  -0.299  -0.063  0.00  0.00    -0.346 OA
BRANCH  26  29
ATOM     29  O3* UNL     1      -0.453   2.370   1.217  0.00  0.00    -0.386 OA
ATOM     30  H3* UNL     1      -1.537   2.312   1.391  0.00  0.00    +0.210 HD
ENDBRANCH  26  29
BRANCH  25  31
ATOM     31  O2* UNL     1       2.111   2.269  -1.319  0.00  0.00    -0.385 OA
ATOM     32  H2* UNL     1       1.833   3.202  -1.831  0.00  0.00    +0.210 HD
ENDBRANCH  25  31
BRANCH  27  33
ATOM     33  C5* UNL     1      -0.893  -0.131  -1.209  0.00  0.00    +0.190 C 
BRANCH  33  34
ATOM     34  O5* UNL     1      -1.151  -1.535  -1.154  0.00  0.00    -0.392 OA
ATOM     35  H5* UNL     1      -1.735  -2.018  -1.951  0.00  0.00    +0.210 HD
ENDBRANCH  33  34
ENDBRANCH  27  33
ENDBRANCH   7  24
TORSDOF 6
