REMARK  Name = ZINC13427038
REMARK  8 active torsions:
REMARK  status: ('A' for Active; 'I' for Inactive)
REMARK    1  A    between atoms: C_1  and  O_2
REMARK    2  A    between atoms: O_2  and  C_3
REMARK    3  A    between atoms: C_6  and  C_9
REMARK    4  A    between atoms: C_9  and  C_11
REMARK    5  A    between atoms: C_13  and  C_25
REMARK    6  A    between atoms: C_19  and  C_20
REMARK    7  A    between atoms: C_19  and  O_24
REMARK    8  A    between atoms: C_28  and  O_31
REMARK                            x       y       z     vdW  Elec       q    Type
REMARK                         _______ _______ _______ _____ _____    ______ ____
ROOT
ATOM      1  C   UNL     1      -6.246  -1.776   0.037  0.00  0.00    +0.144 C 
ATOM      2  C   UNL     1      -7.543  -2.256  -0.621  0.00  0.00    +0.120 C 
ATOM      3  N   UNL     1      -7.854  -3.604  -0.143  0.00  0.00    -0.292 N 
ATOM      4  C   UNL     1      -7.473  -4.018   1.075  0.00  0.00    +0.302 C 
ATOM      5  O   UNL     1      -7.766  -5.144   1.427  0.00  0.00    -0.253 OA
ATOM      6  N   UNL     1      -6.780  -3.238   1.919  0.00  0.00    -0.264 N 
ATOM      7  C   UNL     1      -6.407  -1.869   1.558  0.00  0.00    +0.243 C 
ATOM      8  H   UNL     1      -8.346  -4.211  -0.719  0.00  0.00    +0.151 HD
ATOM      9  H   UNL     1      -6.522  -3.589   2.785  0.00  0.00    +0.153 HD
ENDROOT
BRANCH   2  10
ATOM     10  C   UNL     1      -8.668  -1.321  -0.259  0.00  0.00    -0.026 A 
ATOM     11  C   UNL     1      -9.724  -1.776   0.508  0.00  0.00    +0.009 A 
ATOM     12  C   UNL     1     -10.753  -0.919   0.847  0.00  0.00    +0.046 A 
ATOM     13  C   UNL     1     -10.733   0.396   0.405  0.00  0.00    +0.117 A 
ATOM     14  C   UNL     1      -9.675   0.849  -0.370  0.00  0.00    +0.046 A 
ATOM     15  C   UNL     1      -8.645  -0.011  -0.700  0.00  0.00    +0.009 A 
BRANCH  13  16
ATOM     16  O   UNL     1     -11.747   1.240   0.732  0.00  0.00    -0.507 OA
ATOM     17  H   UNL     1     -12.474   1.246   0.095  0.00  0.00    +0.292 HD
ENDBRANCH  13  16
ENDBRANCH   2  10
BRANCH   7  18
ATOM     18  C   UNL     1      -5.085  -1.505   2.236  0.00  0.00    +0.436 C 
ATOM     19  F   UNL     1      -4.646  -0.263   1.765  0.00  0.00    -0.166 F 
ATOM     20  F   UNL     1      -5.274  -1.437   3.621  0.00  0.00    -0.166 F 
ATOM     21  F   UNL     1      -4.126  -2.480   1.944  0.00  0.00    -0.166 F 
ENDBRANCH   7  18
BRANCH   1  22
ATOM     22  C   UNL     1      -5.100  -2.650  -0.404  0.00  0.00    +0.173 C 
ATOM     23  O   UNL     1      -4.970  -3.761   0.064  0.00  0.00    -0.292 OA
BRANCH  22  27
ATOM     24  C   UNL     1      -2.339  -1.227  -3.283  0.00  0.00    +0.120 A 
ATOM     25  C   UNL     1      -3.459  -0.468  -2.963  0.00  0.00    +0.046 A 
ATOM     26  C   UNL     1      -4.359  -0.927  -2.036  0.00  0.00    +0.015 A 
ATOM     27  C   UNL     1      -4.143  -2.157  -1.402  0.00  0.00    +0.018 A 
ATOM     28  C   UNL     1      -3.010  -2.915  -1.724  0.00  0.00    +0.015 A 
ATOM     29  C   UNL     1      -2.119  -2.450  -2.657  0.00  0.00    +0.046 A 
BRANCH  24  31
ATOM     30  C   UNL     1      -1.740   0.491  -4.810  0.00  0.00    +0.277 C 
ATOM     31  O   UNL     1      -1.454  -0.771  -4.205  0.00  0.00    -0.495 OA
ENDBRANCH  24  31
ENDBRANCH  22  27
ENDBRANCH   1  22
BRANCH   7  32
ATOM     32  O   UNL     1      -7.429  -0.966   1.986  0.00  0.00    -0.364 OA
ATOM     33  H   UNL     1      -7.585  -0.973   2.941  0.00  0.00    +0.212 HD
ENDBRANCH   7  32
TORSDOF 7
