REMARK  Name = ZINC40691521
REMARK  8 active torsions:
REMARK  status: ('A' for Active; 'I' for Inactive)
REMARK    1  A    between atoms: C_1  and  C_2
REMARK    2  A    between atoms: C_4  and  C_27
REMARK    3  A    between atoms: C_5  and  N_9
REMARK    4  A    between atoms: C_6  and  C_8
REMARK    5  A    between atoms: C_10  and  C_12
REMARK    6  A    between atoms: C_12  and  N_13
REMARK    7  A    between atoms: C_14  and  C_26
REMARK    8  A    between atoms: C_20  and  C_23
REMARK                            x       y       z     vdW  Elec       q    Type
REMARK                         _______ _______ _______ _____ _____    ______ ____
ROOT
ATOM      1  C   UNL     1       0.316  -6.890   0.848  0.00  0.00    +0.222 C 
ENDROOT
BRANCH   1   2
ATOM      2  N   UNL     1       0.821  -7.185   2.192  0.00  0.00    -0.287 N 
ATOM      3  C   UNL     1      -0.037  -7.175   3.243  0.00  0.00    +0.111 A 
ATOM      4  N   UNL     1       0.373  -7.433   4.457  0.00  0.00    -0.227 NA
ATOM      5  C   UNL     1       1.651  -7.714   4.701  0.00  0.00    +0.116 A 
ATOM      6  C   UNL     1       2.605  -7.746   3.676  0.00  0.00    +0.086 A 
ATOM      7  C   UNL     1       2.127  -7.466   2.361  0.00  0.00    +0.264 A 
ATOM      8  O   UNL     1       2.889  -7.477   1.409  0.00  0.00    -0.267 OA
ATOM      9  C   UNL     1       3.947  -8.073   4.153  0.00  0.00    +0.085 A 
ATOM     10  C   UNL     1       4.110  -8.300   5.485  0.00  0.00    +0.063 A 
ATOM     11  S   UNL     1       2.584  -8.107   6.155  0.00  0.00    -0.076 S 
ATOM     12  C   UNL     1      -1.492  -6.861   3.007  0.00  0.00    +0.086 C 
BRANCH   9  13
ATOM     13  C   UNL     1       5.080  -8.155   3.227  0.00  0.00    +0.388 C 
ATOM     14  O   UNL     1       6.196  -8.430   3.648  0.00  0.00    -0.241 OA
ATOM     15  O   UNL     1       4.911  -7.947   2.032  0.00  0.00    -0.241 OA
ENDBRANCH   9  13
ENDBRANCH   1   2
BRANCH   1  17
ATOM     16  N   UNL     1       0.062  -4.912  -0.615  0.00  0.00    -0.284 N 
ATOM     17  C   UNL     1       0.463  -5.417   0.569  0.00  0.00    +0.237 C 
ATOM     18  O   UNL     1       0.943  -4.685   1.409  0.00  0.00    -0.274 OA
ATOM     19  H   UNL     1      -0.394  -5.481  -1.255  0.00  0.00    +0.155 HD
BRANCH  16  24
ATOM     20  C   UNL     1       1.040   0.537  -1.855  0.00  0.00    +0.044 C 
ATOM     21  C   UNL     1       0.780  -0.911  -1.526  0.00  0.00    -0.050 A 
ATOM     22  C   UNL     1       1.251  -1.904  -2.364  0.00  0.00    +0.008 A 
ATOM     23  C   UNL     1       1.015  -3.232  -2.065  0.00  0.00    -0.029 A 
ATOM     24  C   UNL     1       0.303  -3.568  -0.921  0.00  0.00    +0.039 A 
ATOM     25  C   UNL     1      -0.168  -2.568  -0.081  0.00  0.00    -0.029 A 
ATOM     26  C   UNL     1       0.076  -1.242  -0.383  0.00  0.00    +0.008 A 
ATOM     27  C   UNL     1      -0.940  -2.928   1.162  0.00  0.00    +0.045 C 
ATOM     28  C   UNL     1       1.527  -4.314  -2.980  0.00  0.00    +0.045 C 
ENDBRANCH  16  24
ENDBRANCH   1  17
TORSDOF 4
