REMARK  Name = ZINC58535459
REMARK  6 active torsions:
REMARK  status: ('A' for Active; 'I' for Inactive)
REMARK    1  A    between atoms: C_1  and  C_2
REMARK    2  A    between atoms: C_11  and  C_14
REMARK    3  A    between atoms: C_14  and  N_15
REMARK    4  A    between atoms: N_18  and  C_19
REMARK    5  A    between atoms: C_22  and  C_25
REMARK    6  A    between atoms: C_25  and  C_26
REMARK                            x       y       z     vdW  Elec       q    Type
REMARK                         _______ _______ _______ _____ _____    ______ ____
ROOT
ATOM      1  C   UNL     1      -4.199  -5.484  -3.191  0.00  0.00    +0.142 C 
ENDROOT
BRANCH   1  12
ATOM      2  C   UNL     1      -0.036   1.573  -0.052  0.00  0.00    +0.039 C 
ATOM      3  C   UNL     1      -0.018   0.043  -0.044  0.00  0.00    +0.132 C 
ATOM      4  C   UNL     1      -1.457  -0.486  -0.030  0.00  0.00    +0.137 C 
ATOM      5  N   UNL     1      -1.413  -1.944   0.167  0.00  0.00    -0.312 N 
ATOM      6  C   UNL     1      -0.607  -2.467   1.281  0.00  0.00    +0.134 C 
ATOM      7  C   UNL     1       0.790  -1.842   1.203  0.00  0.00    +0.179 C 
ATOM      8  O   UNL     1       0.665  -0.420   1.123  0.00  0.00    -0.374 OA
ATOM      9  C   UNL     1      -2.112  -2.800  -0.675  0.00  0.00    +0.099 A 
ATOM     10  C   UNL     1      -2.951  -2.274  -1.653  0.00  0.00    +0.042 A 
ATOM     11  C   UNL     1      -3.640  -3.138  -2.484  0.00  0.00    +0.010 A 
ATOM     12  C   UNL     1      -3.468  -4.505  -2.308  0.00  0.00    -0.014 A 
ATOM     13  C   UNL     1      -2.620  -4.958  -1.318  0.00  0.00    +0.089 A 
ATOM     14  N   UNL     1      -1.970  -4.110  -0.543  0.00  0.00    -0.349 N 
ATOM     15  H   UNL     1      -1.377  -4.455   0.143  0.00  0.00    +0.167 HD
ENDBRANCH   1  12
BRANCH   1  16
ATOM     16  N   UNL     1      -3.384  -5.782  -4.370  0.00  0.00    -0.295 N 
ATOM     17  C   UNL     1      -3.839  -6.640  -5.305  0.00  0.00    +0.304 C 
ATOM     18  O   UNL     1      -4.927  -7.165  -5.170  0.00  0.00    -0.252 OA
ATOM     19  N   UNL     1      -3.089  -6.915  -6.390  0.00  0.00    -0.269 N 
ATOM     20  H   UNL     1      -2.516  -5.363  -4.478  0.00  0.00    +0.151 HD
ATOM     21  H   UNL     1      -2.189  -6.559  -6.460  0.00  0.00    +0.156 HD
BRANCH  19  22
ATOM     22  C   UNL     1      -3.607  -7.713  -7.416  0.00  0.00    +0.035 A 
ATOM     23  C   UNL     1      -2.775  -8.579  -8.112  0.00  0.00    +0.023 A 
ATOM     24  C   UNL     1      -3.290  -9.365  -9.124  0.00  0.00    +0.006 A 
ATOM     25  C   UNL     1      -4.634  -9.291  -9.443  0.00  0.00    -0.034 A 
ATOM     26  C   UNL     1      -5.465  -8.429  -8.752  0.00  0.00    +0.006 A 
ATOM     27  C   UNL     1      -4.957  -7.644  -7.736  0.00  0.00    +0.023 A 
BRANCH  25  28
ATOM     28  C   UNL     1      -5.192 -10.151 -10.548  0.00  0.00    +0.153 C 
BRANCH  28  29
ATOM     29  C   UNL     1      -5.649 -11.434  -9.988  0.00  0.00    +0.067 C 
ATOM     30  N   UNL     1      -6.000 -12.424  -9.556  0.00  0.00    -0.196 NA
ENDBRANCH  28  29
ENDBRANCH  25  28
ENDBRANCH  19  22
ENDBRANCH   1  16
TORSDOF 5
