REMARK  Name = ZINC38710435
REMARK  4 active torsions:
REMARK  status: ('A' for Active; 'I' for Inactive)
REMARK    1  A    between atoms: N_7  and  C_11
REMARK    2  A    between atoms: C_11  and  C_12
REMARK    3  A    between atoms: N_14  and  C_15
REMARK    4  A    between atoms: C_25  and  C_27
REMARK                            x       y       z     vdW  Elec       q    Type
REMARK                         _______ _______ _______ _____ _____    ______ ____
ROOT
ATOM      1  C   UNL     1      -0.967  -4.538  -3.138  0.00  0.00    +0.034 A 
ATOM      2  C   UNL     1      -0.382  -3.867  -4.205  0.00  0.00    +0.023 A 
ATOM      3  C   UNL     1      -0.725  -4.205  -5.495  0.00  0.00    +0.006 A 
ATOM      4  C   UNL     1      -1.650  -5.214  -5.743  0.00  0.00    -0.041 A 
ATOM      5  C   UNL     1      -2.223  -5.886  -4.686  0.00  0.00    -0.025 A 
ATOM      6  C   UNL     1      -1.882  -5.548  -3.385  0.00  0.00    +0.028 A 
ATOM      7  C   UNL     1      -3.211  -7.009  -4.885  0.00  0.00    +0.143 C 
ATOM      8  N   UNL     1      -3.639  -7.048  -6.287  0.00  0.00    -0.290 N 
ATOM      9  C   UNL     1      -2.596  -6.908  -7.316  0.00  0.00    +0.113 C 
ATOM     10  C   UNL     1      -1.985  -5.514  -7.180  0.00  0.00    +0.054 C 
ATOM     11  C   UNL     1      -4.936  -7.206  -6.619  0.00  0.00    +0.282 C 
ATOM     12  O   UNL     1      -5.257  -7.293  -7.790  0.00  0.00    -0.267 OA
ENDROOT
BRANCH  11  13
ATOM     13  C   UNL     1      -5.959  -7.273  -5.571  0.00  0.00    +0.189 A 
ATOM     14  C   UNL     1      -7.310  -7.297  -5.768  0.00  0.00    +0.054 A 
ATOM     15  C   UNL     1      -7.902  -7.363  -4.497  0.00  0.00    +0.042 A 
ATOM     16  C   UNL     1      -6.899  -7.376  -3.591  0.00  0.00    +0.196 A 
ATOM     17  O   UNL     1      -5.730  -7.327  -4.242  0.00  0.00    -0.458 OA
ENDBRANCH  11  13
BRANCH   1  20
ATOM     18  C   UNL     1       0.620  -3.781  -1.534  0.00  0.00    +0.237 C 
ATOM     19  O   UNL     1       1.476  -3.792  -2.393  0.00  0.00    -0.274 OA
ATOM     20  N   UNL     1      -0.629  -4.199  -1.823  0.00  0.00    -0.284 N 
ATOM     21  H   UNL     1      -1.293  -4.264  -1.119  0.00  0.00    +0.155 HD
BRANCH  18  22
ATOM     22  C   UNL     1       0.951  -3.302  -0.144  0.00  0.00    +0.224 C 
BRANCH  22  29
ATOM     23  C   UNL     1       3.080   0.683  -0.908  0.00  0.00    +0.002 A 
ATOM     24  C   UNL     1       4.451   0.603  -0.736  0.00  0.00    +0.004 A 
ATOM     25  C   UNL     1       5.038  -0.593  -0.370  0.00  0.00    +0.048 A 
ATOM     26  C   UNL     1       4.253  -1.718  -0.175  0.00  0.00    +0.157 A 
ATOM     27  C   UNL     1       2.872  -1.636  -0.350  0.00  0.00    +0.091 A 
ATOM     28  C   UNL     1       2.289  -0.433  -0.716  0.00  0.00    +0.030 A 
ATOM     29  N   UNL     1       2.361  -2.907  -0.087  0.00  0.00    -0.265 N 
ATOM     30  C   UNL     1       3.400  -3.704   0.229  0.00  0.00    +0.422 A 
ATOM     31  O   UNL     1       3.319  -4.883   0.515  0.00  0.00    -0.223 OA
ATOM     32  O   UNL     1       4.539  -2.995   0.177  0.00  0.00    -0.407 OA
ENDBRANCH  22  29
ENDBRANCH  18  22
ENDBRANCH   1  20
TORSDOF 4
