REMARK  Name = ZINC38966346
REMARK  8 active torsions:
REMARK  status: ('A' for Active; 'I' for Inactive)
REMARK    1  A    between atoms: C_1  and  C_2
REMARK    2  A    between atoms: C_5  and  C_34
REMARK    3  A    between atoms: C_6  and  S_8
REMARK    4  A    between atoms: S_8  and  N_11
REMARK    5  A    between atoms: C_13  and  N_23
REMARK    6  A    between atoms: N_23  and  C_24
REMARK    7  A    between atoms: C_27  and  N_30
REMARK    8  A    between atoms: C_31  and  C_33
REMARK                            x       y       z     vdW  Elec       q    Type
REMARK                         _______ _______ _______ _____ _____    ______ ____
ROOT
ATOM      1  N   UNL     1      -1.323  -3.652   3.061  0.00  0.00    -0.110 NA
ATOM      2  C   UNL     1      -1.617  -4.513   3.990  0.00  0.00    +0.192 C 
ATOM      3  C   UNL     1      -2.891  -5.324   3.909  0.00  0.00    +0.237 C 
ATOM      4  N   UNL     1      -3.166  -6.280   4.993  0.00  0.00    -0.359 N 
ATOM      5  C   UNL     1      -2.305  -6.383   5.966  0.00  0.00    +0.063 A 
ATOM      6  C   UNL     1      -2.533  -7.324   7.072  0.00  0.00    +0.027 A 
ATOM      7  C   UNL     1      -1.618  -7.403   8.063  0.00  0.00    +0.002 A 
ATOM      8  C   UNL     1      -0.457  -6.610   8.061  0.00  0.00    +0.002 A 
ATOM      9  C   UNL     1      -0.179  -5.725   7.080  0.00  0.00    +0.030 A 
ATOM     10  C   UNL     1      -1.071  -5.559   5.989  0.00  0.00    +0.089 A 
ATOM     11  N   UNL     1      -0.793  -4.697   5.034  0.00  0.00    -0.226 NA
ATOM     12  H   UNL     1      -3.971  -6.822   4.984  0.00  0.00    +0.162 HD
ENDROOT
BRANCH   1  13
ATOM     13  S   UNL     1       0.079  -2.776   3.158  0.00  0.00    +0.101 S 
ATOM     14  O   UNL     1       1.148  -3.702   3.023  0.00  0.00    -0.146 OA
ATOM     15  O   UNL     1      -0.053  -1.924   4.288  0.00  0.00    -0.146 OA
BRANCH  13  21
ATOM     16  C   UNL     1       0.062   1.962   0.949  0.00  0.00    +0.044 C 
ATOM     17  C   UNL     1       0.125   0.465   0.783  0.00  0.00    -0.049 A 
ATOM     18  C   UNL     1       0.229  -0.086  -0.480  0.00  0.00    +0.004 A 
ATOM     19  C   UNL     1       0.287  -1.459  -0.632  0.00  0.00    +0.005 A 
ATOM     20  C   UNL     1       0.241  -2.280   0.479  0.00  0.00    -0.024 A 
ATOM     21  C   UNL     1       0.138  -1.729   1.742  0.00  0.00    +0.116 A 
ATOM     22  C   UNL     1       0.084  -0.356   1.895  0.00  0.00    +0.032 A 
ATOM     23  C   UNL     1       0.303  -3.777   0.313  0.00  0.00    +0.046 C 
ENDBRANCH  13  21
ENDBRANCH   1  13
BRANCH   3  24
ATOM     24  N   UNL     1      -4.015  -4.386   3.845  0.00  0.00    -0.318 N 
ATOM     25  H   UNL     1      -4.033  -3.611   4.428  0.00  0.00    +0.148 HD
BRANCH  24  26
ATOM     26  C   UNL     1      -5.061  -4.609   2.944  0.00  0.00    +0.029 A 
ATOM     27  C   UNL     1      -6.056  -3.653   2.785  0.00  0.00    +0.025 A 
ATOM     28  C   UNL     1      -7.089  -3.874   1.896  0.00  0.00    +0.025 A 
ATOM     29  C   UNL     1      -7.134  -5.051   1.161  0.00  0.00    +0.033 A 
ATOM     30  C   UNL     1      -6.139  -6.007   1.321  0.00  0.00    +0.025 A 
ATOM     31  C   UNL     1      -5.103  -5.784   2.205  0.00  0.00    +0.025 A 
BRANCH  29  32
ATOM     32  N   UNL     1      -8.182  -5.275   0.259  0.00  0.00    -0.286 N 
ATOM     33  C   UNL     1      -8.704  -4.245  -0.436  0.00  0.00    +0.214 C 
ATOM     34  O   UNL     1      -8.329  -3.113  -0.217  0.00  0.00    -0.276 OA
ATOM     35  C   UNL     1      -9.755  -4.500  -1.486  0.00  0.00    +0.109 C 
ATOM     36  H   UNL     1      -8.533  -6.171   0.135  0.00  0.00    +0.155 HD
ENDBRANCH  29  32
ENDBRANCH  24  26
ENDBRANCH   3  24
TORSDOF 5
