REMARK  Name = ZINC44792560
REMARK  6 active torsions:
REMARK  status: ('A' for Active; 'I' for Inactive)
REMARK    1  A    between atoms: C_1  and  C_2
REMARK    2  A    between atoms: C_8  and  C_10
REMARK    3  A    between atoms: C_10  and  N_11
REMARK    4  A    between atoms: C_12  and  C_14
REMARK    5  A    between atoms: C_14  and  C_19
REMARK    6  A    between atoms: N_20  and  O_21
REMARK                            x       y       z     vdW  Elec       q    Type
REMARK                         _______ _______ _______ _____ _____    ______ ____
ROOT
ATOM      1  N   UNL     1       0.802  -0.408   3.684  0.00  0.00    -0.314 N 
ATOM      2  C   UNL     1       0.358  -0.074   4.913  0.00  0.00    +0.226 C 
ATOM      3  O   UNL     1      -0.631   0.618   5.034  0.00  0.00    -0.275 OA
ATOM      4  H   UNL     1       1.633  -0.898   3.585  0.00  0.00    +0.149 HD
ENDROOT
BRANCH   2   5
ATOM      5  C   UNL     1       1.091  -0.561   6.136  0.00  0.00    +0.105 C 
ATOM      6  C   UNL     1       0.288  -0.214   7.407  0.00  0.00    +0.024 C 
ATOM      7  C   UNL     1      -0.518  -1.501   7.710  0.00  0.00    +0.001 C 
ATOM      8  C   UNL     1       0.485  -2.625   7.350  0.00  0.00    +0.001 C 
ATOM      9  C   UNL     1       1.217  -2.094   6.100  0.00  0.00    +0.024 C 
BRANCH   5  10
ATOM     10  C   UNL     1       2.459   0.068   6.202  0.00  0.00    +0.147 C 
ATOM     11  N   UNL     1       3.515  -0.671   6.105  0.00  0.00    -0.076 NA
ATOM     12  N   UNL     1       2.585   1.429   6.365  0.00  0.00    -0.343 N 
ATOM     13  H   UNL     1       1.795   1.993   6.364  0.00  0.00    +0.144 HD
ATOM     14  H   UNL     1       3.462   1.825   6.480  0.00  0.00    +0.144 HD
BRANCH  11  15
ATOM     15  O   UNL     1       4.801  -0.080   6.167  0.00  0.00    -0.408 OA
ATOM     16  H   UNL     1       5.528  -0.712   6.086  0.00  0.00    +0.328 HD
ENDBRANCH  11  15
ENDBRANCH   5  10
ENDBRANCH   2   5
BRANCH   1  17
ATOM     17  C   UNL     1       0.028  -0.030   2.499  0.00  0.00    +0.108 C 
BRANCH  17  24
ATOM     18  C   UNL     1      -0.019   1.506   0.004  0.00  0.00    +0.008 C 
ATOM     19  C   UNL     1       0.006  -0.024   0.001  0.00  0.00    -0.010 C 
ATOM     20  C   UNL     1       0.724  -0.519  -1.256  0.00  0.00    +0.003 C 
ATOM     21  C   UNL     1       0.749  -2.049  -1.260  0.00  0.00    +0.000 C 
ATOM     22  C   UNL     1       1.490  -2.550  -0.018  0.00  0.00    +0.000 C 
ATOM     23  C   UNL     1       0.771  -2.055   1.238  0.00  0.00    +0.005 C 
ATOM     24  C   UNL     1       0.747  -0.525   1.242  0.00  0.00    +0.009 C 
ENDBRANCH  17  24
ENDBRANCH   1  17
TORSDOF 5
