REMARK  Name = ZINC09753732
REMARK  7 active torsions:
REMARK  status: ('A' for Active; 'I' for Inactive)
REMARK    1  A    between atoms: C_1  and  C_2
REMARK    2  A    between atoms: N_11  and  C_15
REMARK    3  A    between atoms: C_15  and  N_57
REMARK    4  A    between atoms: C_16  and  C_17
REMARK    5  A    between atoms: C_16  and  N_57
REMARK    6  A    between atoms: C_20  and  C_22
REMARK    7  A    between atoms: C_29  and  N_57
REMARK                            x       y       z     vdW  Elec       q    Type
REMARK                         _______ _______ _______ _____ _____    ______ ____
ROOT
ATOM      1  N   UNL     1      -3.250  -1.827   2.358  0.00  0.00    +0.398 N 
ATOM      2  H   UNL     1      -2.701  -1.798   1.491  0.00  0.00    -0.078 HD
ENDROOT
BRANCH   1   3
ATOM      3  C   UNL     1      -2.491  -2.575   3.382  0.00  0.00    -0.066 C 
ATOM      4  C   UNL     1      -0.982  -2.698   3.159  0.00  0.00    -0.017 C 
ATOM      5  C   UNL     1      -1.888  -3.914   2.951  0.00  0.00    -0.017 C 
ENDBRANCH   1   3
BRANCH   1   6
ATOM      6  C   UNL     1      -3.492  -0.444   2.820  0.00  0.00    +0.044 C 
BRANCH   6  16
ATOM      7  C   UNL     1      -1.913   3.690   2.500  0.00  0.00    +0.010 C 
ATOM      8  C   UNL     1      -0.904   3.217   1.452  0.00  0.00    +0.018 C 
ATOM      9  C   UNL     1      -1.403   3.599   0.056  0.00  0.00    +0.006 C 
ATOM     10  C   UNL     1      -0.403   3.108  -0.993  0.00  0.00    +0.000 C 
ATOM     11  C   UNL     1      -0.276   1.586  -0.906  0.00  0.00    +0.003 C 
ATOM     12  C   UNL     1       0.227   1.196   0.486  0.00  0.00    +0.035 C 
ATOM     13  C   UNL     1      -0.751   1.703   1.541  0.00  0.00    +0.115 C 
ATOM     14  C   UNL     1      -2.094   1.027   1.381  0.00  0.00    +0.245 C 
ATOM     15  O   UNL     1      -2.830   1.075   0.419  0.00  0.00    -0.273 OA
ATOM     16  N   UNL     1      -2.301   0.360   2.536  0.00  0.00    -0.241 N 
ATOM     17  C   UNL     1      -1.282   0.523   3.389  0.00  0.00    +0.308 C 
ATOM     18  O   UNL     1      -1.238   0.019   4.494  0.00  0.00    -0.252 OA
ATOM     19  N   UNL     1      -0.310   1.308   2.885  0.00  0.00    -0.285 N 
ATOM     20  H   UNL     1       0.517   1.562   3.323  0.00  0.00    +0.151 HD
ENDBRANCH   6  16
ENDBRANCH   1   6
BRANCH   1  21
ATOM     21  C   UNL     1      -4.537  -2.502   2.090  0.00  0.00    +0.023 C 
BRANCH  21  22
ATOM     22  C   UNL     1      -4.272  -3.742   1.276  0.00  0.00    +0.202 A 
ATOM     23  N   UNL     1      -4.160  -4.957   1.737  0.00  0.00    -0.114 NA
ATOM     24  N   UNL     1      -3.935  -5.767   0.763  0.00  0.00    -0.107 NA
ATOM     25  C   UNL     1      -3.896  -5.093  -0.362  0.00  0.00    +0.249 A 
ATOM     26  O   UNL     1      -4.114  -3.797  -0.058  0.00  0.00    -0.422 OA
BRANCH  25  27
ATOM     27  C   UNL     1      -3.663  -5.650  -1.711  0.00  0.00    +0.052 A 
ATOM     28  C   UNL     1      -3.653  -4.809  -2.825  0.00  0.00    +0.014 A 
ATOM     29  C   UNL     1      -3.429  -5.335  -4.080  0.00  0.00    +0.001 A 
ATOM     30  C   UNL     1      -3.225  -6.694  -4.239  0.00  0.00    +0.001 A 
ATOM     31  C   UNL     1      -3.239  -7.534  -3.140  0.00  0.00    +0.016 A 
ATOM     32  C   UNL     1      -3.456  -7.021  -1.877  0.00  0.00    +0.030 A 
ATOM     33 BR   UNL     1      -3.475  -8.171  -0.376  0.00  0.00    -0.050 Br
ENDBRANCH  25  27
ENDBRANCH  21  22
ENDBRANCH   1  21
TORSDOF 6
