REMARK  Name = ZINC05063815
REMARK  8 active torsions:
REMARK  status: ('A' for Active; 'I' for Inactive)
REMARK    1  A    between atoms: C_1  and  C_2
REMARK    2  A    between atoms: C_6  and  C_23
REMARK    3  A    between atoms: C_7  and  O_8
REMARK    4  A    between atoms: O_8  and  C_9
REMARK    5  A    between atoms: C_9  and  C_10
REMARK    6  A    between atoms: N_12  and  C_13
REMARK    7  A    between atoms: C_17  and  N_20
REMARK    8  A    between atoms: C_18  and  C_19
REMARK                            x       y       z     vdW  Elec       q    Type
REMARK                         _______ _______ _______ _____ _____    ______ ____
ROOT
ATOM      1  C   UNL     1      -0.356   3.921   0.857  0.00  0.00    +0.255 C 
ATOM      2  O   UNL     1      -1.355   3.233   0.825  0.00  0.00    -0.272 OA
ATOM      3  N   UNL     1       0.841   3.387   0.543  0.00  0.00    -0.282 N 
ATOM      4  H   UNL     1       1.629   3.951   0.508  0.00  0.00    +0.155 HD
ENDROOT
BRANCH   3   5
ATOM      5  C   UNL     1       0.946   2.019   0.268  0.00  0.00    +0.039 A 
ATOM      6  C   UNL     1      -0.102   1.351  -0.352  0.00  0.00    +0.024 A 
ATOM      7  C   UNL     1       0.005   0.002  -0.622  0.00  0.00    +0.004 A 
ATOM      8  C   UNL     1       1.155  -0.685  -0.276  0.00  0.00    +0.033 A 
ATOM      9  C   UNL     1       2.200  -0.023   0.342  0.00  0.00    +0.131 A 
ATOM     10  C   UNL     1       2.099   1.327   0.614  0.00  0.00    +0.001 A 
ATOM     11  C   UNL     1       3.238   2.048   1.288  0.00  0.00    +0.048 C 
BRANCH   9  12
ATOM     12  N   UNL     1       3.428  -0.762   0.711  0.00  0.00    +0.057 N 
ATOM     13  O   UNL     1       3.467  -1.974   0.596  0.00  0.00    -0.126 OA
ATOM     14  O   UNL     1       4.399  -0.159   1.131  0.00  0.00    -0.126 OA
ENDBRANCH   9  12
ENDBRANCH   3   5
BRANCH   1  15
ATOM     15  C   UNL     1      -0.455   5.374   1.247  0.00  0.00    +0.324 C 
BRANCH  15  16
ATOM     16  O   UNL     1      -1.817   5.699   1.531  0.00  0.00    -0.482 OA
BRANCH  16  23
ATOM     17  C   UNL     1      -1.728   6.302   4.290  0.00  0.00    +0.047 C 
ATOM     18  C   UNL     1      -2.052   7.336   3.242  0.00  0.00    -0.007 A 
ATOM     19  C   UNL     1      -2.315   8.639   3.616  0.00  0.00    +0.022 A 
ATOM     20  C   UNL     1      -2.618   9.588   2.655  0.00  0.00    +0.019 A 
ATOM     21  C   UNL     1      -2.652   9.234   1.318  0.00  0.00    +0.022 A 
ATOM     22  C   UNL     1      -2.384   7.933   0.940  0.00  0.00    -0.007 A 
ATOM     23  C   UNL     1      -2.080   6.980   1.901  0.00  0.00    +0.127 A 
ATOM     24  C   UNL     1      -2.422   7.548  -0.517  0.00  0.00    +0.047 C 
ATOM     25 BR   UNL     1      -2.985  11.370   3.170  0.00  0.00    -0.050 Br
ENDBRANCH  16  23
ENDBRANCH  15  16
ENDBRANCH   1  15
TORSDOF 5
