REMARK  Name = ZINC40731291
REMARK  5 active torsions:
REMARK  status: ('A' for Active; 'I' for Inactive)
REMARK    1  A    between atoms: C_1  and  C_2
REMARK    2  A    between atoms: C_10  and  N_24
REMARK    3  A    between atoms: C_11  and  N_15
REMARK    4  A    between atoms: N_15  and  N_16
REMARK    5  A    between atoms: C_17  and  C_19
REMARK                            x       y       z     vdW  Elec       q    Type
REMARK                         _______ _______ _______ _____ _____    ______ ____
ROOT
ATOM      1  C   UNL     1      -1.014   0.507   3.675  0.00  0.00    +0.009 C 
ATOM      2  C   UNL     1      -0.191   0.017   2.482  0.00  0.00    +0.003 C 
ATOM      3  C   UNL     1      -0.904   0.393   1.181  0.00  0.00    +0.006 C 
ATOM      4  C   UNL     1      -0.065  -0.067  -0.013  0.00  0.00    +0.019 C 
ATOM      5  C   UNL     1       0.087  -1.591   0.032  0.00  0.00    +0.106 C 
ATOM      6  N   UNL     1       0.638  -1.972   1.339  0.00  0.00    -0.313 N 
ATOM      7  C   UNL     1      -0.040  -1.505   2.556  0.00  0.00    +0.109 C 
ATOM      8  C   UNL     1       1.780  -2.761   1.423  0.00  0.00    +0.147 A 
ATOM      9  C   UNL     1       1.676  -4.148   1.539  0.00  0.00    +0.107 A 
ATOM     10  C   UNL     1       2.854  -4.893   1.620  0.00  0.00    +0.161 A 
ATOM     11  N   UNL     1       4.022  -4.257   1.584  0.00  0.00    -0.217 NA
ATOM     12  C   UNL     1       4.076  -2.945   1.473  0.00  0.00    +0.225 A 
ATOM     13  N   UNL     1       2.988  -2.205   1.389  0.00  0.00    -0.219 NA
ENDROOT
BRANCH   9  14
ATOM     14  N   UNL     1       0.421  -4.778   1.574  0.00  0.00    -0.353 N 
ATOM     15  H   UNL     1      -0.386  -4.259   1.427  0.00  0.00    +0.143 HD
ATOM     16  H   UNL     1       0.360  -5.731   1.745  0.00  0.00    +0.143 HD
ENDBRANCH   9  14
BRANCH  10  17
ATOM     17  N   UNL     1       2.807  -6.277   1.737  0.00  0.00    -0.246 N 
ATOM     18  H   UNL     1       1.951  -6.733   1.763  0.00  0.00    +0.172 HD
BRANCH  17  19
ATOM     19  N   UNL     1       3.996  -7.014   1.817  0.00  0.00    -0.229 N 
ATOM     20  C   UNL     1       3.951  -8.356   1.931  0.00  0.00    +0.295 C 
ATOM     21  O   UNL     1       2.877  -8.928   1.963  0.00  0.00    -0.265 OA
ATOM     22  H   UNL     1       4.852  -6.558   1.791  0.00  0.00    +0.173 HD
BRANCH  20  23
ATOM     23  C   UNL     1       5.195  -9.127   2.014  0.00  0.00    +0.190 A 
ATOM     24  C   UNL     1       5.292 -10.485   2.126  0.00  0.00    +0.054 A 
ATOM     25  C   UNL     1       6.662 -10.789   2.174  0.00  0.00    +0.042 A 
ATOM     26  C   UNL     1       7.332  -9.618   2.091  0.00  0.00    +0.196 A 
ATOM     27  O   UNL     1       6.445  -8.620   1.989  0.00  0.00    -0.458 OA
ENDBRANCH  20  23
ENDBRANCH  17  19
ENDBRANCH  10  17
TORSDOF 4
