REMARK  Name = ZINC05356041
REMARK  7 active torsions:
REMARK  status: ('A' for Active; 'I' for Inactive)
REMARK    1  A    between atoms: C_1  and  C_2
REMARK    2  A    between atoms: C_5  and  C_26
REMARK    3  A    between atoms: C_6  and  C_8
REMARK    4  A    between atoms: C_8  and  O_10
REMARK    5  A    between atoms: O_10  and  C_11
REMARK    6  A    between atoms: C_11  and  C_13
REMARK    7  A    between atoms: C_11  and  C_14
REMARK                            x       y       z     vdW  Elec       q    Type
REMARK                         _______ _______ _______ _____ _____    ______ ____
ROOT
ATOM      1  C   UNL     1      -0.590   0.162  -4.835  0.00  0.00    +0.239 C 
ATOM      2  C   UNL     1       0.790   0.351  -5.469  0.00  0.00    +0.060 C 
ENDROOT
BRANCH   1   3
ATOM      3  C   UNL     1      -1.495  -0.550  -5.806  0.00  0.00    +0.151 A 
ATOM      4  N   UNL     1      -2.832  -0.546  -5.563  0.00  0.00    -0.307 N 
ATOM      5  H   UNL     1      -3.186  -0.080  -4.753  0.00  0.00    +0.170 HD
ATOM      6  C   UNL     1      -3.688  -1.166  -6.409  0.00  0.00    +0.259 A 
ATOM      7  O   UNL     1      -4.888  -1.166  -6.205  0.00  0.00    -0.267 OA
ATOM      8  C   UNL     1      -3.111  -1.845  -7.579  0.00  0.00    +0.065 A 
ATOM      9  C   UNL     1      -3.905  -2.517  -8.506  0.00  0.00    +0.015 A 
ATOM     10  C   UNL     1      -3.311  -3.137  -9.584  0.00  0.00    +0.001 A 
ATOM     11  C   UNL     1      -1.933  -3.096  -9.752  0.00  0.00    +0.002 A 
ATOM     12  C   UNL     1      -1.132  -2.437  -8.847  0.00  0.00    +0.028 A 
ATOM     13  C   UNL     1      -1.710  -1.801  -7.746  0.00  0.00    +0.078 A 
ATOM     14  N   UNL     1      -0.958  -1.141  -6.830  0.00  0.00    -0.230 NA
ENDBRANCH   1   3
BRANCH   1  15
ATOM     15  O   UNL     1      -0.461  -0.630  -3.624  0.00  0.00    -0.450 OA
BRANCH  15  16
ATOM     16  C   UNL     1      -0.251   0.041  -2.475  0.00  0.00    +0.340 C 
ATOM     17  O   UNL     1      -0.178   1.253  -2.484  0.00  0.00    -0.245 OA
BRANCH  16  23
ATOM     18  C   UNL     1       0.104  -4.284  -0.013  0.00  0.00    +0.044 C 
ATOM     19  C   UNL     1       0.060  -2.778  -0.014  0.00  0.00    -0.050 A 
ATOM     20  C   UNL     1       0.145  -2.084   1.180  0.00  0.00    +0.003 A 
ATOM     21  C   UNL     1       0.106  -0.701   1.189  0.00  0.00    +0.004 A 
ATOM     22  C   UNL     1      -0.019  -0.004   0.004  0.00  0.00    -0.036 A 
ATOM     23  C   UNL     1      -0.111  -0.698  -1.204  0.00  0.00    +0.062 A 
ATOM     24  C   UNL     1      -0.064  -2.094  -1.205  0.00  0.00    +0.018 A 
ATOM     25  C   UNL     1      -0.062   1.502   0.015  0.00  0.00    +0.044 C 
ENDBRANCH  16  23
ENDBRANCH  15  16
ENDBRANCH   1  15
TORSDOF 4
