REMARK  Name = ZINC12498212
REMARK  14 active torsions:
REMARK  status: ('A' for Active; 'I' for Inactive)
REMARK    1  A    between atoms: C_1  and  C_2
REMARK    2  A    between atoms: C_2  and  C_3
REMARK    3  A    between atoms: C_3  and  C_4
REMARK    4  A    between atoms: C_4  and  C_35
REMARK    5  A    between atoms: C_9  and  C_11
REMARK    6  A    between atoms: C_14  and  O_19
REMARK    7  A    between atoms: C_15  and  O_17
REMARK    8  A    between atoms: O_17  and  C_18
REMARK    9  A    between atoms: O_19  and  C_20
REMARK   10  A    between atoms: N_23  and  C_26
REMARK   11  A    between atoms: C_30  and  C_32
REMARK   12  A    between atoms: C_32  and  C_34
REMARK   13  A    between atoms: C_35  and  O_37
REMARK   14  A    between atoms: O_37  and  C_38
REMARK                            x       y       z     vdW  Elec       q    Type
REMARK                         _______ _______ _______ _____ _____    ______ ____
ROOT
ATOM      1  C   UNL     1      -6.015   0.288   0.004  0.00  0.00    +0.044 C 
ATOM      2  C   UNL     1      -4.593   0.564  -0.328  0.00  0.00    +0.086 C 
ATOM      3  C   UNL     1      -3.890  -0.649   0.401  0.00  0.00    +0.077 C 
ATOM      4  C   UNL     1      -4.756  -1.754  -0.153  0.00  0.00    -0.027 C 
ATOM      5  C   UNL     1      -2.498  -0.329   0.006  0.00  0.00    +0.229 C 
ATOM      6  O   UNL     1      -1.613  -1.110  -0.268  0.00  0.00    -0.275 OA
ATOM      7  N   UNL     1      -2.426   1.039   0.019  0.00  0.00    -0.210 N 
ATOM      8  C   UNL     1      -3.663   1.632   0.028  0.00  0.00    +0.229 C 
ATOM      9  O   UNL     1      -3.927   2.789   0.278  0.00  0.00    -0.275 OA
ATOM     10  N   UNL     1      -6.126  -1.182   0.001  0.00  0.00    +0.395 N 
ATOM     11  H   UNL     1      -6.719  -1.484  -0.781  0.00  0.00    -0.083 HD
ATOM     12  H   UNL     1      -6.538  -1.501   0.886  0.00  0.00    -0.083 HD
ENDROOT
BRANCH   4  13
ATOM     13  C   UNL     1      -4.597  -3.016   0.655  0.00  0.00    -0.057 A 
ATOM     14  C   UNL     1      -5.269  -3.154   1.856  0.00  0.00    +0.006 A 
ATOM     15  C   UNL     1      -5.130  -4.312   2.599  0.00  0.00    +0.049 A 
ATOM     16  C   UNL     1      -4.309  -5.332   2.147  0.00  0.00    +0.161 A 
ATOM     17  C   UNL     1      -3.629  -5.190   0.941  0.00  0.00    +0.162 A 
ATOM     18  C   UNL     1      -3.776  -4.030   0.199  0.00  0.00    +0.051 A 
BRANCH  17  19
ATOM     19  O   UNL     1      -2.821  -6.188   0.493  0.00  0.00    -0.491 OA
ATOM     20  C   UNL     1      -2.154  -5.974  -0.752  0.00  0.00    +0.277 C 
ENDBRANCH  17  19
BRANCH  16  21
ATOM     21  O   UNL     1      -4.168  -6.469   2.880  0.00  0.00    -0.491 OA
ATOM     22  C   UNL     1      -4.896  -6.544   4.107  0.00  0.00    +0.277 C 
ENDBRANCH  16  21
ENDBRANCH   4  13
BRANCH   7  23
ATOM     23  C   UNL     1      -1.220   1.754   0.017  0.00  0.00    +0.045 A 
ATOM     24  C   UNL     1      -1.236   3.144   0.029  0.00  0.00    +0.024 A 
ATOM     25  C   UNL     1      -0.051   3.856   0.022  0.00  0.00    +0.003 A 
ATOM     26  C   UNL     1       1.158   3.192   0.008  0.00  0.00    +0.011 A 
ATOM     27  C   UNL     1       1.187   1.794   0.000  0.00  0.00    +0.019 A 
ATOM     28  C   UNL     1      -0.013   1.076   0.008  0.00  0.00    +0.035 A 
BRANCH  27  29
ATOM     29  C   UNL     1       2.474   1.081  -0.016  0.00  0.00    +0.160 C 
ATOM     30  O   UNL     1       2.497  -0.131  -0.022  0.00  0.00    -0.292 OA
ATOM     31  C   UNL     1       3.766   1.858  -0.024  0.00  0.00    +0.091 C 
ENDBRANCH  27  29
ENDBRANCH   7  23
BRANCH   1  32
ATOM     32  C   UNL     1      -6.924   0.893  -1.034  0.00  0.00    +0.297 C 
ATOM     33  O   UNL     1      -6.552   1.839  -1.686  0.00  0.00    -0.252 OA
BRANCH  32  34
ATOM     34  O   UNL     1      -8.149   0.380  -1.234  0.00  0.00    -0.469 OA
ATOM     35  C   UNL     1      -8.970   1.013  -2.250  0.00  0.00    +0.280 C 
ENDBRANCH  32  34
ENDBRANCH   1  32
BRANCH   1  36
ATOM     36  C   UNL     1      -6.352   0.832   1.394  0.00  0.00    -0.001 C 
BRANCH  36  38
ATOM     37  C   UNL     1      -8.118   0.973   3.156  0.00  0.00    +0.004 C 
ATOM     38  C   UNL     1      -7.781   0.429   1.766  0.00  0.00    -0.004 C 
ENDBRANCH  36  38
ENDBRANCH   1  36
TORSDOF 9
