REMARK  Name = ZINC60377971
REMARK  12 active torsions:
REMARK  status: ('A' for Active; 'I' for Inactive)
REMARK    1  A    between atoms: C_1  and  C_2
REMARK    2  A    between atoms: C_6  and  C_30
REMARK    3  A    between atoms: C_7  and  O_8
REMARK    4  A    between atoms: O_8  and  C_9
REMARK    5  A    between atoms: C_9  and  C_10
REMARK    6  A    between atoms: C_10  and  C_12
REMARK    7  A    between atoms: C_10  and  O_29
REMARK    8  A    between atoms: C_12  and  N_13
REMARK    9  A    between atoms: N_22  and  C_25
REMARK   10  A    between atoms: C_25  and  C_26
REMARK   11  A    between atoms: C_25  and  C_27
REMARK   12  A    between atoms: C_25  and  C_28
REMARK                            x       y       z     vdW  Elec       q    Type
REMARK                         _______ _______ _______ _____ _____    ______ ____
ROOT
ATOM      1  N   UNL     1      -2.203   1.958   6.213  0.00  0.00    -0.312 N 
ATOM      2  C   UNL     1      -3.283   2.266   7.001  0.00  0.00    +0.198 A 
ATOM      3  N   UNL     1      -3.077   2.942   8.168  0.00  0.00    -0.295 N 
ATOM      4  H   UNL     1      -2.178   3.195   8.427  0.00  0.00    +0.172 HD
ATOM      5  C   UNL     1      -4.122   3.260   8.965  0.00  0.00    +0.263 A 
ATOM      6  O   UNL     1      -3.950   3.865  10.009  0.00  0.00    -0.267 OA
ATOM      7  C   UNL     1      -5.422   2.874   8.554  0.00  0.00    +0.103 A 
ATOM      8  C   UNL     1      -6.712   3.025   9.103  0.00  0.00    +0.150 A 
ATOM      9  N   UNL     1      -7.571   2.470   8.295  0.00  0.00    -0.176 NA
ATOM     10  N   UNL     1      -6.896   1.934   7.190  0.00  0.00    -0.241 N 
ATOM     11  C   UNL     1      -5.568   2.179   7.342  0.00  0.00    +0.167 A 
ATOM     12  N   UNL     1      -4.482   1.906   6.605  0.00  0.00    -0.196 NA
ATOM     13  H   UNL     1      -1.310   2.217   6.491  0.00  0.00    +0.149 HD
ENDROOT
BRANCH  10  14
ATOM     14  C   UNL     1      -7.516   1.231   6.065  0.00  0.00    +0.058 C 
ATOM     15  C   UNL     1      -9.030   1.166   6.275  0.00  0.00    +0.036 C 
ATOM     16  C   UNL     1      -7.214   1.981   4.766  0.00  0.00    +0.036 C 
ATOM     17  C   UNL     1      -6.952  -0.189   5.978  0.00  0.00    +0.036 C 
ENDBRANCH  10  14
BRANCH   1  18
ATOM     18  C   UNL     1      -2.397   1.238   4.953  0.00  0.00    +0.139 C 
BRANCH  18  19
ATOM     19  C   UNL     1      -1.043   1.022   4.274  0.00  0.00    +0.169 C 
BRANCH  19  20
ATOM     20  O   UNL     1      -0.435   2.289   4.011  0.00  0.00    -0.387 OA
ATOM     21  H   UNL     1      -0.956   2.862   3.432  0.00  0.00    +0.210 HD
ENDBRANCH  19  20
BRANCH  19  22
ATOM     22  C   UNL     1      -1.246   0.270   2.957  0.00  0.00    +0.261 C 
BRANCH  22  23
ATOM     23  O   UNL     1       0.025  -0.033   2.381  0.00  0.00    -0.489 OA
BRANCH  23  30
ATOM     24  C   UNL     1      -0.018   1.503   0.010  0.00  0.00    +0.047 C 
ATOM     25  C   UNL     1       0.002  -0.004   0.002  0.00  0.00    -0.009 A 
ATOM     26  C   UNL     1       0.006  -0.689  -1.198  0.00  0.00    +0.007 A 
ATOM     27  C   UNL     1       0.024  -2.071  -1.206  0.00  0.00    +0.001 A 
ATOM     28  C   UNL     1       0.040  -2.772  -0.014  0.00  0.00    +0.007 A 
ATOM     29  C   UNL     1       0.036  -2.092   1.188  0.00  0.00    -0.009 A 
ATOM     30  C   UNL     1       0.023  -0.705   1.199  0.00  0.00    +0.126 A 
ATOM     31  C   UNL     1       0.052  -2.856   2.487  0.00  0.00    +0.047 C 
ENDBRANCH  23  30
ENDBRANCH  22  23
ENDBRANCH  19  22
ENDBRANCH  18  19
ENDBRANCH   1  18
TORSDOF 7
