REMARK  Name = ZINC58246828
REMARK  7 active torsions:
REMARK  status: ('A' for Active; 'I' for Inactive)
REMARK    1  A    between atoms: C_1  and  C_2
REMARK    2  A    between atoms: C_2  and  C_3
REMARK    3  A    between atoms: C_2  and  N_13
REMARK    4  A    between atoms: C_6  and  N_9
REMARK    5  A    between atoms: C_14  and  C_16
REMARK    6  A    between atoms: N_19  and  C_21
REMARK    7  A    between atoms: C_24  and  N_27
REMARK                            x       y       z     vdW  Elec       q    Type
REMARK                         _______ _______ _______ _____ _____    ______ ____
ROOT
ATOM      1  N   UNL     1       0.577  -0.661  -1.205  0.00  0.00    -0.305 N 
ATOM      2  C   UNL     1      -0.172  -0.793  -2.317  0.00  0.00    +0.248 C 
ATOM      3  O   UNL     1      -1.317  -0.384  -2.331  0.00  0.00    -0.270 OA
ATOM      4  H   UNL     1       1.490  -0.988  -1.194  0.00  0.00    +0.150 HD
ENDROOT
BRANCH   2   5
ATOM      5  C   UNL     1       0.396  -1.433  -3.517  0.00  0.00    +0.074 A 
ATOM      6  C   UNL     1       1.701  -1.960  -3.648  0.00  0.00    +0.147 A 
ATOM      7  N   UNL     1       1.824  -2.440  -4.856  0.00  0.00    -0.174 NA
ATOM      8  N   UNL     1       0.622  -2.247  -5.545  0.00  0.00    -0.239 N 
ATOM      9  C   UNL     1      -0.248  -1.636  -4.721  0.00  0.00    +0.127 A 
BRANCH   8  10
ATOM     10  C   UNL     1       0.367  -2.629  -6.869  0.00  0.00    +0.065 A 
ATOM     11  C   UNL     1      -0.872  -2.372  -7.441  0.00  0.00    +0.030 A 
ATOM     12  C   UNL     1      -1.121  -2.750  -8.746  0.00  0.00    +0.035 A 
ATOM     13  C   UNL     1      -0.138  -3.384  -9.483  0.00  0.00    +0.126 A 
ATOM     14  C   UNL     1       1.098  -3.641  -8.916  0.00  0.00    +0.035 A 
ATOM     15  C   UNL     1       1.354  -3.260  -7.614  0.00  0.00    +0.030 A 
BRANCH  13  16
ATOM     16  N   UNL     1      -0.408  -3.789 -10.881  0.00  0.00    +0.056 N 
ATOM     17  O   UNL     1      -1.487  -3.565 -11.377  0.00  0.00    -0.126 OA
ATOM     18  O   UNL     1       0.451  -4.343 -11.526  0.00  0.00    -0.126 OA
ENDBRANCH  13  16
ENDBRANCH   8  10
ENDBRANCH   2   5
BRANCH   1  20
ATOM     19  C   UNL     1       0.169   1.493  -0.121  0.00  0.00    +0.033 C 
ATOM     20  C   UNL     1       0.012  -0.025  -0.012  0.00  0.00    +0.100 C 
BRANCH  20  21
ATOM     21  C   UNL     1       0.738  -0.518   1.212  0.00  0.00    -0.027 A 
ATOM     22  C   UNL     1       2.110  -0.692   1.178  0.00  0.00    +0.007 A 
ATOM     23  C   UNL     1       2.778  -1.144   2.299  0.00  0.00    +0.023 A 
ATOM     24  C   UNL     1       2.072  -1.425   3.461  0.00  0.00    +0.035 A 
ATOM     25  C   UNL     1       0.694  -1.250   3.492  0.00  0.00    +0.023 A 
ATOM     26  C   UNL     1       0.032  -0.792   2.370  0.00  0.00    +0.007 A 
BRANCH  24  27
ATOM     27  N   UNL     1       2.746  -1.884   4.598  0.00  0.00    -0.270 N 
ATOM     28  C   UNL     1       3.998  -1.458   4.857  0.00  0.00    +0.301 C 
ATOM     29  O   UNL     1       4.506  -0.603   4.157  0.00  0.00    -0.253 OA
ATOM     30  N   UNL     1       4.688  -1.980   5.891  0.00  0.00    -0.313 N 
ATOM     31  H   UNL     1       2.312  -2.509   5.200  0.00  0.00    +0.156 HD
ATOM     32  H   UNL     1       4.282  -2.662   6.449  0.00  0.00    +0.146 HD
ATOM     33  H   UNL     1       5.589  -1.673   6.077  0.00  0.00    +0.146 HD
ENDBRANCH  24  27
ENDBRANCH  20  21
ENDBRANCH   1  20
TORSDOF 6
