REMARK  Name = ZINC52924002
REMARK  3 active torsions:
REMARK  status: ('A' for Active; 'I' for Inactive)
REMARK    1  A    between atoms: C_2  and  C_3
REMARK    2  A    between atoms: C_3  and  N_4
REMARK    3  A    between atoms: C_8  and  N_14
REMARK                            x       y       z     vdW  Elec       q    Type
REMARK                         _______ _______ _______ _____ _____    ______ ____
ROOT
ATOM      1  N   UNL     1      -1.318  -1.700  -1.126  0.00  0.00    -0.267 N 
ATOM      2  C   UNL     1      -1.819  -1.370  -2.389  0.00  0.00    +0.040 A 
ATOM      3  C   UNL     1      -2.377  -0.185  -2.864  0.00  0.00    +0.025 A 
ATOM      4  C   UNL     1      -2.808  -0.096  -4.171  0.00  0.00    +0.024 A 
ATOM      5  C   UNL     1      -2.688  -1.186  -5.024  0.00  0.00    +0.025 A 
ATOM      6  C   UNL     1      -2.131  -2.370  -4.554  0.00  0.00    +0.028 A 
ATOM      7  C   UNL     1      -1.703  -2.454  -3.249  0.00  0.00    -0.015 A 
ATOM      8  C   UNL     1      -1.069  -3.568  -2.447  0.00  0.00    +0.133 C 
ATOM      9  C   UNL     1      -0.856  -2.961  -1.076  0.00  0.00    +0.224 C 
ATOM     10  O   UNL     1      -0.364  -3.510  -0.113  0.00  0.00    -0.275 OA
ENDROOT
BRANCH   5  11
ATOM     11  N   UNL     1      -3.126  -1.093  -6.349  0.00  0.00    -0.358 N 
ATOM     12  H   UNL     1      -3.514  -0.266  -6.675  0.00  0.00    +0.142 HD
ATOM     13  H   UNL     1      -3.041  -1.856  -6.943  0.00  0.00    +0.142 HD
ENDBRANCH   5  11
BRANCH   1  14
ATOM     14  C   UNL     1      -1.293  -0.775   0.010  0.00  0.00    +0.140 C 
BRANCH  14  16
ATOM     15  C   UNL     1      -0.016   1.306   0.009  0.00  0.00    +0.005 C 
ATOM     16  C   UNL     1       0.002  -0.004   0.002  0.00  0.00    -0.015 C 
ENDBRANCH  14  16
ENDBRANCH   1  14
TORSDOF 3
