REMARK  Name = ZINC04235275
REMARK  6 active torsions:
REMARK  status: ('A' for Active; 'I' for Inactive)
REMARK    1  A    between atoms: C_4  and  C_7
REMARK    2  A    between atoms: C_9  and  O_33
REMARK    3  A    between atoms: C_13  and  C_21
REMARK    4  A    between atoms: C_14  and  N_18
REMARK    5  A    between atoms: C_21  and  C_23
REMARK    6  A    between atoms: C_23  and  C_25
REMARK                            x       y       z     vdW  Elec       q    Type
REMARK                         _______ _______ _______ _____ _____    ______ ____
ROOT
ATOM      1  C   UNL     1       3.114  -2.078  -0.828  0.00  0.00    +0.134 C 
ATOM      2  C   UNL     1       1.624  -2.112  -0.450  0.00  0.00    +0.171 C 
ATOM      3  C   UNL     1       1.266  -0.667  -0.187  0.00  0.00    +0.004 A 
ATOM      4  C   UNL     1       0.071  -0.084   0.189  0.00  0.00    +0.015 A 
ATOM      5  C   UNL     1      -0.007   1.284   0.371  0.00  0.00    +0.003 A 
ATOM      6  C   UNL     1       1.115   2.069   0.177  0.00  0.00    +0.133 A 
ATOM      7  C   UNL     1       2.309   1.492  -0.198  0.00  0.00    +0.056 A 
ATOM      8  C   UNL     1       2.396   0.110  -0.384  0.00  0.00    +0.036 A 
ATOM      9  N   UNL     1       3.495  -0.665  -0.758  0.00  0.00    -0.334 N 
ATOM     10  H   UNL     1       4.382  -0.318  -0.944  0.00  0.00    +0.147 HD
ENDROOT
BRANCH   1  14
ATOM     11  C   UNL     1       5.403  -4.370   1.957  0.00  0.00    +0.000 A 
ATOM     12  C   UNL     1       5.107  -4.891   0.711  0.00  0.00    +0.000 A 
ATOM     13  C   UNL     1       4.367  -4.149  -0.190  0.00  0.00    +0.005 A 
ATOM     14  C   UNL     1       3.921  -2.886   0.155  0.00  0.00    -0.025 A 
ATOM     15  C   UNL     1       4.221  -2.364   1.399  0.00  0.00    +0.005 A 
ATOM     16  C   UNL     1       4.958  -3.107   2.301  0.00  0.00    +0.000 A 
ENDBRANCH   1  14
BRANCH   6  17
ATOM     17  N   UNL     1       1.033   3.534   0.371  0.00  0.00    +0.057 N 
ATOM     18  O   UNL     1       1.508   4.286  -0.460  0.00  0.00    -0.126 OA
ATOM     19  O   UNL     1       0.491   3.987   1.364  0.00  0.00    -0.126 OA
ENDBRANCH   6  17
BRANCH   5  20
ATOM     20  C   UNL     1      -1.312   1.920   0.775  0.00  0.00    +0.135 C 
ATOM     21 CL   UNL     1      -1.508   3.491  -0.087  0.00  0.00    -0.115 Cl
BRANCH  20  22
ATOM     22  C   UNL     1      -1.316   2.163   2.285  0.00  0.00    +0.132 C 
ATOM     23 CL   UNL     1      -1.121   0.591   3.147  0.00  0.00    -0.115 Cl
BRANCH  22  24
ATOM     24  C   UNL     1      -2.622   2.798   2.689  0.00  0.00    -0.028 A 
ATOM     25  C   UNL     1      -3.805   2.098   2.544  0.00  0.00    +0.005 A 
ATOM     26  C   UNL     1      -5.002   2.679   2.918  0.00  0.00    +0.000 A 
ATOM     27  C   UNL     1      -5.017   3.964   3.429  0.00  0.00    +0.000 A 
ATOM     28  C   UNL     1      -3.834   4.666   3.569  0.00  0.00    +0.000 A 
ATOM     29  C   UNL     1      -2.636   4.083   3.199  0.00  0.00    +0.005 A 
ENDBRANCH  22  24
ENDBRANCH  20  22
ENDBRANCH   5  20
BRANCH   2  30
ATOM     30  O   UNL     1       0.847  -2.630  -1.532  0.00  0.00    -0.385 OA
ATOM     31  H   UNL     1      -0.106  -2.625  -1.369  0.00  0.00    +0.210 HD
ENDBRANCH   2  30
TORSDOF 6
