REMARK  Name = ZINC36601635
REMARK  15 active torsions:
REMARK  status: ('A' for Active; 'I' for Inactive)
REMARK    1  A    between atoms: C_1  and  C_2
REMARK    2  A    between atoms: C_2  and  C_3
REMARK    3  A    between atoms: C_3  and  C_4
REMARK    4  A    between atoms: C_4  and  N_5
REMARK    5  A    between atoms: C_6  and  C_8
REMARK    6  A    between atoms: C_8  and  C_10
REMARK    7  A    between atoms: C_8  and  N_19
REMARK    8  A    between atoms: C_11  and  O_18
REMARK    9  A    between atoms: C_13  and  O_17
REMARK   10  A    between atoms: C_15  and  O_16
REMARK   11  A    between atoms: N_19  and  C_20
REMARK   12  A    between atoms: C_20  and  C_21
REMARK   13  A    between atoms: C_24  and  C_26
REMARK   14  A    between atoms: C_27  and  C_29
REMARK   15  A    between atoms: C_29  and  C_31
REMARK                            x       y       z     vdW  Elec       q    Type
REMARK                         _______ _______ _______ _____ _____    ______ ____
ROOT
ATOM      1  C   UNL     1       4.044  -4.176  -4.075  0.00  0.00    +0.200 C 
ENDROOT
BRANCH   1   2
ATOM      2  C   UNL     1       4.683  -2.908  -4.579  0.00  0.00    +0.065 A 
ATOM      3  C   UNL     1       4.517  -2.525  -5.901  0.00  0.00    +0.129 A 
ATOM      4  C   UNL     1       5.105  -1.358  -6.365  0.00  0.00    +0.091 A 
ATOM      5  C   UNL     1       5.859  -0.573  -5.506  0.00  0.00    +0.124 A 
ATOM      6  C   UNL     1       6.025  -0.955  -4.183  0.00  0.00    +0.091 A 
ATOM      7  C   UNL     1       5.433  -2.120  -3.718  0.00  0.00    +0.129 A 
BRANCH   7   8
ATOM      8  O   UNL     1       5.592  -2.492  -2.421  0.00  0.00    -0.506 OA
ATOM      9  H   UNL     1       6.364  -3.052  -2.264  0.00  0.00    +0.292 HD
ENDBRANCH   7   8
BRANCH   5  10
ATOM     10  O   UNL     1       6.436   0.570  -5.961  0.00  0.00    -0.507 OA
ATOM     11  H   UNL     1       5.879   1.355  -5.871  0.00  0.00    +0.292 HD
ENDBRANCH   5  10
BRANCH   3  12
ATOM     12  O   UNL     1       3.777  -3.294  -6.743  0.00  0.00    -0.506 OA
ATOM     13  H   UNL     1       2.832  -3.093  -6.732  0.00  0.00    +0.292 HD
ENDBRANCH   3  12
ENDBRANCH   1   2
BRANCH   1  15
ATOM     14  N   UNL     1       1.889  -4.650  -5.193  0.00  0.00    -0.313 N 
ATOM     15  C   UNL     1       3.228  -4.800  -5.178  0.00  0.00    +0.238 C 
ATOM     16  O   UNL     1       3.777  -5.437  -6.051  0.00  0.00    -0.273 OA
ATOM     17  H   UNL     1       1.450  -4.141  -4.494  0.00  0.00    +0.149 HD
BRANCH  14  18
ATOM     18  C   UNL     1       1.096  -5.257  -6.265  0.00  0.00    +0.104 C 
BRANCH  18  19
ATOM     19  C   UNL     1      -0.384  -4.938  -6.048  0.00  0.00    +0.018 C 
BRANCH  19  21
ATOM     20  C   UNL     1      -2.693  -5.253  -6.950  0.00  0.00    +0.004 C 
ATOM     21  C   UNL     1      -1.212  -5.572  -7.167  0.00  0.00    -0.002 C 
ENDBRANCH  19  21
ENDBRANCH  18  19
ENDBRANCH  14  18
ENDBRANCH   1  15
BRANCH   1  22
ATOM     22  N   UNL     1       5.087  -5.112  -3.648  0.00  0.00    -0.275 N 
ATOM     23  C   UNL     1       5.226  -5.417  -2.343  0.00  0.00    +0.243 C 
ATOM     24  O   UNL     1       6.171  -6.088  -1.973  0.00  0.00    -0.270 OA
BRANCH  23  25
ATOM     25  C   UNL     1       4.236  -4.939  -1.366  0.00  0.00    +0.004 C 
ATOM     26  C   UNL     1       4.530  -3.918  -0.566  0.00  0.00    +0.017 C 
ATOM     27  C   UNL     1       2.887  -5.606  -1.272  0.00  0.00    +0.048 C 
ENDBRANCH  23  25
BRANCH  22  28
ATOM     28  C   UNL     1       5.978  -5.718  -4.641  0.00  0.00    +0.183 C 
BRANCH  28  29
ATOM     29  C   UNL     1       7.234  -4.893  -4.757  0.00  0.00    +0.122 A 
ATOM     30  C   UNL     1       8.357  -5.065  -4.038  0.00  0.00    +0.046 A 
ATOM     31  C   UNL     1       9.275  -4.080  -4.470  0.00  0.00    +0.045 A 
ATOM     32  C   UNL     1       8.658  -3.364  -5.427  0.00  0.00    +0.102 A 
ATOM     33  O   UNL     1       7.423  -3.865  -5.601  0.00  0.00    -0.463 OA
ATOM     34  C   UNL     1       9.251  -2.202  -6.179  0.00  0.00    +0.086 C 
ENDBRANCH  28  29
ENDBRANCH  22  28
ENDBRANCH   1  22
TORSDOF 12
