REMARK  Name = ZINC36952175
REMARK  6 active torsions:
REMARK  status: ('A' for Active; 'I' for Inactive)
REMARK    1  A    between atoms: C_4  and  C_17
REMARK    2  A    between atoms: C_6  and  N_7
REMARK    3  A    between atoms: N_7  and  C_8
REMARK    4  A    between atoms: C_8  and  C_9
REMARK    5  A    between atoms: C_12  and  O_16
REMARK    6  A    between atoms: C_14  and  O_15
REMARK                            x       y       z     vdW  Elec       q    Type
REMARK                         _______ _______ _______ _____ _____    ______ ____
ROOT
ATOM      1  N   UNL     1      -1.198  -0.720   0.010  0.00  0.00    -0.340 N 
ATOM      2  H   UNL     1      -1.183  -1.690   0.005  0.00  0.00    +0.146 HD
ENDROOT
BRANCH   1   8
ATOM      3  C   UNL     1      -0.017   1.385   0.010  0.00  0.00    +0.024 A 
ATOM      4  C   UNL     1       1.171   2.090   0.002  0.00  0.00    +0.017 A 
ATOM      5  C   UNL     1       2.378   1.415  -0.013  0.00  0.00    +0.030 A 
ATOM      6  C   UNL     1       2.400   0.031  -0.021  0.00  0.00    +0.070 A 
ATOM      7  C   UNL     1       1.216  -0.679  -0.014  0.00  0.00    +0.036 A 
ATOM      8  C   UNL     1       0.002  -0.004   0.002  0.00  0.00    +0.028 A 
ATOM      9 BR   UNL     1       4.002   2.384  -0.025  0.00  0.00    -0.050 Br
BRANCH   6  10
ATOM     10  C   UNL     1       3.717  -0.701  -0.038  0.00  0.00    +0.418 C 
ATOM     11  F   UNL     1       3.484  -2.080  -0.043  0.00  0.00    -0.166 F 
ATOM     12  F   UNL     1       4.434  -0.345  -1.186  0.00  0.00    -0.166 F 
ATOM     13  F   UNL     1       4.456  -0.357   1.099  0.00  0.00    -0.166 F 
ENDBRANCH   6  10
ENDBRANCH   1   8
BRANCH   1  14
ATOM     14  C   UNL     1      -2.477  -0.007   0.027  0.00  0.00    +0.140 C 
BRANCH  14  15
ATOM     15  C   UNL     1      -3.608  -1.003   0.033  0.00  0.00    +0.011 A 
ATOM     16  C   UNL     1      -4.271  -1.301  -1.143  0.00  0.00    +0.012 A 
ATOM     17  C   UNL     1      -5.308  -2.214  -1.140  0.00  0.00    +0.046 A 
ATOM     18  C   UNL     1      -5.686  -2.833   0.043  0.00  0.00    +0.120 A 
ATOM     19  C   UNL     1      -5.022  -2.536   1.222  0.00  0.00    +0.091 A 
ATOM     20  C   UNL     1      -3.978  -1.624   1.217  0.00  0.00    +0.125 A 
BRANCH  20  21
ATOM     21  O   UNL     1      -3.321  -1.335   2.371  0.00  0.00    -0.506 OA
ATOM     22  H   UNL     1      -3.704  -0.599   2.868  0.00  0.00    +0.292 HD
ENDBRANCH  20  21
BRANCH  18  23
ATOM     23  O   UNL     1      -6.707  -3.731   0.044  0.00  0.00    -0.507 OA
ATOM     24  H   UNL     1      -6.429  -4.643  -0.114  0.00  0.00    +0.292 HD
ENDBRANCH  18  23
ENDBRANCH  14  15
ENDBRANCH   1  14
TORSDOF 6
