REMARK  Name = ZINC04808406
REMARK  9 active torsions:
REMARK  status: ('A' for Active; 'I' for Inactive)
REMARK    1  A    between atoms: C_1  and  C_2
REMARK    2  A    between atoms: C_2  and  C_3
REMARK    3  A    between atoms: C_3  and  C_4
REMARK    4  A    between atoms: C_3  and  C_5
REMARK    5  A    between atoms: C_3  and  C_6
REMARK    6  A    between atoms: C_9  and  O_12
REMARK    7  A    between atoms: O_12  and  C_13
REMARK    8  A    between atoms: C_13  and  C_14
REMARK    9  A    between atoms: N_16  and  C_17
REMARK                            x       y       z     vdW  Elec       q    Type
REMARK                         _______ _______ _______ _____ _____    ______ ____
ROOT
ATOM      1  C   UNL     1      -1.413  -0.525   0.001  0.00  0.00    +0.255 C 
ATOM      2  O   UNL     1      -2.346   0.249   0.009  0.00  0.00    -0.272 OA
ATOM      3  N   UNL     1      -1.640  -1.854   0.008  0.00  0.00    -0.277 N 
ATOM      4  H   UNL     1      -0.897  -2.473  -0.067  0.00  0.00    +0.155 HD
ENDROOT
BRANCH   3   5
ATOM      5  C   UNL     1      -2.954  -2.342   0.124  0.00  0.00    +0.115 A 
ATOM      6  C   UNL     1      -3.299  -3.148   1.156  0.00  0.00    +0.116 A 
ATOM      7  N   UNL     1      -4.587  -3.610   1.253  0.00  0.00    -0.313 N 
ATOM      8  H   UNL     1      -4.845  -4.199   2.019  0.00  0.00    +0.170 HD
ATOM      9  C   UNL     1      -5.506  -3.278   0.329  0.00  0.00    +0.327 A 
ATOM     10  O   UNL     1      -6.641  -3.703   0.434  0.00  0.00    -0.247 OA
ATOM     11  N   UNL     1      -5.190  -2.483  -0.710  0.00  0.00    -0.274 N 
ATOM     12  H   UNL     1      -5.888  -2.248  -1.387  0.00  0.00    +0.173 HD
ATOM     13  C   UNL     1      -3.937  -2.002  -0.843  0.00  0.00    +0.275 A 
ATOM     14  O   UNL     1      -3.652  -1.283  -1.784  0.00  0.00    -0.266 OA
ENDBRANCH   3   5
BRANCH   1  15
ATOM     15  C   UNL     1       0.001  -0.003  -0.017  0.00  0.00    +0.324 C 
BRANCH  15  16
ATOM     16  O   UNL     1      -0.020   1.426  -0.021  0.00  0.00    -0.483 OA
BRANCH  16  20
ATOM     17  C   UNL     1       3.628   3.352  -0.070  0.00  0.00    -0.042 A 
ATOM     18  C   UNL     1       2.459   4.089  -0.059  0.00  0.00    +0.008 A 
ATOM     19  C   UNL     1       1.236   3.447  -0.042  0.00  0.00    +0.046 A 
ATOM     20  C   UNL     1       1.182   2.060  -0.037  0.00  0.00    +0.121 A 
ATOM     21  C   UNL     1       2.357   1.323  -0.043  0.00  0.00    +0.046 A 
ATOM     22  C   UNL     1       3.577   1.970  -0.065  0.00  0.00    +0.008 A 
BRANCH  17  23
ATOM     23  C   UNL     1       4.961   4.055  -0.087  0.00  0.00    -0.010 C 
ATOM     24  C   UNL     1       5.061   4.927  -1.341  0.00  0.00    +0.016 C 
ATOM     25  C   UNL     1       5.090   4.935   1.158  0.00  0.00    +0.016 C 
BRANCH  23  27
ATOM     26  C   UNL     1       7.438   3.731  -0.115  0.00  0.00    +0.005 C 
ATOM     27  C   UNL     1       6.085   3.017  -0.097  0.00  0.00    +0.007 C 
ENDBRANCH  23  27
ENDBRANCH  17  23
ENDBRANCH  16  20
ENDBRANCH  15  16
ENDBRANCH   1  15
TORSDOF 6
