REMARK  Name = ZINC29994975
REMARK  8 active torsions:
REMARK  status: ('A' for Active; 'I' for Inactive)
REMARK    1  A    between atoms: C_1  and  C_2
REMARK    2  A    between atoms: C_2  and  C_4
REMARK    3  A    between atoms: C_2  and  O_18
REMARK    4  A    between atoms: N_6  and  C_7
REMARK    5  A    between atoms: C_8  and  C_15
REMARK    6  A    between atoms: O_18  and  C_19
REMARK    7  A    between atoms: C_19  and  C_21
REMARK    8  A    between atoms: C_30  and  O_31
REMARK                            x       y       z     vdW  Elec       q    Type
REMARK                         _______ _______ _______ _____ _____    ______ ____
ROOT
ATOM      1  C   UNL     1      -0.019   1.526   0.010  0.00  0.00    +0.062 C 
ATOM      2  C   UNL     1       0.002  -0.004   0.002  0.00  0.00    +0.259 C 
ENDROOT
BRANCH   2   3
ATOM      3  C   UNL     1       0.731  -0.503   1.223  0.00  0.00    +0.258 C 
ATOM      4  O   UNL     1       1.774  -1.109   1.101  0.00  0.00    -0.271 OA
ATOM      5  N   UNL     1       0.223  -0.277   2.451  0.00  0.00    -0.276 N 
ATOM      6  H   UNL     1      -0.611   0.208   2.548  0.00  0.00    +0.155 HD
BRANCH   5   7
ATOM      7  C   UNL     1       0.894  -0.736   3.574  0.00  0.00    +0.084 A 
ATOM      8  C   UNL     1       0.523  -0.602   4.899  0.00  0.00    +0.068 A 
ATOM      9  C   UNL     1       1.412  -1.182   5.905  0.00  0.00    -0.023 A 
ATOM     10  C   UNL     1       2.501  -1.783   5.394  0.00  0.00    -0.004 A 
ATOM     11  S   UNL     1       2.337  -1.588   3.637  0.00  0.00    -0.077 S 
ATOM     12  C   UNL     1       3.382  -2.358   6.470  0.00  0.00    +0.043 C 
ATOM     13  C   UNL     1       2.915  -1.663   7.768  0.00  0.00    +0.010 C 
ATOM     14  C   UNL     1       1.455  -1.305   7.427  0.00  0.00    +0.037 C 
BRANCH   8  15
ATOM     15  C   UNL     1      -0.710   0.093   5.280  0.00  0.00    +0.244 C 
ATOM     16  O   UNL     1      -1.752  -0.527   5.383  0.00  0.00    -0.270 OA
ATOM     17  N   UNL     1      -0.690   1.420   5.517  0.00  0.00    -0.325 N 
ATOM     18  H   UNL     1       0.141   1.915   5.436  0.00  0.00    +0.145 HD
ATOM     19  H   UNL     1      -1.506   1.880   5.770  0.00  0.00    +0.145 HD
ENDBRANCH   8  15
ENDBRANCH   5   7
ENDBRANCH   2   3
BRANCH   2  20
ATOM     20  O   UNL     1       0.671  -0.465  -1.174  0.00  0.00    -0.449 OA
BRANCH  20  21
ATOM     21  C   UNL     1      -0.088  -0.673  -2.267  0.00  0.00    +0.343 C 
ATOM     22  O   UNL     1      -1.285  -0.469  -2.224  0.00  0.00    -0.245 OA
BRANCH  21  23
ATOM     23  C   UNL     1       0.534  -1.149  -3.517  0.00  0.00    +0.101 A 
ATOM     24  C   UNL     1       1.899  -1.386  -3.560  0.00  0.00    +0.027 A 
ATOM     25  C   UNL     1       2.485  -1.838  -4.751  0.00  0.00    -0.017 A 
ATOM     26  C   UNL     1       3.867  -2.089  -4.830  0.00  0.00    +0.008 A 
ATOM     27  C   UNL     1       4.406  -2.527  -6.000  0.00  0.00    +0.001 A 
ATOM     28  C   UNL     1       3.608  -2.733  -7.125  0.00  0.00    +0.001 A 
ATOM     29  C   UNL     1       2.268  -2.500  -7.086  0.00  0.00    +0.008 A 
ATOM     30  C   UNL     1       1.673  -2.047  -5.896  0.00  0.00    -0.014 A 
ATOM     31  C   UNL     1       0.292  -1.799  -5.827  0.00  0.00    +0.054 A 
ATOM     32  C   UNL     1      -0.265  -1.365  -4.660  0.00  0.00    +0.131 A 
BRANCH  32  33
ATOM     33  O   UNL     1      -1.601  -1.134  -4.599  0.00  0.00    -0.506 OA
ATOM     34  H   UNL     1      -1.855  -0.231  -4.833  0.00  0.00    +0.292 HD
ENDBRANCH  32  33
ENDBRANCH  21  23
ENDBRANCH  20  21
ENDBRANCH   2  20
TORSDOF 7
