REMARK  Name = ZINC08200980
REMARK  9 active torsions:
REMARK  status: ('A' for Active; 'I' for Inactive)
REMARK    1  A    between atoms: C_1  and  C_2
REMARK    2  A    between atoms: C_2  and  C_3
REMARK    3  A    between atoms: C_6  and  O_9
REMARK    4  A    between atoms: O_9  and  C_10
REMARK    5  A    between atoms: C_10  and  C_11
REMARK    6  A    between atoms: N_13  and  C_14
REMARK    7  A    between atoms: C_14  and  N_16
REMARK    8  A    between atoms: N_16  and  C_17
REMARK    9  A    between atoms: C_18  and  C_26
REMARK                            x       y       z     vdW  Elec       q    Type
REMARK                         _______ _______ _______ _____ _____    ______ ____
ROOT
ATOM      1  C   UNL     1       3.078   7.767   0.013  0.00  0.00    +0.141 C 
ATOM      2  S   UNL     1       1.489   8.403   0.031  0.00  0.00    -0.018 S 
ENDROOT
BRANCH   1   5
ATOM      3  C   UNL     1       2.211   5.600   0.010  0.00  0.00    +0.256 C 
ATOM      4  O   UNL     1       1.085   6.050   0.023  0.00  0.00    -0.272 OA
ATOM      5  N   UNL     1       3.270   6.433   0.004  0.00  0.00    -0.265 N 
ATOM      6  H   UNL     1       4.171   6.073  -0.006  0.00  0.00    +0.157 HD
BRANCH   3   7
ATOM      7  C   UNL     1       2.426   4.108   0.001  0.00  0.00    +0.324 C 
BRANCH   7   8
ATOM      8  O   UNL     1       1.160   3.445   0.009  0.00  0.00    -0.483 OA
BRANCH   8  12
ATOM      9  C   UNL     1       1.208  -0.680  -0.013  0.00  0.00    -0.047 A 
ATOM     10  C   UNL     1       0.002  -0.004   0.002  0.00  0.00    +0.007 A 
ATOM     11  C   UNL     1      -0.017   1.377   0.010  0.00  0.00    +0.046 A 
ATOM     12  C   UNL     1       1.176   2.086   0.002  0.00  0.00    +0.121 A 
ATOM     13  C   UNL     1       2.385   1.405  -0.013  0.00  0.00    +0.046 A 
ATOM     14  C   UNL     1       2.398   0.024  -0.021  0.00  0.00    +0.007 A 
BRANCH   9  16
ATOM     15  C   UNL     1       1.217  -2.690  -1.466  0.00  0.00    +0.009 C 
ATOM     16  C   UNL     1       1.226  -2.187  -0.021  0.00  0.00    +0.032 C 
ENDBRANCH   9  16
ENDBRANCH   8  12
ENDBRANCH   7   8
ENDBRANCH   3   7
ENDBRANCH   1   5
BRANCH   1  17
ATOM     17  N   UNL     1       4.137   8.601   0.007  0.00  0.00    -0.291 N 
ATOM     18  H   UNL     1       5.038   8.241  -0.003  0.00  0.00    +0.154 HD
BRANCH  17  19
ATOM     19  C   UNL     1       3.940   9.972   0.016  0.00  0.00    +0.084 A 
ATOM     20  C   UNL     1       4.893  10.981   0.018  0.00  0.00    +0.068 A 
ATOM     21  C   UNL     1       4.418  12.354   0.024  0.00  0.00    -0.023 A 
ATOM     22  C   UNL     1       3.075  12.498   0.038  0.00  0.00    -0.004 A 
ATOM     23  S   UNL     1       2.443  10.844   0.035  0.00  0.00    -0.077 S 
ATOM     24  C   UNL     1       2.304  13.782   0.053  0.00  0.00    +0.043 C 
ATOM     25  C   UNL     1       3.265  14.919   0.429  0.00  0.00    +0.005 C 
ATOM     26  C   UNL     1       4.534  14.793  -0.421  0.00  0.00    +0.005 C 
ATOM     27  C   UNL     1       5.337  13.569   0.022  0.00  0.00    +0.037 C 
BRANCH  20  28
ATOM     28  C   UNL     1       6.326  10.673   0.009  0.00  0.00    +0.244 C 
ATOM     29  O   UNL     1       6.916  10.552  -1.048  0.00  0.00    -0.270 OA
ATOM     30  N   UNL     1       6.990  10.523   1.173  0.00  0.00    -0.325 N 
ATOM     31  H   UNL     1       6.520  10.620   2.015  0.00  0.00    +0.145 HD
ATOM     32  H   UNL     1       7.939  10.319   1.167  0.00  0.00    +0.145 HD
ENDBRANCH  20  28
ENDBRANCH  17  19
ENDBRANCH   1  17
TORSDOF 8
