REMARK  Name = ZINC04470074
REMARK  6 active torsions:
REMARK  status: ('A' for Active; 'I' for Inactive)
REMARK    1  A    between atoms: C_1  and  C_2
REMARK    2  A    between atoms: C_3  and  C_27
REMARK    3  A    between atoms: N_9  and  C_12
REMARK    4  A    between atoms: C_12  and  C_13
REMARK    5  A    between atoms: N_15  and  N_16
REMARK    6  A    between atoms: N_16  and  C_17
REMARK                            x       y       z     vdW  Elec       q    Type
REMARK                         _______ _______ _______ _____ _____    ______ ____
ROOT
ATOM      1  C   UNL     1      -1.363  -0.503   5.477  0.00  0.00    +0.249 C 
ATOM      2  O   UNL     1      -2.287  -0.780   4.743  0.00  0.00    -0.272 OA
ATOM      3  N   UNL     1      -1.604  -0.064   6.728  0.00  0.00    -0.236 N 
ATOM      4  H   UNL     1      -0.864   0.158   7.316  0.00  0.00    +0.173 HD
ENDROOT
BRANCH   3   5
ATOM      5  N   UNL     1      -2.923   0.074   7.180  0.00  0.00    -0.271 N 
ATOM      6  H   UNL     1      -3.662  -0.147   6.593  0.00  0.00    +0.169 HD
BRANCH   5   7
ATOM      7  C   UNL     1      -3.164   0.514   8.432  0.00  0.00    +0.097 C 
ATOM      8  C   UNL     1      -4.466   0.650   8.879  0.00  0.00    +0.017 C 
ATOM      9  C   UNL     1      -5.658   0.370   8.164  0.00  0.00    +0.121 C 
ATOM     10  N   UNL     1      -6.690   0.624   8.923  0.00  0.00    -0.254 NA
ATOM     11  C   UNL     1      -6.329   1.072  10.149  0.00  0.00    +0.072 A 
ATOM     12  C   UNL     1      -4.919   1.113  10.205  0.00  0.00    +0.010 A 
ATOM     13  C   UNL     1      -4.275   1.535  11.361  0.00  0.00    +0.011 A 
ATOM     14  C   UNL     1      -5.020   1.912  12.459  0.00  0.00    +0.001 A 
ATOM     15  C   UNL     1      -6.407   1.871  12.413  0.00  0.00    +0.002 A 
ATOM     16  C   UNL     1      -7.063   1.464  11.274  0.00  0.00    +0.028 A 
ENDBRANCH   5   7
ENDBRANCH   3   5
BRANCH   1  17
ATOM     17  C   UNL     1       0.056  -0.652   4.991  0.00  0.00    +0.223 C 
BRANCH  17  26
ATOM     18  C   UNL     1      -0.018   1.503   0.010  0.00  0.00    +0.045 C 
ATOM     19  C   UNL     1       0.002  -0.004   0.002  0.00  0.00    -0.026 A 
ATOM     20  C   UNL     1       0.006  -0.677  -1.160  0.00  0.00    -0.008 A 
ATOM     21  S   UNL     1       0.032  -2.385  -0.648  0.00  0.00    -0.073 S 
ATOM     22  C   UNL     1       0.037  -2.144   1.110  0.00  0.00    +0.116 A 
ATOM     23  C   UNL     1       0.024  -0.745   1.250  0.00  0.00    +0.075 A 
ATOM     24  C   UNL     1       0.029  -0.257   2.597  0.00  0.00    +0.263 A 
ATOM     25  O   UNL     1       0.014   0.942   2.821  0.00  0.00    -0.267 OA
ATOM     26  N   UNL     1       0.051  -1.142   3.611  0.00  0.00    -0.290 N 
ATOM     27  C   UNL     1       0.068  -2.480   3.380  0.00  0.00    +0.203 A 
ATOM     28  N   UNL     1       0.053  -2.956   2.163  0.00  0.00    -0.230 NA
ATOM     29  C   UNL     1      -0.009  -0.122  -2.561  0.00  0.00    +0.052 C 
ENDBRANCH  17  26
ENDBRANCH   1  17
TORSDOF 4
