REMARK  Name = ZINC20558335
REMARK  4 active torsions:
REMARK  status: ('A' for Active; 'I' for Inactive)
REMARK    1  A    between atoms: C_1  and  N_2
REMARK    2  A    between atoms: C_14  and  C_22
REMARK    3  A    between atoms: C_16  and  C_20
REMARK    4  A    between atoms: C_17  and  N_19
REMARK                            x       y       z     vdW  Elec       q    Type
REMARK                         _______ _______ _______ _____ _____    ______ ____
ROOT
ATOM      1  C   UNL     1      -1.067   1.055  -2.487  0.00  0.00    +0.157 C 
ATOM      2  N   UNL     1      -0.929   1.899  -1.298  0.00  0.00    -0.206 N 
ATOM      3  C   UNL     1      -1.557   3.147  -1.209  0.00  0.00    +0.062 A 
ATOM      4  C   UNL     1      -1.762   3.874  -2.375  0.00  0.00    +0.025 A 
ATOM      5  C   UNL     1      -2.371   5.112  -2.322  0.00  0.00    +0.002 A 
ATOM      6  C   UNL     1      -2.780   5.632  -1.105  0.00  0.00    +0.001 A 
ATOM      7  C   UNL     1      -2.585   4.919   0.057  0.00  0.00    +0.013 A 
ATOM      8  C   UNL     1      -1.972   3.660   0.020  0.00  0.00    +0.042 A 
ATOM      9  C   UNL     1      -1.806   2.934   1.301  0.00  0.00    +0.162 C 
ATOM     10  C   UNL     1      -0.959   1.914   1.423  0.00  0.00    +0.141 C 
ATOM     11  S   UNL     1      -0.017   1.417   0.010  0.00  0.00    +0.075 S 
ATOM     12  O   UNL     1       0.002  -0.004   0.002  0.00  0.00    -0.150 OA
ATOM     13  O   UNL     1       1.167   2.202   0.003  0.00  0.00    -0.150 OA
ATOM     14  C   UNL     1      -0.790   1.176   2.720  0.00  0.00    +0.118 C 
ATOM     15  C   UNL     1      -1.953   1.455   3.633  0.00  0.00    +0.099 C 
ATOM     16  C   UNL     1      -2.763   2.519   3.401  0.00  0.00    +0.199 C 
ATOM     17  O   UNL     1      -2.548   3.345   2.364  0.00  0.00    -0.439 OA
ENDROOT
BRANCH  14  18
ATOM     18  C   UNL     1       0.485   1.624   3.385  0.00  0.00    -0.032 A 
ATOM     19  C   UNL     1       0.651   2.951   3.737  0.00  0.00    +0.007 A 
ATOM     20  C   UNL     1       1.818   3.363   4.352  0.00  0.00    +0.040 A 
ATOM     21  C   UNL     1       2.826   2.449   4.606  0.00  0.00    +0.137 A 
ATOM     22  C   UNL     1       2.662   1.121   4.248  0.00  0.00    +0.053 A 
ATOM     23  C   UNL     1       1.491   0.710   3.638  0.00  0.00    +0.022 A 
ATOM     24 BR   UNL     1       4.037  -0.130   4.594  0.00  0.00    -0.047 Br
ATOM     25  F   UNL     1       3.970   2.852   5.202  0.00  0.00    -0.204 F 
ENDBRANCH  14  18
BRANCH  16  26
ATOM     26  N   UNL     1      -3.820   2.757   4.243  0.00  0.00    -0.328 N 
ATOM     27  H   UNL     1      -4.483   3.616   4.065  0.00  0.00    +0.145 HD
ATOM     28  H   UNL     1      -4.005   2.087   5.096  0.00  0.00    +0.145 HD
ENDBRANCH  16  26
BRANCH  15  29
ATOM     29  C   UNL     1      -2.207   0.595   4.749  0.00  0.00    +0.101 C 
ATOM     30  N   UNL     1      -2.408  -0.087   5.635  0.00  0.00    -0.191 NA
ENDBRANCH  15  29
TORSDOF 3
