REMARK  Name = ZINC39946862
REMARK  5 active torsions:
REMARK  status: ('A' for Active; 'I' for Inactive)
REMARK    1  A    between atoms: C_3  and  O_19
REMARK    2  A    between atoms: C_6  and  C_7
REMARK    3  A    between atoms: C_12  and  C_16
REMARK    4  A    between atoms: O_19  and  C_20
REMARK    5  A    between atoms: C_23  and  C_26
REMARK                            x       y       z     vdW  Elec       q    Type
REMARK                         _______ _______ _______ _____ _____    ______ ____
ROOT
ATOM      1  C   UNL     1      -0.027   1.447  -0.077  0.00  0.00    +0.013 A 
ATOM      2  C   UNL     1       1.169   2.132  -0.074  0.00  0.00    +0.047 A 
ATOM      3  C   UNL     1       2.370   1.436  -0.023  0.00  0.00    +0.128 A 
ATOM      4  C   UNL     1       2.370   0.047   0.025  0.00  0.00    +0.047 A 
ATOM      5  C   UNL     1       1.178  -0.644   0.023  0.00  0.00    +0.013 A 
ATOM      6  C   UNL     1      -0.031   0.052  -0.028  0.00  0.00    +0.001 A 
ENDROOT
BRANCH   6   7
ATOM      7  C   UNL     1      -1.313  -0.687  -0.030  0.00  0.00    +0.072 C 
ATOM      8  C   UNL     1      -1.430  -2.047   0.021  0.00  0.00    +0.038 C 
ATOM      9  C   UNL     1      -2.819  -2.329  -0.002  0.00  0.00    -0.001 C 
ATOM     10  C   UNL     1      -3.580  -3.480   0.024  0.00  0.00    +0.010 C 
ATOM     11  C   UNL     1      -4.985  -3.459  -0.012  0.00  0.00    +0.008 C 
ATOM     12  C   UNL     1      -5.701  -2.316  -0.075  0.00  0.00    -0.004 C 
ATOM     13  C   UNL     1      -4.984  -0.982  -0.109  0.00  0.00    +0.094 C 
ATOM     14  C   UNL     1      -3.474  -1.012  -0.070  0.00  0.00    +0.054 C 
ATOM     15  N   UNL     1      -2.539  -0.111  -0.077  0.00  0.00    -0.251 NA
BRANCH  12  16
ATOM     16  C   UNL     1      -7.175  -2.365  -0.111  0.00  0.00    +0.091 C 
ATOM     17  N   UNL     1      -7.796  -3.002  -1.102  0.00  0.00    -0.387 N 
ATOM     18  N   UNL     1      -7.885  -1.773   0.849  0.00  0.00    -0.345 N 
ATOM     19  H   UNL     1      -7.279  -3.434  -1.800  0.00  0.00    +0.157 HD
ATOM     20  H   UNL     1      -7.433  -1.309   1.571  0.00  0.00    +0.144 HD
ATOM     21  H   UNL     1      -8.854  -1.806   0.825  0.00  0.00    +0.144 HD
ATOM     22  H   UNL     1      -8.765  -3.035  -1.125  0.00  0.00    +0.157 HD
ENDBRANCH  12  16
ENDBRANCH   6   7
BRANCH   3  23
ATOM     23  O   UNL     1       3.547   2.114  -0.021  0.00  0.00    -0.456 OA
BRANCH  23  24
ATOM     24  C   UNL     1       3.845   2.870   1.066  0.00  0.00    +0.128 A 
ATOM     25  C   UNL     1       4.971   3.684   1.056  0.00  0.00    +0.047 A 
ATOM     26  C   UNL     1       5.277   4.452   2.158  0.00  0.00    +0.015 A 
ATOM     27  C   UNL     1       4.453   4.412   3.285  0.00  0.00    +0.012 A 
ATOM     28  C   UNL     1       3.322   3.593   3.291  0.00  0.00    +0.015 A 
ATOM     29  C   UNL     1       3.019   2.832   2.184  0.00  0.00    +0.047 A 
BRANCH  27  30
ATOM     30  C   UNL     1       4.778   5.234   4.469  0.00  0.00    +0.094 C 
ATOM     31  N   UNL     1       3.991   5.195   5.544  0.00  0.00    -0.387 N 
ATOM     32  N   UNL     1       5.858   6.014   4.463  0.00  0.00    -0.345 N 
ATOM     33  H   UNL     1       3.205   4.627   5.549  0.00  0.00    +0.157 HD
ATOM     34  H   UNL     1       6.431   6.043   3.680  0.00  0.00    +0.144 HD
ATOM     35  H   UNL     1       6.071   6.554   5.240  0.00  0.00    +0.144 HD
ATOM     36  H   UNL     1       4.204   5.735   6.321  0.00  0.00    +0.157 HD
ENDBRANCH  27  30
ENDBRANCH  23  24
ENDBRANCH   3  23
TORSDOF 5
