REMARK  Name = ZINC49163867
REMARK  8 active torsions:
REMARK  status: ('A' for Active; 'I' for Inactive)
REMARK    1  A    between atoms: C_1  and  C_2
REMARK    2  A    between atoms: C_5  and  C_19
REMARK    3  A    between atoms: C_6  and  C_8
REMARK    4  A    between atoms: N_10  and  N_11
REMARK    5  A    between atoms: N_14  and  C_15
REMARK    6  A    between atoms: C_15  and  C_16
REMARK    7  A    between atoms: C_16  and  C_17
REMARK    8  A    between atoms: C_16  and  C_18
REMARK                            x       y       z     vdW  Elec       q    Type
REMARK                         _______ _______ _______ _____ _____    ______ ____
ROOT
ATOM      1  C   UNL     1       0.589  -2.757   2.443  0.00  0.00    +0.260 C 
ATOM      2  O   UNL     1       0.711  -3.966   2.451  0.00  0.00    -0.269 OA
ATOM      3  N   UNL     1       0.721  -2.059   3.588  0.00  0.00    -0.229 N 
ATOM      4  H   UNL     1       0.624  -1.094   3.582  0.00  0.00    +0.173 HD
ENDROOT
BRANCH   1  10
ATOM      5  C   UNL     1      -0.013   1.502  -0.086  0.00  0.00    +0.044 C 
ATOM      6  C   UNL     1       0.006  -0.004  -0.044  0.00  0.00    -0.050 A 
ATOM      7  C   UNL     1      -0.252  -0.730  -1.194  0.00  0.00    +0.003 A 
ATOM      8  C   UNL     1      -0.237  -2.113  -1.164  0.00  0.00    +0.004 A 
ATOM      9  C   UNL     1       0.035  -2.778   0.014  0.00  0.00    -0.038 A 
ATOM     10  C   UNL     1       0.297  -2.052   1.177  0.00  0.00    +0.041 A 
ATOM     11  C   UNL     1       0.285  -0.656   1.139  0.00  0.00    +0.016 A 
ATOM     12  C   UNL     1       0.051  -4.284   0.045  0.00  0.00    +0.044 C 
ENDBRANCH   1  10
BRANCH   3  13
ATOM     13  N   UNL     1       0.998  -2.728   4.788  0.00  0.00    -0.218 N 
ATOM     14  C   UNL     1       1.130  -2.030   5.934  0.00  0.00    +0.316 C 
ATOM     15  O   UNL     1       1.371  -2.610   6.975  0.00  0.00    -0.251 OA
ATOM     16  N   UNL     1       0.995  -0.689   5.925  0.00  0.00    -0.298 N 
ATOM     17  H   UNL     1       1.096  -3.693   4.794  0.00  0.00    +0.174 HD
ATOM     18  H   UNL     1       0.803  -0.226   5.095  0.00  0.00    +0.150 HD
BRANCH  16  19
ATOM     19  C   UNL     1       1.138   0.070   7.170  0.00  0.00    +0.108 C 
BRANCH  19  20
ATOM     20  C   UNL     1       0.939   1.560   6.885  0.00  0.00    -0.000 C 
ATOM     21  C   UNL     1       0.965   2.338   8.202  0.00  0.00    +0.009 C 
ATOM     22  C   UNL     1       2.063   2.059   5.976  0.00  0.00    +0.009 C 
ENDBRANCH  19  20
ENDBRANCH  16  19
ENDBRANCH   3  13
TORSDOF 4
