REMARK  Name = ZINC47873471
REMARK  6 active torsions:
REMARK  status: ('A' for Active; 'I' for Inactive)
REMARK    1  A    between atoms: C_1  and  C_2
REMARK    2  A    between atoms: C_2  and  C_3
REMARK    3  A    between atoms: C_9  and  N_11
REMARK    4  A    between atoms: N_11  and  C_12
REMARK    5  A    between atoms: C_13  and  N_22
REMARK    6  A    between atoms: N_14  and  C_21
REMARK                            x       y       z     vdW  Elec       q    Type
REMARK                         _______ _______ _______ _____ _____    ______ ____
ROOT
ATOM      1  C   UNL     1       1.377  -3.645   0.612  0.00  0.00    +0.131 A 
ATOM      2  C   UNL     1       2.020  -3.970   1.776  0.00  0.00    +0.127 A 
ATOM      3  N   UNL     1       1.764  -5.184   2.372  0.00  0.00    -0.284 N 
ATOM      4  C   UNL     1       0.890  -6.043   1.817  0.00  0.00    +0.331 A 
ATOM      5  O   UNL     1       0.675  -7.111   2.358  0.00  0.00    -0.246 OA
ATOM      6  N   UNL     1       0.249  -5.740   0.674  0.00  0.00    -0.273 N 
ATOM      7  H   UNL     1      -0.377  -6.375   0.291  0.00  0.00    +0.173 HD
ATOM      8  C   UNL     1       0.465  -4.561   0.058  0.00  0.00    +0.277 A 
ATOM      9  O   UNL     1      -0.124  -4.292  -0.975  0.00  0.00    -0.266 OA
ATOM     10  C   UNL     1       2.447  -5.542   3.618  0.00  0.00    +0.155 C 
ENDROOT
BRANCH   2  11
ATOM     11  N   UNL     1       2.914  -3.092   2.344  0.00  0.00    -0.343 N 
ATOM     12  H   UNL     1       3.092  -2.238   1.919  0.00  0.00    +0.144 HD
ATOM     13  H   UNL     1       3.367  -3.327   3.169  0.00  0.00    +0.144 HD
ENDBRANCH   2  11
BRANCH   1  14
ATOM     14  N   UNL     1       1.622  -2.405  -0.021  0.00  0.00    -0.334 N 
ATOM     15  H   UNL     1       2.310  -1.812   0.322  0.00  0.00    +0.147 HD
BRANCH  14  21
ATOM     16  C   UNL     1       0.838  -0.489  -1.325  0.00  0.00    +0.009 C 
ATOM     17  C   UNL     1       0.019  -0.082  -2.551  0.00  0.00    +0.005 C 
ATOM     18  C   UNL     1       0.639  -0.699  -3.806  0.00  0.00    +0.000 C 
ATOM     19  C   UNL     1       0.639  -2.224  -3.677  0.00  0.00    +0.002 C 
ATOM     20  C   UNL     1       1.458  -2.632  -2.451  0.00  0.00    +0.022 C 
ATOM     21  C   UNL     1       0.838  -2.014  -1.196  0.00  0.00    +0.074 C 
BRANCH  16  23
ATOM     22  C   UNL     1       0.331   1.653  -0.142  0.00  0.00    +0.004 C 
ATOM     23  C   UNL     1       0.219   0.128  -0.069  0.00  0.00    +0.002 C 
ENDBRANCH  16  23
ENDBRANCH  14  21
ENDBRANCH   1  14
TORSDOF 4
