REMARK  Name = ZINC38089541
REMARK  8 active torsions:
REMARK  status: ('A' for Active; 'I' for Inactive)
REMARK    1  A    between atoms: C_1  and  C_2
REMARK    2  A    between atoms: C_5  and  O_22
REMARK    3  A    between atoms: C_6  and  C_8
REMARK    4  A    between atoms: N_10  and  C_11
REMARK    5  A    between atoms: N_10  and  C_12
REMARK    6  A    between atoms: C_12  and  C_14
REMARK    7  A    between atoms: C_12  and  C_15
REMARK    8  A    between atoms: C_20  and  O_21
REMARK                            x       y       z     vdW  Elec       q    Type
REMARK                         _______ _______ _______ _____ _____    ______ ____
ROOT
ATOM      1  C   UNL     1      -0.087  -2.723   2.533  0.00  0.00    +0.250 C 
ATOM      2  O   UNL     1      -0.143  -3.937   2.499  0.00  0.00    -0.270 OA
ATOM      3  N   UNL     1       0.122  -2.090   3.704  0.00  0.00    -0.294 N 
ATOM      4  C   UNL     1       0.070  -0.627   3.767  0.00  0.00    +0.133 C 
ENDROOT
BRANCH   1  10
ATOM      5  C   UNL     1      -2.119   1.121   0.089  0.00  0.00    +0.044 C 
ATOM      6  C   UNL     1      -1.224  -0.092   0.109  0.00  0.00    -0.050 A 
ATOM      7  C   UNL     1      -0.553  -0.473  -1.042  0.00  0.00    +0.007 A 
ATOM      8  C   UNL     1       0.269  -1.582  -1.036  0.00  0.00    +0.046 A 
ATOM      9  C   UNL     1       0.428  -2.324   0.125  0.00  0.00    +0.129 A 
ATOM     10  C   UNL     1      -0.249  -1.942   1.291  0.00  0.00    +0.078 A 
ATOM     11  C   UNL     1      -1.074  -0.814   1.273  0.00  0.00    +0.020 A 
BRANCH   9  12
ATOM     12  O   UNL     1       1.235  -3.414   0.132  0.00  0.00    -0.506 OA
ATOM     13  H   UNL     1       2.154  -3.222   0.365  0.00  0.00    +0.292 HD
ENDBRANCH   9  12
ENDBRANCH   1  10
BRANCH   3  14
ATOM     14  C   UNL     1       0.403  -2.865   4.915  0.00  0.00    +0.107 C 
ATOM     15  C   UNL     1      -0.618  -2.508   5.997  0.00  0.00    +0.033 C 
BRANCH  14  16
ATOM     16  C   UNL     1       1.790  -2.543   5.408  0.00  0.00    +0.014 A 
ATOM     17  C   UNL     1       1.960  -1.741   6.519  0.00  0.00    +0.009 A 
ATOM     18  C   UNL     1       3.233  -1.445   6.971  0.00  0.00    +0.001 A 
ATOM     19  C   UNL     1       4.338  -1.951   6.313  0.00  0.00    +0.004 A 
ATOM     20  C   UNL     1       4.174  -2.754   5.201  0.00  0.00    +0.046 A 
ATOM     21  C   UNL     1       2.897  -3.057   4.748  0.00  0.00    +0.122 A 
BRANCH  21  22
ATOM     22  O   UNL     1       2.732  -3.851   3.658  0.00  0.00    -0.506 OA
ATOM     23  H   UNL     1       2.704  -3.369   2.821  0.00  0.00    +0.292 HD
ENDBRANCH  21  22
ENDBRANCH  14  16
ENDBRANCH   3  14
TORSDOF 5
