REMARK  Name = ZINC24979800
REMARK  7 active torsions:
REMARK  status: ('A' for Active; 'I' for Inactive)
REMARK    1  A    between atoms: C_1  and  C_2
REMARK    2  A    between atoms: C_2  and  C_4
REMARK    3  A    between atoms: C_2  and  S_14
REMARK    4  A    between atoms: N_10  and  C_11
REMARK    5  A    between atoms: N_10  and  C_12
REMARK    6  A    between atoms: S_14  and  C_15
REMARK    7  A    between atoms: C_18  and  C_21
REMARK                            x       y       z     vdW  Elec       q    Type
REMARK                         _______ _______ _______ _____ _____    ______ ____
ROOT
ATOM      1  C   UNL     1       0.812  -6.881   1.262  0.00  0.00    +0.028 C 
ATOM      2  C   UNL     1       1.590  -6.960  -0.052  0.00  0.00    +0.119 C 
ENDROOT
BRANCH   2   3
ATOM      3  C   UNL     1       2.209  -8.327  -0.189  0.00  0.00    +0.149 A 
ATOM      4  N   UNL     1       3.275  -8.643   0.525  0.00  0.00    -0.198 NA
ATOM      5  C   UNL     1       3.821  -9.851   0.410  0.00  0.00    +0.217 A 
ATOM      6  N   UNL     1       3.299 -10.737  -0.431  0.00  0.00    -0.181 NA
ATOM      7  C   UNL     1       2.230 -10.414  -1.151  0.00  0.00    +0.222 A 
ATOM      8  N   UNL     1       1.687  -9.206  -1.027  0.00  0.00    -0.198 NA
ATOM      9  N   UNL     1       1.684 -11.331  -2.026  0.00  0.00    -0.306 N 
ATOM     10  C   UNL     1       0.505 -10.975  -2.818  0.00  0.00    +0.132 C 
ATOM     11  C   UNL     1       2.283 -12.661  -2.161  0.00  0.00    +0.132 C 
ATOM     12  N   UNL     1       4.931 -10.181   1.161  0.00  0.00    -0.327 N 
ATOM     13  H   UNL     1       5.382 -11.180   1.065  0.00  0.00    +0.145 HD
ATOM     14  H   UNL     1       5.366  -9.446   1.854  0.00  0.00    +0.145 HD
ENDBRANCH   2   3
BRANCH   2  15
ATOM     15  S   UNL     1       2.895  -5.705  -0.057  0.00  0.00    -0.076 S 
BRANCH  15  16
ATOM     16  C   UNL     1       1.912  -4.242  -0.040  0.00  0.00    +0.185 A 
ATOM     17  N   UNL     1       2.373  -2.957  -0.037  0.00  0.00    -0.201 NA
ATOM     18  H   UNL     1      -0.143  -4.998  -0.030  0.00  0.00    +0.191 HD
ATOM     19  C   UNL     1       1.251  -2.160  -0.022  0.00  0.00    +0.183 A 
ATOM     20  N   UNL     1       0.210  -2.960  -0.012  0.00  0.00    -0.152 NA
ATOM     21  N   UNL     1       0.599  -4.185  -0.028  0.00  0.00    -0.253 N 
BRANCH  19  22
ATOM     22  C   UNL     1       1.223  -0.682  -0.018  0.00  0.00    +0.035 A 
ATOM     23  C   UNL     1       2.416   0.042  -0.025  0.00  0.00    +0.013 A 
ATOM     24  C   UNL     1       2.383   1.421  -0.021  0.00  0.00    +0.001 A 
ATOM     25  C   UNL     1       1.170   2.087  -0.010  0.00  0.00    +0.001 A 
ATOM     26  C   UNL     1      -0.017   1.377  -0.003  0.00  0.00    +0.016 A 
ATOM     27  C   UNL     1       0.002  -0.004  -0.007  0.00  0.00    +0.029 A 
ATOM     28 BR   UNL     1      -1.621  -0.974   0.002  0.00  0.00    -0.050 Br
ENDBRANCH  19  22
ENDBRANCH  15  16
ENDBRANCH   2  15
TORSDOF 4
