REMARK  Name = ZINC09218315
REMARK  13 active torsions:
REMARK  status: ('A' for Active; 'I' for Inactive)
REMARK    1  A    between atoms: C_1  and  C_2
REMARK    2  A    between atoms: C_5  and  C_34
REMARK    3  A    between atoms: C_6  and  N_8
REMARK    4  A    between atoms: N_8  and  C_9
REMARK    5  A    between atoms: C_9  and  C_10
REMARK    6  A    between atoms: N_12  and  C_13
REMARK    7  A    between atoms: N_12  and  C_17
REMARK    8  A    between atoms: C_13  and  C_14
REMARK    9  A    between atoms: C_14  and  C_15
REMARK   10  A    between atoms: C_14  and  C_16
REMARK   11  A    between atoms: C_18  and  N_33
REMARK   12  A    between atoms: N_19  and  C_26
REMARK   13  A    between atoms: C_26  and  C_27
REMARK                            x       y       z     vdW  Elec       q    Type
REMARK                         _______ _______ _______ _____ _____    ______ ____
ROOT
ATOM      1  C   UNL     1      -1.827   3.720   2.422  0.00  0.00    +0.140 A 
ATOM      2  C   UNL     1      -1.486   4.842   3.149  0.00  0.00    +0.128 A 
ATOM      3  N   UNL     1      -2.271   5.217   4.215  0.00  0.00    -0.276 N 
ATOM      4  C   UNL     1      -3.354   4.492   4.550  0.00  0.00    +0.331 A 
ATOM      5  O   UNL     1      -4.033   4.837   5.498  0.00  0.00    -0.246 OA
ATOM      6  N   UNL     1      -3.700   3.394   3.855  0.00  0.00    -0.273 N 
ATOM      7  H   UNL     1      -4.510   2.873   4.125  0.00  0.00    +0.173 HD
ATOM      8  C   UNL     1      -2.967   2.987   2.800  0.00  0.00    +0.277 A 
ATOM      9  O   UNL     1      -3.290   1.989   2.177  0.00  0.00    -0.266 OA
ENDROOT
BRANCH   1  12
ATOM     10  C   UNL     1      -0.370   2.145   1.368  0.00  0.00    +0.237 C 
ATOM     11  O   UNL     1       0.367   1.833   0.457  0.00  0.00    -0.274 OA
ATOM     12  N   UNL     1      -1.044   3.313   1.321  0.00  0.00    -0.263 N 
BRANCH  10  13
ATOM     13  C   UNL     1      -0.534   1.228   2.553  0.00  0.00    +0.198 C 
BRANCH  13  14
ATOM     14  N   UNL     1       0.247   0.007   2.337  0.00  0.00    -0.335 N 
ATOM     15  H   UNL     1       0.761  -0.102   1.522  0.00  0.00    +0.147 HD
BRANCH  14  21
ATOM     16  C   UNL     1      -1.272  -1.673   6.698  0.00  0.00    +0.044 C 
ATOM     17  C   UNL     1      -0.475  -1.841   5.430  0.00  0.00    -0.049 A 
ATOM     18  C   UNL     1       0.263  -2.992   5.225  0.00  0.00    +0.004 A 
ATOM     19  C   UNL     1       0.995  -3.150   4.063  0.00  0.00    +0.005 A 
ATOM     20  C   UNL     1       0.992  -2.156   3.103  0.00  0.00    -0.030 A 
ATOM     21  C   UNL     1       0.252  -0.999   3.305  0.00  0.00    +0.031 A 
ATOM     22  C   UNL     1      -0.479  -0.842   4.476  0.00  0.00    +0.026 A 
ATOM     23  C   UNL     1       1.791  -2.329   1.836  0.00  0.00    +0.045 C 
ENDBRANCH  14  21
ENDBRANCH  13  14
ENDBRANCH  10  13
BRANCH  12  24
ATOM     24  C   UNL     1      -0.963   4.158   0.127  0.00  0.00    +0.117 C 
BRANCH  24  25
ATOM     25  C   UNL     1      -2.155   3.865  -0.787  0.00  0.00    +0.001 C 
ATOM     26  C   UNL     1      -2.130   4.824  -1.979  0.00  0.00    +0.009 C 
ATOM     27  C   UNL     1      -2.069   2.423  -1.290  0.00  0.00    +0.009 C 
ENDBRANCH  24  25
ENDBRANCH  12  24
ENDBRANCH   1  12
BRANCH   2  28
ATOM     28  N   UNL     1      -0.376   5.579   2.811  0.00  0.00    -0.343 N 
ATOM     29  H   UNL     1       0.146   5.338   2.030  0.00  0.00    +0.144 HD
ATOM     30  H   UNL     1      -0.115   6.339   3.353  0.00  0.00    +0.144 HD
ENDBRANCH   2  28
BRANCH   3  31
ATOM     31  C   UNL     1      -1.923   6.408   4.993  0.00  0.00    +0.163 C 
BRANCH  31  32
ATOM     32  C   UNL     1      -1.004   6.019   6.122  0.00  0.00    -0.028 A 
ATOM     33  C   UNL     1      -1.529   5.661   7.349  0.00  0.00    +0.005 A 
ATOM     34  C   UNL     1      -0.686   5.299   8.384  0.00  0.00    +0.000 A 
ATOM     35  C   UNL     1       0.683   5.306   8.194  0.00  0.00    +0.000 A 
ATOM     36  C   UNL     1       1.209   5.669   6.968  0.00  0.00    +0.000 A 
ATOM     37  C   UNL     1       0.366   6.026   5.932  0.00  0.00    +0.005 A 
ENDBRANCH  31  32
ENDBRANCH   3  31
TORSDOF 9
