REMARK  Name = ZINC14332902
REMARK  9 active torsions:
REMARK  status: ('A' for Active; 'I' for Inactive)
REMARK    1  A    between atoms: C_1  and  C_2
REMARK    2  A    between atoms: C_3  and  C_16
REMARK    3  A    between atoms: C_16  and  C_17
REMARK    4  A    between atoms: C_17  and  C_18
REMARK    5  A    between atoms: N_20  and  N_21
REMARK    6  A    between atoms: N_21  and  C_22
REMARK    7  A    between atoms: C_22  and  N_24
REMARK    8  A    between atoms: N_24  and  C_25
REMARK    9  A    between atoms: C_25  and  C_26
REMARK                            x       y       z     vdW  Elec       q    Type
REMARK                         _______ _______ _______ _____ _____    ______ ____
ROOT
ATOM      1  C   UNL     1       8.129   3.364  -0.039  0.00  0.00    +0.102 C 
ENDROOT
BRANCH   1   2
ATOM      2  C   UNL     1       7.147   4.376  -0.571  0.00  0.00    +0.229 C 
ATOM      3  O   UNL     1       7.544   5.439  -0.999  0.00  0.00    -0.274 OA
ATOM      4  N   UNL     1       5.828   4.100  -0.571  0.00  0.00    -0.235 N 
ATOM      5  H   UNL     1       5.511   3.250  -0.229  0.00  0.00    +0.173 HD
BRANCH   4   6
ATOM      6  N   UNL     1       4.916   5.041  -1.066  0.00  0.00    -0.246 N 
ATOM      7  H   UNL     1       5.233   5.891  -1.408  0.00  0.00    +0.172 HD
BRANCH   6   8
ATOM      8  C   UNL     1       3.596   4.764  -1.066  0.00  0.00    +0.147 C 
ATOM      9  S   UNL     1       2.481   5.914  -1.670  0.00  0.00    -0.017 S 
BRANCH   8  10
ATOM     10  N   UNL     1       3.155   3.583  -0.590  0.00  0.00    -0.323 N 
ATOM     11  H   UNL     1       3.787   2.932  -0.247  0.00  0.00    +0.148 HD
BRANCH  10  12
ATOM     12  C   UNL     1       1.721   3.283  -0.590  0.00  0.00    +0.134 C 
BRANCH  12  13
ATOM     13  C   UNL     1       1.492   1.889  -0.002  0.00  0.00    +0.135 C 
ATOM     14  C   UNL     1      -0.019   1.544   0.011  0.00  0.00    +0.035 C 
ATOM     15  C   UNL     1       0.002  -0.004   0.002  0.00  0.00    +0.031 C 
ATOM     16  C   UNL     1       1.398  -0.360  -0.546  0.00  0.00    +0.160 C 
ATOM     17  O   UNL     1       2.062   0.876  -0.858  0.00  0.00    -0.375 OA
ENDBRANCH  12  13
ENDBRANCH  10  12
ENDBRANCH   8  10
ENDBRANCH   6   8
ENDBRANCH   4   6
ENDBRANCH   1   2
BRANCH   1  18
ATOM     18  C   UNL     1       9.549   3.922  -0.153  0.00  0.00    +0.051 C 
BRANCH  18  21
ATOM     19  C   UNL     1      10.869   2.089  -1.944  0.00  0.00    +0.066 C 
ATOM     20  C   UNL     1      11.158   2.041  -0.466  0.00  0.00    +0.050 A 
ATOM     21  C   UNL     1      10.531   2.910   0.379  0.00  0.00    +0.038 A 
ATOM     22  C   UNL     1      10.820   2.849   1.754  0.00  0.00    +0.256 A 
ATOM     23  O   UNL     1      10.282   3.615   2.537  0.00  0.00    -0.267 OA
ATOM     24  N   UNL     1      11.701   1.924   2.191  0.00  0.00    -0.295 N 
ATOM     25  H   UNL     1      11.912   1.862   3.136  0.00  0.00    +0.172 HD
ATOM     26  C   UNL     1      12.296   1.084   1.302  0.00  0.00    +0.199 A 
ATOM     27  N   UNL     1      12.023   1.151   0.014  0.00  0.00    -0.221 NA
ATOM     28  N   UNL     1      13.193   0.153   1.752  0.00  0.00    -0.297 N 
ATOM     29  C   UNL     1      14.222   0.777   2.595  0.00  0.00    +0.136 C 
ATOM     30  C   UNL     1      15.166  -0.305   3.125  0.00  0.00    +0.179 C 
ATOM     31  O   UNL     1      15.730  -1.020   2.022  0.00  0.00    -0.377 OA
ATOM     32  C   UNL     1      14.756  -1.641   1.180  0.00  0.00    +0.179 C 
ATOM     33  C   UNL     1      13.807  -0.572   0.631  0.00  0.00    +0.136 C 
ENDBRANCH  18  21
ENDBRANCH   1  18
TORSDOF 8
