REMARK  Name = ZINC65381351
REMARK  5 active torsions:
REMARK  status: ('A' for Active; 'I' for Inactive)
REMARK    1  A    between atoms: C_1  and  N_2
REMARK    2  A    between atoms: C_3  and  C_5
REMARK    3  A    between atoms: C_15  and  C_17
REMARK    4  A    between atoms: C_20  and  C_22
REMARK    5  A    between atoms: C_22  and  N_23
REMARK                            x       y       z     vdW  Elec       q    Type
REMARK                         _______ _______ _______ _____ _____    ______ ____
ROOT
ATOM      1  C   UNL     1       0.605  -2.142  -1.026  0.00  0.00    +0.152 A 
ATOM      2  C   UNL     1       1.177  -2.952  -2.013  0.00  0.00    +0.033 A 
ATOM      3  C   UNL     1       0.991  -4.255  -1.647  0.00  0.00    +0.125 A 
ATOM      4  N   UNL     1       0.316  -4.265  -0.480  0.00  0.00    -0.263 N 
ATOM      5  H   UNL     1       0.040  -5.054   0.013  0.00  0.00    +0.190 HD
ATOM      6  N   UNL     1       0.090  -2.932  -0.099  0.00  0.00    -0.167 NA
ATOM      7  N   UNL     1       1.470  -5.313  -2.421  0.00  0.00    -0.270 N 
ATOM      8  C   UNL     1       2.303  -5.027  -3.444  0.00  0.00    +0.219 C 
ATOM      9  O   UNL     1       2.581  -5.901  -4.237  0.00  0.00    -0.275 OA
ATOM     10  C   UNL     1       2.898  -3.660  -3.630  0.00  0.00    +0.109 C 
ATOM     11  C   UNL     1       1.884  -2.563  -3.286  0.00  0.00    +0.070 C 
ATOM     12  H   UNL     1       1.213  -6.229  -2.228  0.00  0.00    +0.156 HD
ENDROOT
BRANCH   1  15
ATOM     13  C   UNL     1      -0.018   1.461   0.010  0.00  0.00    +0.128 C 
ATOM     14  N   UNL     1       0.002  -0.004   0.002  0.00  0.00    -0.313 N 
ATOM     15  C   UNL     1       0.585  -0.664  -1.018  0.00  0.00    +0.264 C 
ATOM     16  O   UNL     1       1.095  -0.045  -1.931  0.00  0.00    -0.268 OA
ATOM     17  H   UNL     1      -0.404  -0.499   0.731  0.00  0.00    +0.149 HD
ENDBRANCH   1  15
BRANCH  11  18
ATOM     18  C   UNL     1       0.882  -2.429  -4.403  0.00  0.00    -0.002 A 
ATOM     19  C   UNL     1       0.592  -1.346  -5.165  0.00  0.00    +0.012 A 
ATOM     20  C   UNL     1      -0.376  -1.456  -6.145  0.00  0.00    +0.009 A 
ATOM     21  C   UNL     1      -1.008  -2.643  -6.315  0.00  0.00    -0.026 A 
ATOM     22  S   UNL     1      -0.228  -3.658  -5.071  0.00  0.00    -0.099 S 
BRANCH  21  23
ATOM     23  C   UNL     1      -2.086  -3.012  -7.301  0.00  0.00    -0.036 C 
BRANCH  23  24
ATOM     24  N   UNL     1      -1.469  -3.516  -8.536  0.00  0.00    +0.383 N 
ATOM     25  C   UNL     1      -0.751  -4.764  -8.247  0.00  0.00    -0.078 C 
ATOM     26  C   UNL     1      -0.039  -5.250  -9.511  0.00  0.00    -0.019 C 
ATOM     27  C   UNL     1      -1.075  -5.498 -10.611  0.00  0.00    -0.004 C 
ATOM     28  C   UNL     1      -1.868  -4.210 -10.851  0.00  0.00    -0.019 C 
ATOM     29  C   UNL     1      -2.513  -3.762  -9.538  0.00  0.00    -0.078 C 
ATOM     30  H   UNL     1      -0.819  -2.830  -8.890  0.00  0.00    -0.081 HD
ENDBRANCH  23  24
ENDBRANCH  21  23
ENDBRANCH  11  18
TORSDOF 4
