REMARK  Name = ZINC57992082
REMARK  4 active torsions:
REMARK  status: ('A' for Active; 'I' for Inactive)
REMARK    1  A    between atoms: C_1  and  C_2
REMARK    2  A    between atoms: C_2  and  C_3
REMARK    3  A    between atoms: C_3  and  N_4
REMARK    4  A    between atoms: C_5  and  C_7
REMARK                            x       y       z     vdW  Elec       q    Type
REMARK                         _______ _______ _______ _____ _____    ______ ____
ROOT
ATOM      1  C   UNL     1      -2.551  -4.195   0.004  0.00  0.00    +0.110 C 
ATOM      2  C   UNL     1      -1.781  -4.741   1.237  0.00  0.00    +0.034 C 
ATOM      3  C   UNL     1      -2.433  -6.132   1.424  0.00  0.00    +0.059 C 
ATOM      4  C   UNL     1      -2.346  -6.539   2.903  0.00  0.00    +0.020 C 
ATOM      5  C   UNL     1      -3.809  -6.581   3.400  0.00  0.00    +0.017 C 
ATOM      6  C   UNL     1      -4.538  -5.648   2.404  0.00  0.00    +0.086 C 
ATOM      7  N   UNL     1      -3.868  -5.929   1.089  0.00  0.00    -0.282 NA
ATOM      8  C   UNL     1      -3.966  -4.760   0.202  0.00  0.00    +0.137 C 
ATOM      9  C   UNL     1      -4.883  -3.712   0.776  0.00  0.00    +0.004 A 
ATOM     10  C   UNL     1      -4.870  -2.985   1.945  0.00  0.00    +0.008 A 
ATOM     11  C   UNL     1      -5.875  -2.070   2.201  0.00  0.00    +0.000 A 
ATOM     12  C   UNL     1      -6.891  -1.888   1.280  0.00  0.00    +0.002 A 
ATOM     13  C   UNL     1      -6.908  -2.615   0.108  0.00  0.00    +0.023 A 
ATOM     14  C   UNL     1      -5.899  -3.538  -0.158  0.00  0.00    +0.039 A 
ATOM     15  N   UNL     1      -5.696  -4.379  -1.254  0.00  0.00    -0.283 N 
ATOM     16  C   UNL     1      -4.585  -5.126  -1.123  0.00  0.00    +0.243 C 
ATOM     17  O   UNL     1      -4.162  -5.939  -1.918  0.00  0.00    -0.273 OA
ATOM     18  H   UNL     1      -6.288  -4.419  -2.022  0.00  0.00    +0.155 HD
ENDROOT
BRANCH   1  20
ATOM     19  N   UNL     1      -2.886  -2.012  -1.111  0.00  0.00    -0.315 N 
ATOM     20  C   UNL     1      -2.571  -2.688   0.012  0.00  0.00    +0.219 C 
ATOM     21  O   UNL     1      -2.304  -2.084   1.029  0.00  0.00    -0.275 OA
ATOM     22  H   UNL     1      -3.100  -2.496  -1.924  0.00  0.00    +0.149 HD
BRANCH  19  23
ATOM     23  C   UNL     1      -2.906  -0.547  -1.103  0.00  0.00    +0.104 C 
BRANCH  23  25
ATOM     24  C   UNL     1      -3.312   1.495  -2.483  0.00  0.00    +0.005 C 
ATOM     25  C   UNL     1      -3.291  -0.035  -2.492  0.00  0.00    +0.015 C 
ENDBRANCH  23  25
ENDBRANCH  19  23
ENDBRANCH   1  20
TORSDOF 3
