REMARK  Name = ZINC31168775
REMARK  16 active torsions:
REMARK  status: ('A' for Active; 'I' for Inactive)
REMARK    1  A    between atoms: C_1  and  C_2
REMARK    2  A    between atoms: C_2  and  C_4
REMARK    3  A    between atoms: C_2  and  O_20
REMARK    4  A    between atoms: C_4  and  C_5
REMARK    5  A    between atoms: C_5  and  C_7
REMARK    6  A    between atoms: C_5  and  O_8
REMARK    7  A    between atoms: O_8  and  C_9
REMARK    8  A    between atoms: C_9  and  C_11
REMARK    9  A    between atoms: C_12  and  C_13
REMARK   10  A    between atoms: C_16  and  O_19
REMARK   11  A    between atoms: O_20  and  C_21
REMARK   12  A    between atoms: C_23  and  O_36
REMARK   13  A    between atoms: C_25  and  O_35
REMARK   14  A    between atoms: C_27  and  O_34
REMARK   15  A    between atoms: C_29  and  C_32
REMARK   16  A    between atoms: C_32  and  O_33
REMARK                            x       y       z     vdW  Elec       q    Type
REMARK                         _______ _______ _______ _____ _____    ______ ____
ROOT
ATOM      1  C   UNL     1      -0.019   1.526   0.010  0.00  0.00    +0.038 C 
ATOM      2  C   UNL     1       0.002  -0.004   0.002  0.00  0.00    +0.122 C 
ENDROOT
BRANCH   2   3
ATOM      3  C   UNL     1       0.718  -0.497  -1.257  0.00  0.00    +0.075 C 
BRANCH   3   4
ATOM      4  C   UNL     1       0.630  -2.023  -1.329  0.00  0.00    +0.176 C 
ATOM      5  C   UNL     1       1.451  -2.526  -2.518  0.00  0.00    +0.052 C 
BRANCH   4   6
ATOM      6  O   UNL     1      -0.734  -2.415  -1.492  0.00  0.00    -0.458 OA
BRANCH   6   7
ATOM      7  C   UNL     1      -1.096  -3.607  -0.975  0.00  0.00    +0.332 C 
ATOM      8  O   UNL     1      -0.273  -4.295  -0.400  0.00  0.00    -0.246 OA
BRANCH   7   9
ATOM      9  C   UNL     1      -2.434  -4.058  -1.100  0.00  0.00    +0.092 C 
ATOM     10  C   UNL     1      -2.796  -5.252  -0.582  0.00  0.00    +0.015 C 
BRANCH  10  11
ATOM     11  C   UNL     1      -4.183  -5.720  -0.713  0.00  0.00    -0.025 A 
ATOM     12  C   UNL     1      -5.130  -4.932  -1.378  0.00  0.00    +0.011 A 
ATOM     13  C   UNL     1      -6.428  -5.375  -1.497  0.00  0.00    +0.046 A 
ATOM     14  C   UNL     1      -6.799  -6.601  -0.958  0.00  0.00    +0.117 A 
ATOM     15  C   UNL     1      -5.863  -7.387  -0.296  0.00  0.00    +0.046 A 
ATOM     16  C   UNL     1      -4.561  -6.957  -0.177  0.00  0.00    +0.011 A 
BRANCH  14  17
ATOM     17  O   UNL     1      -8.081  -7.033  -1.078  0.00  0.00    -0.507 OA
ATOM     18  H   UNL     1      -8.247  -7.555  -1.875  0.00  0.00    +0.292 HD
ENDBRANCH  14  17
ENDBRANCH  10  11
ENDBRANCH   7   9
ENDBRANCH   6   7
ENDBRANCH   4   6
ENDBRANCH   3   4
ENDBRANCH   2   3
BRANCH   2  19
ATOM     19  O   UNL     1       0.693  -0.477   1.160  0.00  0.00    -0.346 OA
BRANCH  19  20
ATOM     20  C   UNL     1      -0.150  -0.689   2.294  0.00  0.00    +0.282 C 
ATOM     21  C   UNL     1       0.668  -1.309   3.430  0.00  0.00    +0.201 C 
ATOM     22  C   UNL     1      -0.227  -1.477   4.661  0.00  0.00    +0.179 C 
ATOM     23  C   UNL     1      -0.812  -0.114   5.043  0.00  0.00    +0.177 C 
ATOM     24  C   UNL     1      -1.573   0.460   3.845  0.00  0.00    +0.178 C 
ATOM     25  O   UNL     1      -0.690   0.562   2.726  0.00  0.00    -0.341 OA
BRANCH  23  26
ATOM     26  O   UNL     1      -1.705  -0.270   6.147  0.00  0.00    -0.386 OA
ATOM     27  H   UNL     1      -1.290  -0.634   6.941  0.00  0.00    +0.210 HD
ENDBRANCH  23  26
BRANCH  22  28
ATOM     28  O   UNL     1       0.546  -1.989   5.748  0.00  0.00    -0.386 OA
ATOM     29  H   UNL     1       0.951  -2.849   5.572  0.00  0.00    +0.210 HD
ENDBRANCH  22  28
BRANCH  21  30
ATOM     30  O   UNL     1       1.163  -2.586   3.020  0.00  0.00    -0.384 OA
ATOM     31  H   UNL     1       1.735  -2.554   2.241  0.00  0.00    +0.210 HD
ENDBRANCH  21  30
BRANCH  24  32
ATOM     32  C   UNL     1      -2.109   1.849   4.199  0.00  0.00    +0.190 C 
BRANCH  32  33
ATOM     33  O   UNL     1      -2.917   2.336   3.126  0.00  0.00    -0.392 OA
ATOM     34  H   UNL     1      -3.291   3.213   3.281  0.00  0.00    +0.210 HD
ENDBRANCH  32  33
ENDBRANCH  24  32
ENDBRANCH  19  20
ENDBRANCH   2  19
TORSDOF 14
