REMARK  Name = ZINC39464499
REMARK  5 active torsions:
REMARK  status: ('A' for Active; 'I' for Inactive)
REMARK    1  A    between atoms: C_1  and  C_2
REMARK    2  A    between atoms: C_2  and  O_3
REMARK    3  A    between atoms: O_3  and  C_4
REMARK    4  A    between atoms: P_15  and  C_21
REMARK    5  A    between atoms: C_26  and  O_27
REMARK                            x       y       z     vdW  Elec       q    Type
REMARK                         _______ _______ _______ _____ _____    ______ ____
ROOT
ATOM      1  C   UNL     1       0.802  -1.825   1.306  0.00  0.00    +0.156 A 
ATOM      2  C   UNL     1       0.262  -2.674   0.354  0.00  0.00    +0.052 A 
ATOM      3  C   UNL     1       0.371  -4.048   0.500  0.00  0.00    -0.038 A 
ATOM      4  C   UNL     1       1.020  -4.576   1.596  0.00  0.00    -0.021 A 
ATOM      5  C   UNL     1       1.563  -3.727   2.550  0.00  0.00    +0.047 A 
ATOM      6  C   UNL     1       1.461  -2.357   2.407  0.00  0.00    +0.165 A 
ATOM      7  F   UNL     1       1.996  -1.537   3.337  0.00  0.00    -0.202 F 
ATOM      8  C   UNL     1       1.164  -6.061   1.801  0.00  0.00    +0.129 C 
ATOM      9  C   UNL     1       2.584  -6.363   2.288  0.00  0.00    +0.194 C 
ATOM     10  O   UNL     1       2.678  -7.768   2.594  0.00  0.00    -0.311 OA
ATOM     11  P   UNL     1       2.159  -8.836   1.483  0.00  0.00    +0.318 P 
ATOM     12  O   UNL     1       3.200  -9.048   0.452  0.00  0.00    -0.266 OA
ATOM     13  N   UNL     1       0.815  -8.154   0.804  0.00  0.00    -0.175 NA
ATOM     14  N   UNL     1       0.882  -6.796   0.568  0.00  0.00    -0.225 NA
ATOM     15  C   UNL     1      -0.384  -6.348  -0.033  0.00  0.00    +0.108 C 
ATOM     16  C   UNL     1      -0.230  -4.934  -0.561  0.00  0.00    +0.052 C 
ATOM     17  H   UNL     1       0.033  -8.682   0.581  0.00  0.00    +0.151 HD
ENDROOT
BRANCH  11  18
ATOM     18  C   UNL     1       1.735 -10.411   2.276  0.00  0.00    +0.094 A 
ATOM     19  C   UNL     1       0.449 -10.631   2.731  0.00  0.00    +0.018 A 
ATOM     20  C   UNL     1       0.125 -11.831   3.337  0.00  0.00    +0.001 A 
ATOM     21  C   UNL     1       1.086 -12.814   3.488  0.00  0.00    +0.004 A 
ATOM     22  C   UNL     1       2.373 -12.598   3.035  0.00  0.00    +0.046 A 
ATOM     23  C   UNL     1       2.700 -11.397   2.422  0.00  0.00    +0.131 A 
BRANCH  23  24
ATOM     24  O   UNL     1       3.963 -11.185   1.970  0.00  0.00    -0.506 OA
ATOM     25  H   UNL     1       4.554 -10.787   2.625  0.00  0.00    +0.292 HD
ENDBRANCH  23  24
ENDBRANCH  11  18
BRANCH   1  26
ATOM     26  O   UNL     1       0.693  -0.477   1.160  0.00  0.00    -0.489 OA
BRANCH  26  28
ATOM     27  C   UNL     1      -0.019   1.526   0.010  0.00  0.00    +0.048 C 
ATOM     28  C   UNL     1       0.002  -0.004   0.002  0.00  0.00    +0.226 C 
ENDBRANCH  26  28
ENDBRANCH   1  26
TORSDOF 4
