REMARK  Name = ZINC10903933
REMARK  13 active torsions:
REMARK  status: ('A' for Active; 'I' for Inactive)
REMARK    1  A    between atoms: C_1  and  C_2
REMARK    2  A    between atoms: C_4  and  C_31
REMARK    3  A    between atoms: C_6  and  N_13
REMARK    4  A    between atoms: C_14  and  C_16
REMARK    5  A    between atoms: C_16  and  N_59
REMARK    6  A    between atoms: C_17  and  C_19
REMARK    7  A    between atoms: C_17  and  C_28
REMARK    8  A    between atoms: C_17  and  N_59
REMARK    9  A    between atoms: C_22  and  C_25
REMARK   10  A    between atoms: C_25  and  C_26
REMARK   11  A    between atoms: C_25  and  C_27
REMARK   12  A    between atoms: C_28  and  C_29
REMARK   13  A    between atoms: C_28  and  C_30
REMARK                            x       y       z     vdW  Elec       q    Type
REMARK                         _______ _______ _______ _____ _____    ______ ____
ROOT
ATOM      1  N   UNL     1      -2.169  -3.170   3.553  0.00  0.00    -0.257 N 
ATOM      2  C   UNL     1      -1.142  -2.449   3.061  0.00  0.00    +0.202 C 
ATOM      3  O   UNL     1      -0.173  -3.011   2.598  0.00  0.00    -0.277 OA
ATOM      4  H   UNL     1      -2.945  -2.720   3.923  0.00  0.00    +0.158 HD
ENDROOT
BRANCH   1  10
ATOM      5  C   UNL     1      -2.944  -9.317   3.928  0.00  0.00    +0.068 C 
ATOM      6  C   UNL     1      -3.415  -7.903   4.152  0.00  0.00    +0.070 A 
ATOM      7  C   UNL     1      -2.573  -6.773   3.748  0.00  0.00    +0.053 A 
ATOM      8  C   UNL     1      -1.365  -6.610   3.170  0.00  0.00    +0.114 A 
ATOM      9  O   UNL     1      -1.110  -5.295   3.042  0.00  0.00    -0.445 OA
ATOM     10  C   UNL     1      -2.117  -4.553   3.529  0.00  0.00    +0.206 A 
ATOM     11  C   UNL     1      -3.090  -5.404   3.995  0.00  0.00    +0.110 A 
ATOM     12  C   UNL     1      -4.401  -5.281   4.623  0.00  0.00    +0.277 A 
ATOM     13  O   UNL     1      -4.880  -4.184   4.851  0.00  0.00    -0.266 OA
ATOM     14  N   UNL     1      -5.074  -6.405   4.945  0.00  0.00    -0.242 N 
ATOM     15  H   UNL     1      -5.945  -6.322   5.363  0.00  0.00    +0.192 HD
ATOM     16  N   UNL     1      -4.568  -7.680   4.704  0.00  0.00    -0.175 NA
ATOM     17  C   UNL     1      -0.448  -7.724   2.732  0.00  0.00    +0.087 C 
ENDBRANCH   1  10
BRANCH   2  18
ATOM     18  C   UNL     1      -1.199  -0.943   3.087  0.00  0.00    +0.016 C 
BRANCH  18  19
ATOM     19  N   UNL     1       0.039  -0.402   2.494  0.00  0.00    +0.389 N 
ATOM     20  H   UNL     1       0.123  -0.732   1.526  0.00  0.00    -0.084 HD
ATOM     21  H   UNL     1       0.846  -0.730   3.038  0.00  0.00    -0.084 HD
BRANCH  19  22
ATOM     22  C   UNL     1       0.011   1.072   2.506  0.00  0.00    -0.038 C 
BRANCH  22  23
ATOM     23  C   UNL     1       1.425   1.594   2.496  0.00  0.00    -0.061 A 
ATOM     24  C   UNL     1       2.385   0.974   1.718  0.00  0.00    +0.002 A 
ATOM     25  C   UNL     1       3.680   1.455   1.704  0.00  0.00    +0.004 A 
ATOM     26  C   UNL     1       4.019   2.550   2.477  0.00  0.00    -0.045 A 
ATOM     27  C   UNL     1       3.060   3.168   3.258  0.00  0.00    +0.004 A 
ATOM     28  C   UNL     1       1.763   2.689   3.268  0.00  0.00    +0.002 A 
BRANCH  26  29
ATOM     29  C   UNL     1       5.433   3.071   2.467  0.00  0.00    +0.013 C 
ATOM     30  C   UNL     1       6.385   1.973   2.945  0.00  0.00    +0.012 C 
ATOM     31  C   UNL     1       5.812   3.491   1.045  0.00  0.00    +0.012 C 
ENDBRANCH  26  29
ENDBRANCH  22  23
BRANCH  22  32
ATOM     32  C   UNL     1      -0.729   1.579   1.267  0.00  0.00    -0.027 C 
ATOM     33  C   UNL     1      -0.013   1.086   0.008  0.00  0.00    +0.006 C 
ATOM     34  C   UNL     1      -0.750   3.109   1.275  0.00  0.00    +0.006 C 
ENDBRANCH  22  32
ENDBRANCH  19  22
ENDBRANCH  18  19
ENDBRANCH   2  18
TORSDOF 7
