REMARK  Name = ZINC28629018
REMARK  1 active torsions:
REMARK  status: ('A' for Active; 'I' for Inactive)
REMARK    1  A    between atoms: N_4  and  N_8
REMARK                            x       y       z     vdW  Elec       q    Type
REMARK                         _______ _______ _______ _____ _____    ______ ____
ROOT
ATOM      1  N   UNL     1      -5.122   2.800   0.043  0.00  0.00    -0.233 N 
ATOM      2  C   UNL     1      -3.754   2.552   0.034  0.00  0.00    +0.200 A 
ATOM      3  N   UNL     1      -2.750   3.407   0.034  0.00  0.00    -0.123 NA
ATOM      4  N   UNL     1      -1.455   2.942   0.031  0.00  0.00    -0.125 NA
ATOM      5  C   UNL     1      -1.224   1.644   0.017  0.00  0.00    +0.181 A 
ATOM      6  S   UNL     1      -2.887   0.991   0.021  0.00  0.00    -0.015 S 
ATOM      7  N   UNL     1      -0.011   0.966   0.007  0.00  0.00    -0.336 N 
ATOM      8  H   UNL     1      -5.833   1.961   0.041  0.00  0.00    +0.173 HD
ATOM      9  H   UNL     1       0.004  -0.134  -0.004  0.00  0.00    +0.144 HD
ATOM     10  H   UNL     1       0.934   1.529   0.011  0.00  0.00    +0.144 HD
ENDROOT
BRANCH   1  14
ATOM     11  C   UNL     1      -6.590   6.051  -0.980  0.00  0.00    +0.174 C 
ATOM     12  C   UNL     1      -6.096   4.614  -1.067  0.00  0.00    +0.247 C 
ATOM     13  O   UNL     1      -6.158   3.968  -2.091  0.00  0.00    -0.273 OA
ATOM     14  N   UNL     1      -5.595   4.119   0.052  0.00  0.00    -0.174 N 
ATOM     15  C   UNL     1      -5.521   4.815   1.202  0.00  0.00    +0.134 C 
ATOM     16  S   UNL     1      -4.907   4.296   2.713  0.00  0.00    -0.026 S 
ATOM     17  S   UNL     1      -6.212   6.409   0.782  0.00  0.00    -0.091 S 
ENDBRANCH   1  14
TORSDOF 1
