REMARK  Name = ZINC28540277
REMARK  9 active torsions:
REMARK  status: ('A' for Active; 'I' for Inactive)
REMARK    1  A    between atoms: C_1  and  C_2
REMARK    2  A    between atoms: C_2  and  C_27
REMARK    3  A    between atoms: C_3  and  C_4
REMARK    4  A    between atoms: C_4  and  C_5
REMARK    5  A    between atoms: C_6  and  O_26
REMARK    6  A    between atoms: C_10  and  O_11
REMARK    7  A    between atoms: C_15  and  C_18
REMARK    8  A    between atoms: C_21  and  O_24
REMARK    9  A    between atoms: O_24  and  C_25
REMARK                            x       y       z     vdW  Elec       q    Type
REMARK                         _______ _______ _______ _____ _____    ______ ____
ROOT
ATOM      1  C   UNL     1       3.391  -0.491   0.873  0.00  0.00    +0.040 A 
ATOM      2  C   UNL     1       3.401  -0.049   2.190  0.00  0.00    +0.127 A 
ATOM      3  C   UNL     1       4.271  -0.608   3.118  0.00  0.00    +0.092 A 
ATOM      4  C   UNL     1       5.142  -1.613   2.738  0.00  0.00    +0.139 A 
ATOM      5  C   UNL     1       5.140  -2.058   1.403  0.00  0.00    +0.101 A 
ATOM      6  C   UNL     1       4.251  -1.497   0.472  0.00  0.00    +0.138 A 
ATOM      7  C   UNL     1       6.077  -3.113   1.002  0.00  0.00    +0.174 C 
ATOM      8  O   UNL     1       6.274  -3.381  -0.166  0.00  0.00    -0.292 OA
ATOM      9  C   UNL     1       6.787  -3.852   2.121  0.00  0.00    +0.129 C 
ATOM     10  C   UNL     1       7.165  -2.811   3.185  0.00  0.00    +0.211 C 
ATOM     11  O   UNL     1       5.982  -2.159   3.648  0.00  0.00    -0.483 OA
ENDROOT
BRANCH  10  12
ATOM     12  C   UNL     1       7.847  -3.497   4.340  0.00  0.00    -0.007 A 
ATOM     13  C   UNL     1       7.094  -4.156   5.295  0.00  0.00    +0.011 A 
ATOM     14  C   UNL     1       7.717  -4.785   6.355  0.00  0.00    +0.046 A 
ATOM     15  C   UNL     1       9.100  -4.755   6.462  0.00  0.00    +0.120 A 
ATOM     16  C   UNL     1       9.854  -4.094   5.503  0.00  0.00    +0.046 A 
ATOM     17  C   UNL     1       9.226  -3.471   4.442  0.00  0.00    +0.011 A 
BRANCH  15  18
ATOM     18  O   UNL     1       9.716  -5.373   7.504  0.00  0.00    -0.495 OA
ATOM     19  C   UNL     1      11.142  -5.302   7.550  0.00  0.00    +0.277 C 
ENDBRANCH  15  18
ENDBRANCH  10  12
BRANCH   6  20
ATOM     20  O   UNL     1       4.239  -1.936  -0.811  0.00  0.00    -0.506 OA
ATOM     21  H   UNL     1       4.844  -1.459  -1.395  0.00  0.00    +0.292 HD
ENDBRANCH   6  20
BRANCH   2  22
ATOM     22  O   UNL     1       2.553   0.937   2.575  0.00  0.00    -0.506 OA
ATOM     23  H   UNL     1       1.697   0.619   2.893  0.00  0.00    +0.292 HD
ENDBRANCH   2  22
BRANCH   1  24
ATOM     24  C   UNL     1       2.437   0.124  -0.120  0.00  0.00    +0.069 C 
BRANCH  24  27
ATOM     25  C   UNL     1      -0.012   1.493   0.161  0.00  0.00    +0.038 C 
ATOM     26  C   UNL     1       0.007  -0.012   0.073  0.00  0.00    -0.079 C 
ATOM     27  C   UNL     1       1.140  -0.643  -0.111  0.00  0.00    -0.023 C 
ATOM     28  C   UNL     1      -1.277  -0.790   0.198  0.00  0.00    +0.038 C 
ENDBRANCH  24  27
ENDBRANCH   1  24
TORSDOF 6
