REMARK  Name = ZINC64728942
REMARK  9 active torsions:
REMARK  status: ('A' for Active; 'I' for Inactive)
REMARK    1  A    between atoms: C_1  and  C_2
REMARK    2  A    between atoms: C_2  and  C_3
REMARK    3  A    between atoms: C_6  and  C_9
REMARK    4  A    between atoms: C_11  and  C_15
REMARK    5  A    between atoms: N_17  and  C_18
REMARK    6  A    between atoms: C_20  and  C_34
REMARK    7  A    between atoms: C_23  and  N_26
REMARK    8  A    between atoms: N_26  and  C_27
REMARK    9  A    between atoms: C_30  and  C_33
REMARK                            x       y       z     vdW  Elec       q    Type
REMARK                         _______ _______ _______ _____ _____    ______ ____
ROOT
ATOM      1  C   UNL     1     -10.267  -1.172  -2.563  0.00  0.00    +0.160 C 
ATOM      2  C   UNL     1     -10.097  -0.602  -3.989  0.00  0.00    +0.173 C 
ATOM      3  N   UNL     1      -9.947   0.854  -4.032  0.00  0.00    -0.277 NA
ATOM      4  C   UNL     1     -10.712   1.536  -2.945  0.00  0.00    +0.202 C 
ATOM      5  S   UNL     1     -10.371   0.367  -1.553  0.00  0.00    -0.099 S 
ATOM      6  H   UNL     1      -8.974   1.119  -4.010  0.00  0.00    +0.125 HD
ENDROOT
BRANCH   2   7
ATOM      7  C   UNL     1      -8.875  -1.226  -4.614  0.00  0.00    +0.230 C 
ATOM      8  O   UNL     1      -7.828  -0.613  -4.641  0.00  0.00    -0.274 OA
ATOM      9  N   UNL     1      -8.945  -2.464  -5.142  0.00  0.00    -0.328 N 
ATOM     10  H   UNL     1      -9.782  -2.953  -5.120  0.00  0.00    +0.145 HD
ATOM     11  H   UNL     1      -8.159  -2.865  -5.544  0.00  0.00    +0.145 HD
ENDBRANCH   2   7
BRANCH   1  14
ATOM     12  C   UNL     1      -8.776  -2.103  -0.876  0.00  0.00    +0.244 C 
ATOM     13  O   UNL     1      -9.391  -1.486  -0.032  0.00  0.00    -0.273 OA
ATOM     14  N   UNL     1      -9.104  -1.975  -2.177  0.00  0.00    -0.299 N 
ATOM     15  H   UNL     1      -8.570  -2.414  -2.858  0.00  0.00    +0.150 HD
BRANCH  12  18
ATOM     16  C   UNL     1      -5.771  -2.275   0.550  0.00  0.00    +0.092 C 
ATOM     17  C   UNL     1      -6.305  -2.331  -0.685  0.00  0.00    +0.040 C 
ATOM     18  C   UNL     1      -7.645  -3.013  -0.471  0.00  0.00    +0.238 C 
ATOM     19  N   UNL     1      -7.667  -3.260   0.981  0.00  0.00    -0.170 NA
ATOM     20  N   UNL     1      -6.613  -2.836   1.457  0.00  0.00    -0.153 NA
BRANCH  16  24
ATOM     21  C   UNL     1      -1.976  -0.595   1.477  0.00  0.00    -0.048 A 
ATOM     22  C   UNL     1      -2.752  -1.140   2.483  0.00  0.00    +0.004 A 
ATOM     23  C   UNL     1      -3.985  -1.687   2.188  0.00  0.00    +0.010 A 
ATOM     24  C   UNL     1      -4.447  -1.688   0.874  0.00  0.00    +0.002 A 
ATOM     25  C   UNL     1      -3.660  -1.138  -0.137  0.00  0.00    +0.010 A 
ATOM     26  C   UNL     1      -2.431  -0.590   0.171  0.00  0.00    +0.004 A 
BRANCH  21  28
ATOM     27  C   UNL     1      -0.798   1.484   2.139  0.00  0.00    +0.009 C 
ATOM     28  C   UNL     1      -0.631   0.000   1.805  0.00  0.00    +0.032 C 
ENDBRANCH  21  28
ENDBRANCH  16  24
ENDBRANCH  12  18
ENDBRANCH   1  14
BRANCH   4  29
ATOM     29  N   UNL     1     -10.173   2.870  -2.669  0.00  0.00    -0.320 N 
ATOM     30  H   UNL     1      -9.297   3.118  -3.003  0.00  0.00    +0.148 HD
BRANCH  29  31
ATOM     31  C   UNL     1     -10.921   3.784  -1.923  0.00  0.00    +0.029 A 
ATOM     32  C   UNL     1     -12.173   3.428  -1.438  0.00  0.00    +0.023 A 
ATOM     33  C   UNL     1     -12.909   4.334  -0.701  0.00  0.00    +0.005 A 
ATOM     34  C   UNL     1     -12.402   5.595  -0.446  0.00  0.00    -0.050 A 
ATOM     35  C   UNL     1     -11.156   5.953  -0.927  0.00  0.00    +0.005 A 
ATOM     36  C   UNL     1     -10.412   5.050  -1.660  0.00  0.00    +0.023 A 
ATOM     37  C   UNL     1     -13.209   6.582   0.358  0.00  0.00    +0.044 C 
ENDBRANCH  29  31
ENDBRANCH   4  29
TORSDOF 7
