REMARK  Name = ZINC20862526
REMARK  5 active torsions:
REMARK  status: ('A' for Active; 'I' for Inactive)
REMARK    1  A    between atoms: C_1  and  N_2
REMARK    2  A    between atoms: N_2  and  C_3
REMARK    3  A    between atoms: N_2  and  C_4
REMARK    4  A    between atoms: C_13  and  O_15
REMARK    5  A    between atoms: C_23  and  C_27
REMARK                            x       y       z     vdW  Elec       q    Type
REMARK                         _______ _______ _______ _____ _____    ______ ____
ROOT
ATOM      1  C   UNL     1       0.034  -0.003   0.024  0.00  0.00    -0.008 C 
ATOM      2  C   UNL     1       0.473  -0.526  -1.328  0.00  0.00    -0.055 A 
ATOM      3  C   UNL     1       1.733  -0.594  -1.898  0.00  0.00    +0.002 A 
ATOM      4  C   UNL     1       1.896  -1.119  -3.165  0.00  0.00    +0.000 A 
ATOM      5  C   UNL     1       0.797  -1.579  -3.867  0.00  0.00    +0.000 A 
ATOM      6  C   UNL     1      -0.460  -1.512  -3.300  0.00  0.00    +0.004 A 
ATOM      7  C   UNL     1      -0.627  -0.986  -2.030  0.00  0.00    -0.037 A 
ATOM      8  C   UNL     1      -1.872  -0.804  -1.196  0.00  0.00    +0.023 C 
ATOM      9  C   UNL     1      -1.378  -0.588   0.248  0.00  0.00    +0.116 C 
ATOM     10  C   UNL     1      -2.747  -2.053  -1.267  0.00  0.00    +0.033 C 
ATOM     11  C   UNL     1      -4.017  -1.830  -0.441  0.00  0.00    +0.107 C 
ATOM     12  N   UNL     1      -4.736  -0.657  -0.956  0.00  0.00    -0.315 N 
ATOM     13  C   UNL     1      -3.926   0.562  -0.829  0.00  0.00    +0.107 C 
ATOM     14  C   UNL     1      -2.654   0.419  -1.669  0.00  0.00    +0.033 C 
ATOM     15  C   UNL     1      -5.964  -0.507  -0.322  0.00  0.00    +0.122 A 
ATOM     16  C   UNL     1      -6.876  -1.558  -0.331  0.00  0.00    +0.056 A 
ATOM     17  C   UNL     1      -8.104  -1.392   0.310  0.00  0.00    +0.041 A 
ATOM     18  C   UNL     1      -8.363  -0.167   0.937  0.00  0.00    +0.033 A 
ATOM     19  C   UNL     1      -7.404   0.824   0.900  0.00  0.00    +0.113 A 
ATOM     20  N   UNL     1      -6.251   0.631   0.289  0.00  0.00    -0.240 NA
ENDROOT
BRANCH  17  21
ATOM     21  C   UNL     1      -9.106  -2.483   0.327  0.00  0.00    +0.242 C 
ATOM     22  O   UNL     1      -8.864  -3.539  -0.222  0.00  0.00    -0.270 OA
ATOM     23  N   UNL     1     -10.287  -2.303   0.952  0.00  0.00    -0.325 N 
ATOM     24  H   UNL     1     -11.031  -3.113   0.965  0.00  0.00    +0.145 HD
ATOM     25  H   UNL     1     -10.506  -1.346   1.449  0.00  0.00    +0.145 HD
ENDBRANCH  17  21
BRANCH   1  27
ATOM     26  C   UNL     1      -0.371   1.992   1.335  0.00  0.00    -0.096 C 
ATOM     27  N   UNL     1      -0.018   1.465   0.010  0.00  0.00    +0.382 N 
ATOM     28  C   UNL     1       1.253   2.032  -0.461  0.00  0.00    -0.096 C 
ATOM     29  H   UNL     1      -0.806   1.768  -0.695  0.00  0.00    -0.082 HD
ENDBRANCH   1  27
BRANCH   9  30
ATOM     30  O   UNL     1      -1.308  -1.828   0.954  0.00  0.00    -0.392 OA
ATOM     31  H   UNL     1      -2.231  -2.376   1.194  0.00  0.00    +0.210 HD
ENDBRANCH   9  30
TORSDOF 3
