REMARK  Name = ZINC39559914
REMARK  10 active torsions:
REMARK  status: ('A' for Active; 'I' for Inactive)
REMARK    1  A    between atoms: C_1  and  C_2
REMARK    2  A    between atoms: C_8  and  C_37
REMARK    3  A    between atoms: C_16  and  O_17
REMARK    4  A    between atoms: C_18  and  O_22
REMARK    5  A    between atoms: C_25  and  O_33
REMARK    6  A    between atoms: C_27  and  O_32
REMARK    7  A    between atoms: C_29  and  C_30
REMARK    8  A    between atoms: C_29  and  C_31
REMARK    9  A    between atoms: O_33  and  C_34
REMARK   10  A    between atoms: C_34  and  C_36
REMARK                            x       y       z     vdW  Elec       q    Type
REMARK                         _______ _______ _______ _____ _____    ______ ____
ROOT
ATOM      1  C   UNL     1      -0.183   1.729   0.363  0.00  0.00    +0.011 C 
ATOM      2  C   UNL     1       0.028   0.245   0.111  0.00  0.00    +0.031 C 
ATOM      3  C   UNL     1      -1.282  -0.499  -0.092  0.00  0.00    +0.007 C 
ATOM      4  C   UNL     1      -1.997  -0.793   1.222  0.00  0.00    +0.005 C 
ATOM      5  C   UNL     1      -1.105  -1.562   2.205  0.00  0.00    +0.007 C 
ATOM      6  C   UNL     1       0.143  -0.725   2.475  0.00  0.00    +0.015 C 
ATOM      7  C   UNL     1       0.876  -0.425   1.174  0.00  0.00    +0.123 C 
ATOM      8  C   UNL     1       1.435  -1.734   0.559  0.00  0.00    +0.091 C 
ATOM      9  C   UNL     1       2.733  -1.245  -0.058  0.00  0.00    +0.040 A 
ATOM     10  C   UNL     1       3.035  -0.031   0.545  0.00  0.00    +0.128 A 
ATOM     11  C   UNL     1       4.204   0.629   0.174  0.00  0.00    +0.052 A 
ATOM     12  C   UNL     1       5.039   0.085  -0.778  0.00  0.00    -0.007 A 
ATOM     13  C   UNL     1       4.721  -1.120  -1.382  0.00  0.00    +0.055 A 
ATOM     14  C   UNL     1       3.561  -1.786  -1.023  0.00  0.00    +0.132 A 
ATOM     15  C   UNL     1       5.821  -1.438  -2.367  0.00  0.00    +0.283 C 
ATOM     16  O   UNL     1       6.523  -0.201  -2.588  0.00  0.00    -0.343 OA
ATOM     17  C   UNL     1       6.351   0.548  -1.372  0.00  0.00    +0.199 C 
ATOM     18  O   UNL     1       2.069   0.329   1.436  0.00  0.00    -0.484 OA
ATOM     19  C   UNL     1      -0.279   0.555   3.201  0.00  0.00    +0.058 C 
ATOM     20  C   UNL     1      -0.897   0.190   4.553  0.00  0.00    +0.206 C 
ATOM     21  C   UNL     1      -2.131  -0.680   4.361  0.00  0.00    +0.161 C 
ATOM     22  C   UNL     1      -1.897  -1.887   3.463  0.00  0.00    -0.002 C 
ATOM     23  C   UNL     1      -1.252  -3.022   4.271  0.00  0.00    +0.014 C 
ATOM     24  C   UNL     1      -3.293  -2.426   3.065  0.00  0.00    +0.014 C 
ATOM     25  C   UNL     1       1.150  -1.452   3.383  0.00  0.00    +0.015 C 
ENDROOT
BRANCH  14  26
ATOM     26  O   UNL     1       3.238  -2.965  -1.617  0.00  0.00    -0.506 OA
ATOM     27  H   UNL     1       2.700  -2.869  -2.415  0.00  0.00    +0.292 HD
ENDBRANCH  14  26
BRANCH  15  28
ATOM     28  O   UNL     1       6.707  -2.416  -1.818  0.00  0.00    -0.363 OA
ATOM     29  H   UNL     1       7.435  -2.661  -2.406  0.00  0.00    +0.213 HD
ENDBRANCH  15  28
BRANCH  21  30
ATOM     30  O   UNL     1      -3.203   0.112   3.837  0.00  0.00    -0.388 OA
ATOM     31  H   UNL     1      -3.462   0.849   4.407  0.00  0.00    +0.210 HD
ENDBRANCH  21  30
BRANCH  20  32
ATOM     32  O   UNL     1      -1.293   1.409   5.208  0.00  0.00    -0.459 OA
BRANCH  32  33
ATOM     33  C   UNL     1      -1.268   1.415   6.550  0.00  0.00    +0.304 C 
ATOM     34  O   UNL     1      -0.923   0.427   7.153  0.00  0.00    -0.251 OA
ATOM     35  C   UNL     1      -1.669   2.656   7.305  0.00  0.00    +0.136 C 
ENDBRANCH  32  33
ENDBRANCH  20  32
TORSDOF 5
