REMARK  Name = ZINC01629867
REMARK  15 active torsions:
REMARK  status: ('A' for Active; 'I' for Inactive)
REMARK    1  A    between atoms: C_1  and  C_2
REMARK    2  A    between atoms: C_3  and  O_27
REMARK    3  A    between atoms: C_5  and  O_12
REMARK    4  A    between atoms: C_6  and  C_9
REMARK    5  A    between atoms: C_7  and  O_8
REMARK    6  A    between atoms: C_9  and  C_11
REMARK    7  A    between atoms: O_12  and  C_13
REMARK    8  A    between atoms: C_14  and  O_26
REMARK    9  A    between atoms: C_15  and  C_25
REMARK   10  A    between atoms: C_16  and  O_23
REMARK   11  A    between atoms: C_17  and  C_20
REMARK   12  A    between atoms: C_18  and  O_19
REMARK   13  A    between atoms: C_20  and  C_22
REMARK   14  A    between atoms: O_23  and  C_24
REMARK   15  A    between atoms: O_27  and  C_28
REMARK                            x       y       z     vdW  Elec       q    Type
REMARK                         _______ _______ _______ _____ _____    ______ ____
ROOT
ATOM      1  C   UNL     1      -1.368   2.267  -0.135  0.00  0.00    +0.212 A 
ATOM      2  C   UNL     1      -1.514   3.633   0.093  0.00  0.00    +0.169 A 
ATOM      3  C   UNL     1      -0.397   4.438   0.274  0.00  0.00    +0.037 A 
ATOM      4  C   UNL     1       0.871   3.889   0.236  0.00  0.00    +0.141 A 
ATOM      5  C   UNL     1       1.030   2.509   0.013  0.00  0.00    +0.104 A 
ATOM      6  C   UNL     1      -0.105   1.698  -0.170  0.00  0.00    +0.177 A 
ATOM      7  C   UNL     1      -0.568   5.916   0.513  0.00  0.00    +0.051 C 
ENDROOT
BRANCH   5   8
ATOM      8  C   UNL     1       2.368   1.921  -0.030  0.00  0.00    +0.167 C 
ATOM      9  O   UNL     1       2.933   1.775  -1.094  0.00  0.00    -0.292 OA
ATOM     10  C   UNL     1       3.045   1.496   1.248  0.00  0.00    +0.092 C 
ENDBRANCH   5   8
BRANCH   6  11
ATOM     11  O   UNL     1       0.036   0.366  -0.386  0.00  0.00    -0.503 OA
ATOM     12  H   UNL     1       0.100  -0.159   0.423  0.00  0.00    +0.292 HD
ENDBRANCH   6  11
BRANCH   4  13
ATOM     13  O   UNL     1       1.959   4.679   0.414  0.00  0.00    -0.494 OA
ATOM     14  C   UNL     1       2.533   5.266  -0.756  0.00  0.00    +0.277 C 
ENDBRANCH   4  13
BRANCH   2  15
ATOM     15  O   UNL     1      -2.755   4.182   0.132  0.00  0.00    -0.503 OA
ATOM     16  H   UNL     1      -3.078   4.486  -0.727  0.00  0.00    +0.292 HD
ENDBRANCH   2  15
BRANCH   1  17
ATOM     17  O   UNL     1      -2.469   1.487  -0.317  0.00  0.00    -0.448 OA
BRANCH  17  22
ATOM     18  C   UNL     1      -4.833  -0.849   4.254  0.00  0.00    +0.051 C 
ATOM     19  C   UNL     1      -4.211  -0.231   3.028  0.00  0.00    +0.033 A 
ATOM     20  C   UNL     1      -3.086   0.574   3.153  0.00  0.00    +0.130 A 
ATOM     21  C   UNL     1      -2.500   1.145   2.031  0.00  0.00    +0.093 A 
ATOM     22  C   UNL     1      -3.040   0.925   0.777  0.00  0.00    +0.146 A 
ATOM     23  C   UNL     1      -4.180   0.111   0.639  0.00  0.00    +0.101 A 
ATOM     24  C   UNL     1      -4.763  -0.467   1.783  0.00  0.00    +0.137 A 
BRANCH  23  25
ATOM     25  C   UNL     1      -4.755  -0.132  -0.682  0.00  0.00    +0.167 C 
ATOM     26  O   UNL     1      -4.388  -1.085  -1.338  0.00  0.00    -0.292 OA
ATOM     27  C   UNL     1      -5.805   0.800  -1.229  0.00  0.00    +0.092 C 
ENDBRANCH  23  25
BRANCH  24  28
ATOM     28  O   UNL     1      -5.862  -1.253   1.664  0.00  0.00    -0.506 OA
ATOM     29  H   UNL     1      -5.664  -2.196   1.583  0.00  0.00    +0.292 HD
ENDBRANCH  24  28
BRANCH  20  30
ATOM     30  O   UNL     1      -2.552   0.800   4.380  0.00  0.00    -0.495 OA
ATOM     31  C   UNL     1      -1.395   1.637   4.441  0.00  0.00    +0.277 C 
ENDBRANCH  20  30
ENDBRANCH  17  22
ENDBRANCH   1  17
TORSDOF 9
