REMARK  Name = ZINC67285785
REMARK  10 active torsions:
REMARK  status: ('A' for Active; 'I' for Inactive)
REMARK    1  A    between atoms: C_1  and  C_2
REMARK    2  A    between atoms: C_4  and  N_16
REMARK    3  A    between atoms: C_7  and  O_8
REMARK    4  A    between atoms: O_8  and  C_9
REMARK    5  A    between atoms: C_9  and  C_11
REMARK    6  A    between atoms: C_9  and  C_12
REMARK    7  A    between atoms: C_12  and  C_13
REMARK    8  A    between atoms: C_13  and  C_14
REMARK    9  A    between atoms: C_13  and  C_15
REMARK   10  A    between atoms: C_23  and  C_26
REMARK                            x       y       z     vdW  Elec       q    Type
REMARK                         _______ _______ _______ _____ _____    ______ ____
ROOT
ATOM      1  N   UNL     1      -0.506  -3.915  -2.263  0.00  0.00    -0.269 N 
ATOM      2  C   UNL     1      -0.338  -5.237  -2.067  0.00  0.00    +0.307 C 
ATOM      3  O   UNL     1      -0.201  -5.672  -0.940  0.00  0.00    -0.252 OA
ATOM      4  N   UNL     1      -0.321  -6.078  -3.120  0.00  0.00    -0.280 N 
ATOM      5  C   UNL     1      -0.414  -5.569  -4.498  0.00  0.00    +0.137 C 
ATOM      6  C   UNL     1       0.723  -6.186  -5.319  0.00  0.00    +0.180 C 
ATOM      7  O   UNL     1       0.698  -7.607  -5.165  0.00  0.00    -0.364 OA
ATOM      8  C   UNL     1       0.919  -8.054  -3.825  0.00  0.00    +0.221 C 
ATOM      9  C   UNL     1      -0.203  -7.532  -2.927  0.00  0.00    +0.150 C 
ATOM     10  H   UNL     1      -0.624  -3.569  -3.162  0.00  0.00    +0.156 HD
ENDROOT
BRANCH   1  14
ATOM     11  C   UNL     1       0.402   0.551  -0.414  0.00  0.00    +0.047 C 
ATOM     12  C   UNL     1      -0.076  -0.869  -0.246  0.00  0.00    -0.007 A 
ATOM     13  C   UNL     1      -0.071  -1.732  -1.325  0.00  0.00    +0.030 A 
ATOM     14  C   UNL     1      -0.510  -3.039  -1.169  0.00  0.00    +0.035 A 
ATOM     15  C   UNL     1      -0.955  -3.479   0.071  0.00  0.00    +0.027 A 
ATOM     16  C   UNL     1      -0.959  -2.615   1.148  0.00  0.00    +0.048 A 
ATOM     17  C   UNL     1      -0.514  -1.310   0.994  0.00  0.00    +0.124 A 
BRANCH  17  18
ATOM     18  O   UNL     1      -0.514  -0.462   2.056  0.00  0.00    -0.489 OA
BRANCH  18  19
ATOM     19  C   UNL     1      -1.075  -0.950   3.276  0.00  0.00    +0.171 C 
ATOM     20  C   UNL     1      -0.021  -1.758   4.036  0.00  0.00    +0.052 C 
BRANCH  19  21
ATOM     21  C   UNL     1      -1.531   0.230   4.136  0.00  0.00    +0.047 C 
BRANCH  21  22
ATOM     22  C   UNL     1      -2.692   0.947   3.445  0.00  0.00    -0.014 C 
ATOM     23  C   UNL     1      -3.821  -0.051   3.178  0.00  0.00    +0.007 C 
ATOM     24  C   UNL     1      -3.208   2.070   4.347  0.00  0.00    +0.007 C 
ENDBRANCH  21  22
ENDBRANCH  19  21
ENDBRANCH  18  19
ENDBRANCH  17  18
ENDBRANCH   1  14
BRANCH   8  25
ATOM     25  C   UNL     1       0.933  -9.561  -3.793  0.00  0.00    +0.241 C 
ATOM     26  O   UNL     1       0.680 -10.191  -4.798  0.00  0.00    -0.273 OA
ATOM     27  N   UNL     1       1.226 -10.208  -2.648  0.00  0.00    -0.327 N 
ATOM     28  H   UNL     1       1.428  -9.704  -1.844  0.00  0.00    +0.145 HD
ATOM     29  H   UNL     1       1.236 -11.178  -2.627  0.00  0.00    +0.145 HD
ENDBRANCH   8  25
TORSDOF 6
