REMARK  Name = ZINC39252139
REMARK  10 active torsions:
REMARK  status: ('A' for Active; 'I' for Inactive)
REMARK    1  A    between atoms: C_1  and  C_2
REMARK    2  A    between atoms: C_2  and  C_3
REMARK    3  A    between atoms: C_3  and  C_4
REMARK    4  A    between atoms: C_3  and  C_6
REMARK    5  A    between atoms: C_4  and  C_5
REMARK    6  A    between atoms: C_10  and  N_13
REMARK    7  A    between atoms: C_14  and  C_16
REMARK    8  A    between atoms: N_21  and  C_23
REMARK    9  A    between atoms: C_23  and  C_24
REMARK   10  A    between atoms: C_24  and  C_25
REMARK                            x       y       z     vdW  Elec       q    Type
REMARK                         _______ _______ _______ _____ _____    ______ ____
ROOT
ATOM      1  C   UNL     1       1.515  -8.185  -0.431  0.00  0.00    +0.101 C 
ATOM      2  C   UNL     1       1.678  -8.377   1.094  0.00  0.00    +0.110 C 
ATOM      3  C   UNL     1       2.006  -9.846   1.250  0.00  0.00    +0.216 C 
ATOM      4  O   UNL     1       1.937 -10.466   2.290  0.00  0.00    -0.276 OA
ATOM      5  N   UNL     1       2.385 -10.363   0.069  0.00  0.00    -0.300 N 
ATOM      6  C   UNL     1       2.369  -9.345  -0.989  0.00  0.00    +0.121 C 
ENDROOT
BRANCH   1   8
ATOM      7  N   UNL     1       1.493  -5.712  -0.433  0.00  0.00    -0.290 N 
ATOM      8  C   UNL     1       2.064  -6.852  -0.869  0.00  0.00    +0.220 C 
ATOM      9  O   UNL     1       3.020  -6.804  -1.614  0.00  0.00    -0.275 OA
ATOM     10  H   UNL     1       0.728  -5.749   0.163  0.00  0.00    +0.151 HD
BRANCH   7  14
ATOM     11  C   UNL     1       0.548  -2.117  -1.378  0.00  0.00    +0.133 C 
ATOM     12  N   UNL     1       1.427  -2.670  -2.456  0.00  0.00    -0.241 NA
ATOM     13  N   UNL     1       1.619  -4.102  -2.256  0.00  0.00    -0.227 NA
ATOM     14  C   UNL     1       2.027  -4.415  -0.858  0.00  0.00    +0.216 C 
ATOM     15  S   UNL     1       1.231  -3.035   0.070  0.00  0.00    -0.102 S 
ATOM     16  H   UNL     1       1.041  -2.482  -3.369  0.00  0.00    +0.142 HD
ATOM     17  H   UNL     1       0.792  -4.618  -2.517  0.00  0.00    +0.143 HD
BRANCH  11  18
ATOM     18  C   UNL     1       0.739  -0.607  -1.222  0.00  0.00    +0.017 C 
BRANCH  18  20
ATOM     19  C   UNL     1      -1.503  -0.310  -0.161  0.00  0.00    +0.004 C 
ATOM     20  C   UNL     1       0.004  -0.126   0.030  0.00  0.00    +0.002 C 
ENDBRANCH  18  20
BRANCH  18  21
ATOM     21  C   UNL     1       2.230  -0.292  -1.091  0.00  0.00    +0.002 C 
ATOM     22  C   UNL     1       2.432   1.225  -1.078  0.00  0.00    +0.004 C 
ENDBRANCH  18  21
ENDBRANCH  11  18
ENDBRANCH   7  14
ENDBRANCH   1   8
BRANCH   5  23
ATOM     23  C   UNL     1       2.764 -11.763  -0.138  0.00  0.00    +0.112 C 
BRANCH  23  24
ATOM     24  C   UNL     1       1.523 -12.578  -0.507  0.00  0.00    +0.056 C 
BRANCH  24  25
ATOM     25  C   UNL     1       1.913 -14.018  -0.719  0.00  0.00    -0.021 A 
ATOM     26  C   UNL     1       2.042 -15.047   0.316  0.00  0.00    +0.004 A 
ATOM     27  C   UNL     1       1.870 -15.056   1.701  0.00  0.00    +0.030 A 
ATOM     28  C   UNL     1       2.075 -16.223   2.405  0.00  0.00    +0.042 A 
ATOM     29  C   UNL     1       2.451 -17.385   1.744  0.00  0.00    +0.022 A 
ATOM     30  C   UNL     1       2.625 -17.391   0.378  0.00  0.00    +0.027 A 
ATOM     31  C   UNL     1       2.423 -16.225  -0.353  0.00  0.00    +0.047 A 
ATOM     32  N   UNL     1       2.514 -15.920  -1.693  0.00  0.00    -0.360 N 
ATOM     33  C   UNL     1       2.201 -14.603  -1.892  0.00  0.00    +0.087 A 
ATOM     34 CL   UNL     1       1.862 -16.239   4.128  0.00  0.00    -0.084 Cl
ATOM     35  H   UNL     1       2.760 -16.546  -2.392  0.00  0.00    +0.165 HD
ENDBRANCH  24  25
ENDBRANCH  23  24
ENDBRANCH   5  23
TORSDOF 8
