REMARK  Name = ZINC10667711
REMARK  8 active torsions:
REMARK  status: ('A' for Active; 'I' for Inactive)
REMARK    1  A    between atoms: C_1  and  C_2
REMARK    2  A    between atoms: C_2  and  C_3
REMARK    3  A    between atoms: C_4  and  C_20
REMARK    4  A    between atoms: C_6  and  C_8
REMARK    5  A    between atoms: C_8  and  O_10
REMARK    6  A    between atoms: O_10  and  C_11
REMARK    7  A    between atoms: C_11  and  C_13
REMARK    8  A    between atoms: C_11  and  C_14
REMARK                            x       y       z     vdW  Elec       q    Type
REMARK                         _______ _______ _______ _____ _____    ______ ____
ROOT
ATOM      1  O   UNL     1      -0.715   1.567  -1.168  0.00  0.00    -0.448 OA
ENDROOT
BRANCH   1   2
ATOM      2  C   UNL     1      -1.692   0.779  -1.663  0.00  0.00    +0.347 C 
ATOM      3  O   UNL     1      -1.949  -0.281  -1.126  0.00  0.00    -0.244 OA
BRANCH   2   7
ATOM      4  C   UNL     1      -3.511   2.379  -4.989  0.00  0.00    -0.007 A 
ATOM      5  C   UNL     1      -4.006   1.173  -4.606  0.00  0.00    -0.039 A 
ATOM      6  C   UNL     1      -3.468   0.544  -3.512  0.00  0.00    +0.026 A 
ATOM      7  C   UNL     1      -2.442   1.200  -2.848  0.00  0.00    +0.097 A 
ATOM      8  S   UNL     1      -2.270   2.687  -3.818  0.00  0.00    -0.087 S 
ATOM      9  C   UNL     1      -5.128   0.529  -5.380  0.00  0.00    +0.044 C 
BRANCH   4  11
ATOM     10  C   UNL     1      -5.044   4.196  -5.696  0.00  0.00    +0.009 C 
ATOM     11  C   UNL     1      -3.938   3.241  -6.149  0.00  0.00    +0.039 C 
ENDBRANCH   4  11
ENDBRANCH   2   7
ENDBRANCH   1   2
BRANCH   1  12
ATOM     12  C   UNL     1      -0.013   1.086   0.008  0.00  0.00    +0.259 C 
ATOM     13  C   UNL     1      -0.729   1.579   1.267  0.00  0.00    +0.062 C 
BRANCH  12  14
ATOM     14  C   UNL     1       1.401   1.607  -0.003  0.00  0.00    +0.261 C 
ATOM     15  O   UNL     1       1.753   2.387  -0.862  0.00  0.00    -0.271 OA
ATOM     16  N   UNL     1       2.274   1.208   0.943  0.00  0.00    -0.237 N 
ATOM     17  C   UNL     1       3.538   1.674   0.933  0.00  0.00    +0.303 C 
ATOM     18  O   UNL     1       3.892   2.455   0.072  0.00  0.00    -0.253 OA
ATOM     19  N   UNL     1       4.412   1.274   1.879  0.00  0.00    -0.313 N 
ATOM     20  H   UNL     1       1.992   0.584   1.631  0.00  0.00    +0.159 HD
ATOM     21  H   UNL     1       4.130   0.650   2.567  0.00  0.00    +0.146 HD
ATOM     22  H   UNL     1       5.322   1.610   1.872  0.00  0.00    +0.146 HD
ENDBRANCH  12  14
ENDBRANCH   1  12
TORSDOF 5
