REMARK  Name = ZINC14226291
REMARK  8 active torsions:
REMARK  status: ('A' for Active; 'I' for Inactive)
REMARK    1  A    between atoms: C_4  and  O_7
REMARK    2  A    between atoms: O_7  and  C_8
REMARK    3  A    between atoms: C_8  and  C_9
REMARK    4  A    between atoms: C_9  and  N_10
REMARK    5  A    between atoms: C_15  and  C_17
REMARK    6  A    between atoms: N_19  and  C_20
REMARK    7  A    between atoms: C_20  and  C_21
REMARK    8  A    between atoms: C_27  and  C_30
REMARK                            x       y       z     vdW  Elec       q    Type
REMARK                         _______ _______ _______ _____ _____    ______ ____
ROOT
ATOM      1  C   UNL     1      -1.270  -0.758   0.010  0.00  0.00    +0.264 C 
ATOM      2  O   UNL     1      -2.329  -0.163   0.023  0.00  0.00    -0.268 OA
ATOM      3  N   UNL     1      -1.254  -2.106   0.003  0.00  0.00    -0.303 N 
ATOM      4  H   UNL     1      -0.408  -2.581  -0.008  0.00  0.00    +0.150 HD
ENDROOT
BRANCH   1  10
ATOM      5  N   UNL     1       2.277  -0.041  -0.020  0.00  0.00    -0.226 N 
ATOM      6  C   UNL     1       2.359   1.302  -0.014  0.00  0.00    +0.267 A 
ATOM      7  O   UNL     1       3.449   1.851  -0.022  0.00  0.00    -0.266 OA
ATOM      8  C   UNL     1       1.175   2.073   0.002  0.00  0.00    +0.074 A 
ATOM      9  C   UNL     1      -0.017   1.412   0.010  0.00  0.00    +0.040 A 
ATOM     10  C   UNL     1       0.002  -0.004   0.002  0.00  0.00    +0.146 A 
ATOM     11  N   UNL     1       1.146  -0.650  -0.013  0.00  0.00    -0.163 NA
BRANCH   5  12
ATOM     12  C   UNL     1       3.511  -0.830  -0.037  0.00  0.00    +0.188 C 
BRANCH  12  13
ATOM     13  C   UNL     1       3.955  -1.113   1.400  0.00  0.00    +0.252 C 
BRANCH  13  14
ATOM     14  O   UNL     1       2.985  -1.942   2.043  0.00  0.00    -0.490 OA
BRANCH  14  18
ATOM     15  C   UNL     1       3.726  -2.995   5.963  0.00  0.00    +0.000 A 
ATOM     16  C   UNL     1       2.579  -3.443   5.333  0.00  0.00    +0.004 A 
ATOM     17  C   UNL     1       2.329  -3.092   4.020  0.00  0.00    +0.045 A 
ATOM     18  C   UNL     1       3.229  -2.289   3.334  0.00  0.00    +0.121 A 
ATOM     19  C   UNL     1       4.381  -1.846   3.967  0.00  0.00    +0.045 A 
ATOM     20  C   UNL     1       4.625  -2.196   5.281  0.00  0.00    +0.004 A 
ENDBRANCH  14  18
ENDBRANCH  13  14
ENDBRANCH  12  13
ENDBRANCH   5  12
ENDBRANCH   1  10
BRANCH   3  21
ATOM     21  C   UNL     1      -2.514  -2.853   0.011  0.00  0.00    +0.181 C 
BRANCH  21  22
ATOM     22  C   UNL     1      -2.221  -4.332   0.000  0.00  0.00    +0.155 A 
ATOM     23  N   UNL     1      -2.087  -5.086  -1.060  0.00  0.00    -0.132 NA
ATOM     24  N   UNL     1      -1.839  -6.301  -0.715  0.00  0.00    -0.129 NA
ATOM     25  C   UNL     1      -1.810  -6.387   0.604  0.00  0.00    +0.161 A 
ATOM     26  N   UNL     1      -2.055  -5.127   1.091  0.00  0.00    -0.285 N 
ATOM     27  C   UNL     1      -2.088  -4.899   2.436  0.00  0.00    +0.107 A 
ATOM     28  C   UNL     1      -1.881  -5.910   3.307  0.00  0.00    +0.071 A 
ATOM     29  C   UNL     1      -1.628  -7.210   2.839  0.00  0.00    +0.017 A 
ATOM     30  C   UNL     1      -1.592  -7.451   1.501  0.00  0.00    +0.049 A 
BRANCH  28  31
ATOM     31  C   UNL     1      -1.922  -5.641   4.789  0.00  0.00    +0.419 C 
ATOM     32  F   UNL     1      -1.681  -6.830   5.485  0.00  0.00    -0.166 F 
ATOM     33  F   UNL     1      -0.940  -4.700   5.119  0.00  0.00    -0.166 F 
ATOM     34  F   UNL     1      -3.181  -5.143   5.139  0.00  0.00    -0.166 F 
ENDBRANCH  28  31
ENDBRANCH  21  22
ENDBRANCH   3  21
TORSDOF 8
