REMARK  Name = ZINC13184515
REMARK  9 active torsions:
REMARK  status: ('A' for Active; 'I' for Inactive)
REMARK    1  A    between atoms: C_1  and  C_2
REMARK    2  A    between atoms: C_2  and  C_3
REMARK    3  A    between atoms: C_6  and  C_9
REMARK    4  A    between atoms: C_9  and  C_11
REMARK    5  A    between atoms: C_9  and  N_16
REMARK    6  A    between atoms: N_16  and  S_17
REMARK    7  A    between atoms: S_17  and  C_20
REMARK    8  A    between atoms: C_23  and  O_28
REMARK    9  A    between atoms: C_24  and  C_26
REMARK                            x       y       z     vdW  Elec       q    Type
REMARK                         _______ _______ _______ _____ _____    ______ ____
ROOT
ATOM      1  N   UNL     1      -1.512  -5.053   0.010  0.00  0.00    -0.178 NA
ATOM      2  H   UNL     1      -1.857  -5.538   0.776  0.00  0.00    +0.149 HD
ENDROOT
BRANCH   1   3
ATOM      3  S   UNL     1       0.063  -4.543  -0.006  0.00  0.00    +0.059 S 
ATOM      4  O   UNL     1       0.608  -4.946  -1.255  0.00  0.00    -0.153 OA
ATOM      5  O   UNL     1       0.631  -4.938   1.236  0.00  0.00    -0.153 OA
BRANCH   3   6
ATOM      6  C   UNL     1       0.039  -2.781  -0.011  0.00  0.00    +0.106 A 
ATOM      7  C   UNL     1       0.041  -2.088   1.188  0.00  0.00    +0.032 A 
ATOM      8  C   UNL     1       0.023  -0.707   1.198  0.00  0.00    +0.048 A 
ATOM      9  C   UNL     1       0.002  -0.004   0.002  0.00  0.00    +0.131 A 
ATOM     10  C   UNL     1      -0.006  -0.702  -1.214  0.00  0.00    +0.106 A 
ATOM     11  C   UNL     1       0.020  -2.099  -1.208  0.00  0.00    +0.047 A 
BRANCH  10  12
ATOM     12  C   UNL     1      -0.035   0.034  -2.491  0.00  0.00    +0.390 C 
ATOM     13  O   UNL     1      -0.052   1.249  -2.492  0.00  0.00    -0.240 OA
ATOM     14  O   UNL     1      -0.042  -0.641  -3.657  0.00  0.00    -0.240 OA
ENDBRANCH  10  12
BRANCH   9  15
ATOM     15  O   UNL     1      -0.016   1.352   0.009  0.00  0.00    -0.506 OA
ATOM     16  H   UNL     1       0.862   1.758   0.003  0.00  0.00    +0.292 HD
ENDBRANCH   9  15
ENDBRANCH   3   6
ENDBRANCH   1   3
BRANCH   1  17
ATOM     17  C   UNL     1      -2.385  -4.773  -1.132  0.00  0.00    +0.143 C 
BRANCH  17  21
ATOM     18  C   UNL     1      -6.359  -4.045   0.255  0.00  0.00    -0.048 A 
ATOM     19  C   UNL     1      -5.835  -3.282  -0.771  0.00  0.00    +0.004 A 
ATOM     20  C   UNL     1      -4.548  -3.517  -1.220  0.00  0.00    +0.006 A 
ATOM     21  C   UNL     1      -3.787  -4.516  -0.643  0.00  0.00    -0.024 A 
ATOM     22  C   UNL     1      -4.313  -5.283   0.380  0.00  0.00    +0.006 A 
ATOM     23  C   UNL     1      -5.597  -5.044   0.832  0.00  0.00    +0.004 A 
BRANCH  18  25
ATOM     24  C   UNL     1      -8.745  -4.647  -0.054  0.00  0.00    +0.009 C 
ATOM     25  C   UNL     1      -7.761  -3.789   0.744  0.00  0.00    +0.032 C 
ENDBRANCH  18  25
ENDBRANCH  17  21
BRANCH  17  26
ATOM     26  C   UNL     1      -2.388  -5.957  -2.065  0.00  0.00    +0.013 A 
ATOM     27  C   UNL     1      -2.379  -5.976  -3.420  0.00  0.00    +0.013 A 
ATOM     28  C   UNL     1      -2.380  -7.194  -4.074  0.00  0.00    +0.008 A 
ATOM     29  C   UNL     1      -2.400  -8.333  -3.340  0.00  0.00    +0.045 A 
ATOM     30  S   UNL     1      -2.411  -7.698  -1.671  0.00  0.00    -0.100 S 
ENDBRANCH  17  26
ENDBRANCH   1  17
TORSDOF 8
