REMARK  Name = ZINC14753599
REMARK  13 active torsions:
REMARK  status: ('A' for Active; 'I' for Inactive)
REMARK    1  A    between atoms: C_1  and  C_2
REMARK    2  A    between atoms: C_2  and  C_3
REMARK    3  A    between atoms: C_2  and  C_4
REMARK    4  A    between atoms: C_4  and  C_5
REMARK    5  A    between atoms: C_5  and  N_6
REMARK    6  A    between atoms: N_6  and  C_7
REMARK    7  A    between atoms: C_9  and  C_20
REMARK    8  A    between atoms: C_11  and  S_13
REMARK    9  A    between atoms: S_13  and  N_16
REMARK   10  A    between atoms: N_16  and  C_17
REMARK   11  A    between atoms: C_17  and  C_18
REMARK   12  A    between atoms: C_17  and  C_19
REMARK   13  A    between atoms: N_22  and  C_23
REMARK                            x       y       z     vdW  Elec       q    Type
REMARK                         _______ _______ _______ _____ _____    ______ ____
ROOT
ATOM      1  C   UNL     1      -0.204   1.220   2.476  0.00  0.00    +0.030 A 
ATOM      2  C   UNL     1       0.935   0.438   2.588  0.00  0.00    +0.036 A 
ATOM      3  C   UNL     1       1.424   0.104   3.850  0.00  0.00    +0.040 A 
ATOM      4  C   UNL     1       0.763   0.559   4.993  0.00  0.00    +0.041 A 
ATOM      5  C   UNL     1      -0.370   1.337   4.871  0.00  0.00    +0.108 A 
ATOM      6  C   UNL     1      -0.852   1.673   3.619  0.00  0.00    +0.051 A 
ENDROOT
BRANCH   3   7
ATOM      7  C   UNL     1       2.638  -0.731   3.979  0.00  0.00    +0.245 C 
ATOM      8  O   UNL     1       3.062  -1.021   5.080  0.00  0.00    -0.270 OA
ATOM      9  N   UNL     1       3.274  -1.169   2.875  0.00  0.00    -0.300 N 
ATOM     10  H   UNL     1       2.935  -0.938   1.996  0.00  0.00    +0.150 HD
BRANCH   9  11
ATOM     11  C   UNL     1       4.476  -1.996   3.002  0.00  0.00    +0.159 C 
ATOM     12  C   UNL     1       4.660  -2.835   1.735  0.00  0.00    +0.032 C 
ATOM     13  C   UNL     1       5.472  -4.085   2.030  0.00  0.00    +0.004 C 
ATOM     14  C   UNL     1       6.914  -3.803   2.409  0.00  0.00    +0.019 C 
ATOM     15  C   UNL     1       6.994  -3.079   3.755  0.00  0.00    +0.104 C 
ATOM     16  N   UNL     1       6.865  -1.632   3.519  0.00  0.00    -0.314 N 
ATOM     17  C   UNL     1       5.690  -1.106   3.168  0.00  0.00    +0.233 C 
ATOM     18  O   UNL     1       5.594   0.088   2.982  0.00  0.00    -0.274 OA
ATOM     19  H   UNL     1       7.639  -1.056   3.620  0.00  0.00    +0.149 HD
ENDBRANCH   9  11
ENDBRANCH   3   7
BRANCH   5  20
ATOM     20  S   UNL     1      -1.201   1.911   6.315  0.00  0.00    +0.059 S 
ATOM     21  O   UNL     1      -2.546   2.166   5.934  0.00  0.00    -0.153 OA
ATOM     22  O   UNL     1      -0.863   1.012   7.362  0.00  0.00    -0.153 OA
BRANCH  20  23
ATOM     23  N   UNL     1      -0.536   3.374   6.714  0.00  0.00    -0.187 NA
ATOM     24  H   UNL     1      -0.046   3.473   7.545  0.00  0.00    +0.148 HD
BRANCH  23  25
ATOM     25  C   UNL     1      -0.687   4.518   5.812  0.00  0.00    +0.070 C 
ATOM     26  C   UNL     1      -0.821   5.801   6.634  0.00  0.00    +0.025 C 
ATOM     27  C   UNL     1       0.541   4.619   4.906  0.00  0.00    +0.025 C 
ENDBRANCH  23  25
ENDBRANCH  20  23
ENDBRANCH   5  20
BRANCH   1  28
ATOM     28  N   UNL     1      -0.698   1.558   1.213  0.00  0.00    -0.344 N 
ATOM     29  H   UNL     1      -1.495   2.106   1.135  0.00  0.00    +0.146 HD
BRANCH  28  30
ATOM     30  C   UNL     1      -0.013   1.086   0.008  0.00  0.00    +0.102 C 
BRANCH  30  31
ATOM     31  C   UNL     1      -0.753   1.593  -1.232  0.00  0.00    +0.021 C 
BRANCH  31  33
ATOM     32  C   UNL     1      -0.124  -0.427  -2.562  0.00  0.00    +0.007 C 
ATOM     33  C   UNL     1      -0.037   1.099  -2.490  0.00  0.00    -0.016 C 
ATOM     34  C   UNL     1      -0.702   1.707  -3.727  0.00  0.00    +0.007 C 
ENDBRANCH  31  33
ENDBRANCH  30  31
ENDBRANCH  28  30
ENDBRANCH   1  28
TORSDOF 9
