REMARK  Name = ZINC19332647
REMARK  5 active torsions:
REMARK  status: ('A' for Active; 'I' for Inactive)
REMARK    1  A    between atoms: C_1  and  C_2
REMARK    2  A    between atoms: C_5  and  S_8
REMARK    3  A    between atoms: S_8  and  N_11
REMARK    4  A    between atoms: N_15  and  C_18
REMARK    5  A    between atoms: C_24  and  C_26
REMARK                            x       y       z     vdW  Elec       q    Type
REMARK                         _______ _______ _______ _____ _____    ______ ____
ROOT
ATOM      1  N   UNL     1       1.651  -4.999  -0.034  0.00  0.00    -0.097 NA
ATOM      2  C   UNL     1       1.956  -6.267  -0.043  0.00  0.00    +0.202 C 
ATOM      3  N   UNL     1       0.986  -7.260  -0.049  0.00  0.00    -0.303 N 
ATOM      4  C   UNL     1       1.232  -8.440   0.796  0.00  0.00    +0.193 C 
ATOM      5  N   UNL     1       2.596  -8.927   0.541  0.00  0.00    -0.268 NA
ATOM      6  C   UNL     1       3.589  -7.872   0.798  0.00  0.00    +0.193 C 
ATOM      7  N   UNL     1       3.272  -6.709  -0.052  0.00  0.00    -0.303 N 
ATOM      8  H   UNL     1       3.950  -6.272  -0.592  0.00  0.00    +0.150 HD
ATOM      9  H   UNL     1       0.182  -7.179  -0.585  0.00  0.00    +0.150 HD
ENDROOT
BRANCH   5  10
ATOM     10  C   UNL     1       2.885 -10.127   1.339  0.00  0.00    +0.062 C 
ATOM     11  C   UNL     1       1.893 -11.233   0.973  0.00  0.00    +0.019 C 
ATOM     12  C   UNL     1       2.193 -12.482   1.804  0.00  0.00    +0.002 C 
ATOM     13  C   UNL     1       3.617 -12.958   1.512  0.00  0.00    +0.000 C 
ATOM     14  C   UNL     1       4.609 -11.852   1.878  0.00  0.00    +0.005 C 
ATOM     15  C   UNL     1       4.309 -10.603   1.047  0.00  0.00    +0.003 C 
ATOM     16  C   UNL     1       4.441 -10.935  -0.440  0.00  0.00    +0.009 C 
ENDBRANCH   5  10
BRANCH   1  17
ATOM     17  S   UNL     1       0.063  -4.530  -0.023  0.00  0.00    +0.102 S 
ATOM     18  O   UNL     1      -0.476  -4.950   1.223  0.00  0.00    -0.146 OA
ATOM     19  O   UNL     1      -0.490  -4.937  -1.267  0.00  0.00    -0.146 OA
BRANCH  17  24
ATOM     20  C   UNL     1      -0.018   1.503   0.010  0.00  0.00    +0.044 C 
ATOM     21  C   UNL     1       0.002  -0.004   0.002  0.00  0.00    -0.050 A 
ATOM     22  C   UNL     1       0.006  -0.689  -1.199  0.00  0.00    +0.005 A 
ATOM     23  C   UNL     1       0.025  -2.071  -1.206  0.00  0.00    +0.029 A 
ATOM     24  C   UNL     1       0.040  -2.768  -0.013  0.00  0.00    +0.113 A 
ATOM     25  C   UNL     1       0.037  -2.084   1.188  0.00  0.00    +0.029 A 
ATOM     26  C   UNL     1       0.023  -0.702   1.195  0.00  0.00    +0.005 A 
ENDBRANCH  17  24
ENDBRANCH   1  17
TORSDOF 3
