REMARK  Name = ZINC66921667
REMARK  10 active torsions:
REMARK  status: ('A' for Active; 'I' for Inactive)
REMARK    1  A    between atoms: C_1  and  C_2
REMARK    2  A    between atoms: C_5  and  O_26
REMARK    3  A    between atoms: C_6  and  N_8
REMARK    4  A    between atoms: C_9  and  C_11
REMARK    5  A    between atoms: C_11  and  C_13
REMARK    6  A    between atoms: C_11  and  N_16
REMARK    7  A    between atoms: C_13  and  C_14
REMARK    8  A    between atoms: C_13  and  C_15
REMARK    9  A    between atoms: C_18  and  C_25
REMARK   10  A    between atoms: C_21  and  C_24
REMARK                            x       y       z     vdW  Elec       q    Type
REMARK                         _______ _______ _______ _____ _____    ______ ____
ROOT
ATOM      1  N   UNL     1      -1.114  -3.188   2.671  0.00  0.00    -0.281 N 
ATOM      2  C   UNL     1      -0.509  -2.422   3.601  0.00  0.00    +0.235 C 
ATOM      3  O   UNL     1      -0.511  -1.215   3.486  0.00  0.00    -0.274 OA
ATOM      4  H   UNL     1      -1.194  -4.145   2.808  0.00  0.00    +0.155 HD
ENDROOT
BRANCH   1  10
ATOM      5  C   UNL     1      -3.113   0.696   0.414  0.00  0.00    +0.044 C 
ATOM      6  C   UNL     1      -2.603  -0.722   0.383  0.00  0.00    -0.048 A 
ATOM      7  C   UNL     1      -2.642  -1.443  -0.796  0.00  0.00    +0.007 A 
ATOM      8  C   UNL     1      -2.176  -2.744  -0.830  0.00  0.00    +0.047 A 
ATOM      9  C   UNL     1      -1.667  -3.329   0.318  0.00  0.00    +0.138 A 
ATOM     10  C   UNL     1      -1.627  -2.602   1.506  0.00  0.00    +0.076 A 
ATOM     11  C   UNL     1      -2.092  -1.295   1.532  0.00  0.00    +0.030 A 
BRANCH   9  12
ATOM     12  O   UNL     1      -1.209  -4.608   0.286  0.00  0.00    -0.505 OA
ATOM     13  H   UNL     1      -0.270  -4.685   0.070  0.00  0.00    +0.292 HD
ENDBRANCH   9  12
ENDBRANCH   1  10
BRANCH   2  14
ATOM     14  C   UNL     1       0.168  -3.066   4.783  0.00  0.00    +0.146 C 
BRANCH  14  15
ATOM     15  N   UNL     1       0.138  -2.144   5.926  0.00  0.00    -0.286 NA
ATOM     16  C   UNL     1       1.072  -1.027   5.728  0.00  0.00    +0.116 C 
ATOM     17  C   UNL     1       1.052  -0.126   6.965  0.00  0.00    +0.130 C 
ATOM     18  O   UNL     1      -0.285   0.322   7.201  0.00  0.00    -0.371 OA
ATOM     19  C   UNL     1      -1.222  -0.741   7.400  0.00  0.00    +0.130 C 
ATOM     20  C   UNL     1      -1.225  -1.648   6.166  0.00  0.00    +0.116 C 
ATOM     21  C   UNL     1      -2.621  -0.157   7.609  0.00  0.00    +0.039 C 
ATOM     22  C   UNL     1       1.963   1.081   6.733  0.00  0.00    +0.039 C 
ENDBRANCH  14  15
BRANCH  14  23
ATOM     23  C   UNL     1       1.621  -3.387   4.425  0.00  0.00    +0.009 C 
ATOM     24  C   UNL     1       2.324  -3.993   5.642  0.00  0.00    +0.009 C 
ATOM     25  C   UNL     1       1.652  -4.387   3.268  0.00  0.00    +0.009 C 
ENDBRANCH  14  23
ENDBRANCH   2  14
TORSDOF 5
