REMARK  Name = ZINC51116110
REMARK  5 active torsions:
REMARK  status: ('A' for Active; 'I' for Inactive)
REMARK    1  A    between atoms: C_1  and  C_2
REMARK    2  A    between atoms: C_2  and  C_4
REMARK    3  A    between atoms: C_2  and  N_11
REMARK    4  A    between atoms: C_12  and  C_14
REMARK    5  A    between atoms: N_20  and  N_21
REMARK                            x       y       z     vdW  Elec       q    Type
REMARK                         _______ _______ _______ _____ _____    ______ ____
ROOT
ATOM      1  N   UNL     1       0.711  -0.489   1.189  0.00  0.00    -0.303 N 
ATOM      2  C   UNL     1       2.054  -0.600   1.174  0.00  0.00    +0.265 C 
ATOM      3  O   UNL     1       2.677  -0.297   0.175  0.00  0.00    -0.268 OA
ATOM      4  H   UNL     1       0.213  -0.731   1.986  0.00  0.00    +0.150 HD
ENDROOT
BRANCH   2   5
ATOM      5  C   UNL     1       2.769  -1.090   2.372  0.00  0.00    +0.148 A 
ATOM      6  C   UNL     1       4.165  -1.200   2.360  0.00  0.00    +0.038 A 
ATOM      7  C   UNL     1       4.789  -1.662   3.504  0.00  0.00    +0.049 A 
ATOM      8  C   UNL     1       3.990  -1.991   4.600  0.00  0.00    +0.155 A 
ATOM      9  N   UNL     1       2.671  -1.855   4.522  0.00  0.00    -0.132 NA
ATOM     10  N   UNL     1       2.090  -1.421   3.463  0.00  0.00    -0.143 NA
ATOM     11  N   UNL     1       4.571  -2.459   5.767  0.00  0.00    -0.266 N 
ATOM     12  H   UNL     1       5.535  -2.558   5.823  0.00  0.00    +0.167 HD
BRANCH  11  13
ATOM     13  N   UNL     1       3.788  -2.780   6.839  0.00  0.00    -0.255 NA
ATOM     14  H   UNL     1       4.349  -3.104   7.612  0.00  0.00    +0.140 HD
ATOM     15  H   UNL     1       3.212  -1.998   7.113  0.00  0.00    +0.140 HD
ENDBRANCH  11  13
ENDBRANCH   2   5
BRANCH   1  17
ATOM     16  C   UNL     1      -0.019   1.526   0.010  0.00  0.00    +0.033 C 
ATOM     17  C   UNL     1       0.002  -0.004   0.002  0.00  0.00    +0.100 C 
BRANCH  17  18
ATOM     18  C   UNL     1      -1.412  -0.526   0.013  0.00  0.00    -0.027 A 
ATOM     19  C   UNL     1      -2.123  -0.571   1.198  0.00  0.00    +0.007 A 
ATOM     20  C   UNL     1      -3.419  -1.049   1.208  0.00  0.00    +0.020 A 
ATOM     21  C   UNL     1      -4.006  -1.483   0.032  0.00  0.00    +0.041 A 
ATOM     22  C   UNL     1      -3.294  -1.437  -1.153  0.00  0.00    +0.020 A 
ATOM     23  C   UNL     1      -1.999  -0.954  -1.163  0.00  0.00    +0.007 A 
ATOM     24 CL   UNL     1      -5.634  -2.084   0.045  0.00  0.00    -0.084 Cl
ENDBRANCH  17  18
ENDBRANCH   1  17
TORSDOF 4
