REMARK  Name = ZINC10904391
REMARK  9 active torsions:
REMARK  status: ('A' for Active; 'I' for Inactive)
REMARK    1  A    between atoms: C_1  and  O_2
REMARK    2  A    between atoms: O_2  and  C_3
REMARK    3  A    between atoms: C_5  and  C_14
REMARK    4  A    between atoms: C_8  and  O_9
REMARK    5  A    between atoms: O_9  and  C_10
REMARK    6  A    between atoms: C_10  and  C_11
REMARK    7  A    between atoms: C_14  and  O_16
REMARK    8  A    between atoms: O_16  and  C_17
REMARK    9  A    between atoms: C_17  and  C_18
REMARK                            x       y       z     vdW  Elec       q    Type
REMARK                         _______ _______ _______ _____ _____    ______ ____
ROOT
ATOM      1  O   UNL     1      -3.311   7.318   0.964  0.00  0.00    -0.452 OA
ENDROOT
BRANCH   1   2
ATOM      2  C   UNL     1      -4.310   8.222   0.981  0.00  0.00    +0.340 C 
ATOM      3  O   UNL     1      -5.424   7.903   0.614  0.00  0.00    -0.245 OA
BRANCH   2   6
ATOM      4  C   UNL     1      -4.842  11.823   1.902  0.00  0.00    +0.162 A 
ATOM      5  C   UNL     1      -5.088  10.536   1.466  0.00  0.00    +0.064 A 
ATOM      6  C   UNL     1      -4.053   9.597   1.447  0.00  0.00    +0.063 A 
ATOM      7  C   UNL     1      -2.774   9.964   1.875  0.00  0.00    +0.019 A 
ATOM      8  C   UNL     1      -2.534  11.251   2.304  0.00  0.00    +0.050 A 
ATOM      9  C   UNL     1      -3.563  12.183   2.323  0.00  0.00    +0.163 A 
BRANCH   4  11
ATOM     10  C   UNL     1      -7.133  12.301   1.476  0.00  0.00    +0.277 C 
ATOM     11  O   UNL     1      -5.847  12.739   1.922  0.00  0.00    -0.491 OA
ENDBRANCH   4  11
BRANCH   9  12
ATOM     12  O   UNL     1      -3.322  13.449   2.753  0.00  0.00    -0.479 OA
BRANCH  12  13
ATOM     13  C   UNL     1      -1.989  13.750   3.169  0.00  0.00    +0.324 C 
BRANCH  13  14
ATOM     14  C   UNL     1      -1.913  15.189   3.609  0.00  0.00    +0.248 C 
ATOM     15  O   UNL     1      -2.904  15.888   3.570  0.00  0.00    -0.272 OA
ATOM     16  N   UNL     1      -0.745  15.700   4.046  0.00  0.00    -0.327 N 
ATOM     17  H   UNL     1       0.047  15.141   4.078  0.00  0.00    +0.145 HD
ATOM     18  H   UNL     1      -0.697  16.626   4.330  0.00  0.00    +0.145 HD
ENDBRANCH  13  14
ENDBRANCH  12  13
ENDBRANCH   9  12
ENDBRANCH   2   6
ENDBRANCH   1   2
BRANCH   1  19
ATOM     19  C   UNL     1      -3.637   5.984   0.493  0.00  0.00    +0.328 C 
BRANCH  19  20
ATOM     20  C   UNL     1      -2.404   5.118   0.544  0.00  0.00    +0.262 C 
ATOM     21  O   UNL     1      -1.555   5.321   1.387  0.00  0.00    -0.271 OA
ATOM     22  N   UNL     1      -2.245   4.119  -0.345  0.00  0.00    -0.235 N 
ATOM     23  C   UNL     1      -3.321   3.824  -1.182  0.00  0.00    +0.055 A 
ATOM     24  C   UNL     1      -4.603   4.181  -0.777  0.00  0.00    +0.025 A 
ATOM     25  C   UNL     1      -5.691   3.911  -1.585  0.00  0.00    +0.002 A 
ATOM     26  C   UNL     1      -5.514   3.284  -2.804  0.00  0.00    +0.001 A 
ATOM     27  C   UNL     1      -4.245   2.924  -3.216  0.00  0.00    +0.017 A 
ATOM     28  C   UNL     1      -3.147   3.185  -2.406  0.00  0.00    +0.035 A 
ATOM     29  S   UNL     1      -1.539   2.716  -2.948  0.00  0.00    -0.086 S 
ATOM     30  C   UNL     1      -0.562   2.774  -1.483  0.00  0.00    +0.035 A 
ATOM     31  C   UNL     1      -1.019   3.457  -0.359  0.00  0.00    +0.057 A 
ATOM     32  C   UNL     1      -0.230   3.484   0.786  0.00  0.00    +0.045 A 
ATOM     33  C   UNL     1       0.995   2.843   0.806  0.00  0.00    +0.043 A 
ATOM     34  C   UNL     1       1.445   2.168  -0.314  0.00  0.00    +0.021 A 
ATOM     35  C   UNL     1       0.668   2.133  -1.456  0.00  0.00    +0.018 A 
ATOM     36 CL   UNL     1       1.970   2.885   2.242  0.00  0.00    -0.083 Cl
ENDBRANCH  19  20
ENDBRANCH   1  19
TORSDOF 8
