REMARK  Name = ZINC32597623
REMARK  6 active torsions:
REMARK  status: ('A' for Active; 'I' for Inactive)
REMARK    1  A    between atoms: C_1  and  C_2
REMARK    2  A    between atoms: N_13  and  C_17
REMARK    3  A    between atoms: C_17  and  C_18
REMARK    4  A    between atoms: C_18  and  C_19
REMARK    5  A    between atoms: C_23  and  C_24
REMARK    6  A    between atoms: C_23  and  C_25
REMARK                            x       y       z     vdW  Elec       q    Type
REMARK                         _______ _______ _______ _____ _____    ______ ____
ROOT
ATOM      1  C   UNL     1       6.497   1.210  -0.747  0.00  0.00    +0.007 C 
ATOM      2  C   UNL     1       6.047   1.306   0.712  0.00  0.00    -0.013 C 
ATOM      3  C   UNL     1       6.186   2.751   1.195  0.00  0.00    +0.003 C 
ATOM      4  C   UNL     1       5.312   3.664   0.333  0.00  0.00    +0.006 C 
ATOM      5  C   UNL     1       3.851   3.224   0.445  0.00  0.00    +0.013 C 
ATOM      6  C   UNL     1       3.713   1.782  -0.036  0.00  0.00    +0.033 C 
ATOM      7  C   UNL     1       4.585   0.867   0.825  0.00  0.00    +0.012 C 
ATOM      8  C   UNL     1       2.296   1.323  -0.017  0.00  0.00    +0.028 A 
ATOM      9  C   UNL     1       1.161   2.054   0.002  0.00  0.00    +0.090 A 
ATOM     10  N   UNL     1      -0.016   1.344   0.009  0.00  0.00    -0.296 N 
ATOM     11  C   UNL     1       0.002  -0.004   0.002  0.00  0.00    +0.292 A 
ATOM     12  O   UNL     1      -0.936  -0.781   0.009  0.00  0.00    -0.259 OA
ATOM     13  S   UNL     1       1.702  -0.351  -0.020  0.00  0.00    -0.030 S 
ATOM     14  S   UNL     1       1.232   3.834   0.022  0.00  0.00    -0.100 S 
ATOM     15  C   UNL     1       2.973   4.148  -0.404  0.00  0.00    +0.020 C 
ATOM     16  C   UNL     1       3.321   5.608  -0.106  0.00  0.00    +0.023 C 
ATOM     17  C   UNL     1       3.201   3.856  -1.889  0.00  0.00    +0.023 C 
ENDROOT
BRANCH  10  18
ATOM     18  C   UNL     1      -1.297   2.056   0.019  0.00  0.00    +0.138 C 
BRANCH  18  19
ATOM     19  C   UNL     1      -1.735   2.296   1.465  0.00  0.00    +0.147 C 
BRANCH  19  20
ATOM     20  C   UNL     1      -3.052   3.028   1.476  0.00  0.00    +0.358 C 
ATOM     21  O   UNL     1      -3.586   3.327   0.433  0.00  0.00    -0.246 OA
ATOM     22  O   UNL     1      -3.633   3.348   2.643  0.00  0.00    -0.246 OA
ENDBRANCH  19  20
ENDBRANCH  18  19
ENDBRANCH  10  18
TORSDOF 3
