REMARK  Name = ZINC52838085
REMARK  3 active torsions:
REMARK  status: ('A' for Active; 'I' for Inactive)
REMARK    1  A    between atoms: C_6  and  C_7
REMARK    2  A    between atoms: C_8  and  N_13
REMARK    3  A    between atoms: N_9  and  N_12
REMARK                            x       y       z     vdW  Elec       q    Type
REMARK                         _______ _______ _______ _____ _____    ______ ____
ROOT
ATOM      1  C   UNL     1      -1.269  -0.765   0.011  0.00  0.00    +0.112 A 
ATOM      2  C   UNL     1      -1.501  -1.954  -0.623  0.00  0.00    +0.141 A 
ATOM      3  N   UNL     1      -2.799  -2.295  -0.350  0.00  0.00    -0.242 N 
ATOM      4  C   UNL     1      -3.320  -1.312   0.436  0.00  0.00    +0.220 A 
ATOM      5  N   UNL     1      -2.405  -0.410   0.650  0.00  0.00    -0.232 NA
ENDROOT
BRANCH   1  11
ATOM      6  C   UNL     1      -0.017   1.390   0.010  0.00  0.00    +0.013 A 
ATOM      7  C   UNL     1       1.170   2.095   0.002  0.00  0.00    +0.040 A 
ATOM      8  C   UNL     1       2.379   1.419  -0.013  0.00  0.00    +0.137 A 
ATOM      9  C   UNL     1       2.404   0.033  -0.021  0.00  0.00    +0.054 A 
ATOM     10  C   UNL     1       1.222  -0.680  -0.014  0.00  0.00    +0.028 A 
ATOM     11  C   UNL     1       0.002  -0.004   0.002  0.00  0.00    +0.005 A 
ATOM     12 BR   UNL     1       4.058  -0.882  -0.043  0.00  0.00    -0.047 Br
ATOM     13  F   UNL     1       3.538   2.113  -0.020  0.00  0.00    -0.204 F 
ENDBRANCH   1  11
BRANCH   3  14
ATOM     14  N   UNL     1      -3.450  -3.414  -0.787  0.00  0.00    -0.296 N 
ATOM     15  H   UNL     1      -3.339  -4.175  -0.133  0.00  0.00    +0.163 HD
ATOM     16  H   UNL     1      -4.426  -3.221  -0.955  0.00  0.00    +0.163 HD
ENDBRANCH   3  14
BRANCH   2  17
ATOM     17  N   UNL     1      -0.596  -2.676  -1.393  0.00  0.00    -0.342 N 
ATOM     18  H   UNL     1       0.305  -2.341  -1.524  0.00  0.00    +0.144 HD
ATOM     19  H   UNL     1      -0.866  -3.514  -1.800  0.00  0.00    +0.144 HD
ENDBRANCH   2  17
TORSDOF 3
