REMARK  Name = ZINC29744607
REMARK  7 active torsions:
REMARK  status: ('A' for Active; 'I' for Inactive)
REMARK    1  A    between atoms: C_1  and  C_2
REMARK    2  A    between atoms: C_2  and  C_4
REMARK    3  A    between atoms: C_2  and  S_20
REMARK    4  A    between atoms: N_9  and  C_10
REMARK    5  A    between atoms: S_20  and  C_21
REMARK    6  A    between atoms: N_25  and  C_26
REMARK    7  A    between atoms: C_26  and  C_27
REMARK                            x       y       z     vdW  Elec       q    Type
REMARK                         _______ _______ _______ _____ _____    ______ ____
ROOT
ATOM      1  C   UNL     1       4.528  -2.878  -0.180  0.00  0.00    +0.234 C 
ATOM      2  O   UNL     1       4.011  -3.939   0.098  0.00  0.00    -0.274 OA
ATOM      3  N   UNL     1       5.804  -2.843  -0.614  0.00  0.00    -0.239 N 
ATOM      4  C   UNL     1       6.505  -3.987  -0.737  0.00  0.00    +0.306 C 
ATOM      5  O   UNL     1       5.987  -5.051  -0.458  0.00  0.00    -0.252 OA
ATOM      6  N   UNL     1       7.781  -3.952  -1.171  0.00  0.00    -0.294 N 
ATOM      7  H   UNL     1       6.272  -1.881  -0.866  0.00  0.00    +0.159 HD
ATOM      8  H   UNL     1       8.250  -2.990  -1.423  0.00  0.00    +0.151 HD
ENDROOT
BRANCH   6   9
ATOM      9  C   UNL     1       8.544  -5.196  -1.305  0.00  0.00    +0.037 C 
ATOM     10  C   UNL     1       8.634  -5.888   0.057  0.00  0.00    +0.029 C 
ATOM     11  C   UNL     1       9.431  -7.187  -0.084  0.00  0.00    -0.008 C 
ATOM     12  C   UNL     1      10.839  -6.869  -0.589  0.00  0.00    +0.007 C 
ATOM     13  C   UNL     1      10.749  -6.177  -1.951  0.00  0.00    -0.008 C 
ATOM     14  C   UNL     1       9.952  -4.878  -1.811  0.00  0.00    +0.029 C 
ATOM     15  C   UNL     1      10.045  -7.101  -2.947  0.00  0.00    +0.007 C 
ATOM     16  C   UNL     1       8.637  -7.419  -2.441  0.00  0.00    -0.008 C 
ATOM     17  C   UNL     1       8.728  -8.111  -1.080  0.00  0.00    +0.007 C 
ATOM     18  C   UNL     1       7.840  -6.120  -2.301  0.00  0.00    +0.029 C 
ENDBRANCH   6   9
BRANCH   1  20
ATOM     19  C   UNL     1       4.128  -0.904   1.265  0.00  0.00    +0.029 C 
ATOM     20  C   UNL     1       3.744  -1.599  -0.042  0.00  0.00    +0.137 C 
BRANCH  20  21
ATOM     21  S   UNL     1       1.973  -1.976  -0.027  0.00  0.00    -0.072 S 
BRANCH  21  22
ATOM     22  C   UNL     1       1.313  -0.342  -0.012  0.00  0.00    +0.210 A 
ATOM     23  N   UNL     1       2.001   0.779  -0.013  0.00  0.00    -0.101 NA
ATOM     24  N   UNL     1       1.212   1.792   0.000  0.00  0.00    -0.022 NA
ATOM     25  N   UNL     1      -0.017   1.402   0.010  0.00  0.00    -0.043 NA
ATOM     26  N   UNL     1       0.002  -0.004   0.002  0.00  0.00    -0.215 N 
BRANCH  26  27
ATOM     27  C   UNL     1      -1.150  -0.909   0.009  0.00  0.00    +0.190 C 
BRANCH  27  28
ATOM     28  C   UNL     1      -1.559  -1.213  -1.409  0.00  0.00    +0.011 A 
ATOM     29  C   UNL     1      -1.140  -2.212  -2.224  0.00  0.00    +0.013 A 
ATOM     30  C   UNL     1      -1.659  -2.297  -3.502  0.00  0.00    +0.008 A 
ATOM     31  C   UNL     1      -2.571  -1.379  -3.904  0.00  0.00    +0.045 A 
ATOM     32  S   UNL     1      -2.727  -0.353  -2.451  0.00  0.00    -0.100 S 
ENDBRANCH  27  28
ENDBRANCH  26  27
ENDBRANCH  21  22
ENDBRANCH  20  21
ENDBRANCH   1  20
TORSDOF 6
