REMARK  Name = ZINC44880043
REMARK  11 active torsions:
REMARK  status: ('A' for Active; 'I' for Inactive)
REMARK    1  A    between atoms: C_1  and  C_2
REMARK    2  A    between atoms: C_4  and  C_8
REMARK    3  A    between atoms: C_5  and  C_7
REMARK    4  A    between atoms: C_8  and  C_10
REMARK    5  A    between atoms: C_8  and  N_11
REMARK    6  A    between atoms: C_12  and  C_14
REMARK    7  A    between atoms: C_14  and  C_16
REMARK    8  A    between atoms: C_14  and  C_19
REMARK    9  A    between atoms: C_16  and  C_17
REMARK   10  A    between atoms: C_16  and  C_18
REMARK   11  A    between atoms: N_20  and  O_21
REMARK                            x       y       z     vdW  Elec       q    Type
REMARK                         _______ _______ _______ _____ _____    ______ ____
ROOT
ATOM      1  N   UNL     1      -3.096  -2.699   0.261  0.00  0.00    -0.308 N 
ATOM      2  C   UNL     1      -3.579  -3.771   0.919  0.00  0.00    +0.224 C 
ATOM      3  O   UNL     1      -2.945  -4.804   0.944  0.00  0.00    -0.275 OA
ATOM      4  H   UNL     1      -3.636  -1.897   0.176  0.00  0.00    +0.149 HD
ENDROOT
BRANCH   1   5
ATOM      5  C   UNL     1      -1.754  -2.743  -0.325  0.00  0.00    +0.103 C 
ATOM      6  C   UNL     1      -1.825  -3.380  -1.714  0.00  0.00    +0.033 C 
BRANCH   5  10
ATOM      7  C   UNL     1      -1.425   2.333  -0.607  0.00  0.00    +0.086 C 
ATOM      8  C   UNL     1      -1.081   0.866  -0.563  0.00  0.00    +0.103 A 
ATOM      9  C   UNL     1      -1.960  -0.144  -0.438  0.00  0.00    +0.050 A 
ATOM     10  C   UNL     1      -1.210  -1.343  -0.442  0.00  0.00    +0.013 A 
ATOM     11  C   UNL     1       0.083  -0.993  -0.569  0.00  0.00    +0.107 A 
ATOM     12  O   UNL     1       0.154   0.346  -0.648  0.00  0.00    -0.465 OA
ATOM     13  C   UNL     1       1.252  -1.942  -0.620  0.00  0.00    +0.086 C 
ENDBRANCH   5  10
ENDBRANCH   1   5
BRANCH   2  14
ATOM     14  C   UNL     1      -4.909  -3.686   1.624  0.00  0.00    +0.144 C 
BRANCH  14  15
ATOM     15  C   UNL     1      -5.564  -5.043   1.627  0.00  0.00    +0.144 C 
ATOM     16  N   UNL     1      -5.423  -5.826   2.644  0.00  0.00    -0.076 NA
ATOM     17  N   UNL     1      -6.312  -5.449   0.544  0.00  0.00    -0.343 N 
ATOM     18  H   UNL     1      -6.418  -4.861  -0.220  0.00  0.00    +0.144 HD
ATOM     19  H   UNL     1      -6.733  -6.323   0.546  0.00  0.00    +0.144 HD
BRANCH  16  20
ATOM     20  O   UNL     1      -6.037  -7.102   2.647  0.00  0.00    -0.408 OA
ATOM     21  H   UNL     1      -5.875  -7.615   3.451  0.00  0.00    +0.328 HD
ENDBRANCH  16  20
ENDBRANCH  14  15
BRANCH  14  22
ATOM     22  C   UNL     1      -4.694  -3.220   3.065  0.00  0.00    +0.002 C 
ATOM     23  C   UNL     1      -3.904  -1.910   3.066  0.00  0.00    +0.008 C 
ATOM     24  C   UNL     1      -6.050  -2.998   3.738  0.00  0.00    +0.008 C 
ENDBRANCH  14  22
ENDBRANCH   2  14
TORSDOF 6
