REMARK  Name = ZINC09359707
REMARK  6 active torsions:
REMARK  status: ('A' for Active; 'I' for Inactive)
REMARK    1  A    between atoms: C_1  and  C_2
REMARK    2  A    between atoms: C_2  and  C_23
REMARK    3  A    between atoms: N_3  and  N_4
REMARK    4  A    between atoms: C_5  and  C_7
REMARK    5  A    between atoms: C_8  and  C_18
REMARK    6  A    between atoms: C_27  and  O_29
REMARK                            x       y       z     vdW  Elec       q    Type
REMARK                         _______ _______ _______ _____ _____    ______ ____
ROOT
ATOM      1  C   UNL     1       0.046   0.083   4.779  0.00  0.00    +0.177 A 
ATOM      2  C   UNL     1       0.072  -0.492   6.050  0.00  0.00    +0.115 A 
ATOM      3  N   UNL     1       0.064   0.551   6.937  0.00  0.00    -0.187 N 
ATOM      4  N   UNL     1       0.033   1.726   6.175  0.00  0.00    -0.058 NA
ATOM      5  N   UNL     1       0.030   1.418   4.926  0.00  0.00    -0.124 NA
ATOM      6  C   UNL     1       0.082   0.461   8.332  0.00  0.00    +0.241 A 
ATOM      7  C   UNL     1       0.067   1.591   9.265  0.00  0.00    +0.206 A 
ATOM      8  N   UNL     1       0.092   1.120  10.481  0.00  0.00    -0.032 NA
ATOM      9  O   UNL     1       0.123  -0.294  10.398  0.00  0.00    -0.239 OA
ATOM     10  N   UNL     1       0.109  -0.643   9.025  0.00  0.00    -0.027 NA
ATOM     11  N   UNL     1       0.033   2.936   8.914  0.00  0.00    -0.337 N 
ATOM     12  H   UNL     1       0.016   3.193   7.979  0.00  0.00    +0.144 HD
ATOM     13  H   UNL     1       0.025   3.618   9.604  0.00  0.00    +0.144 HD
ENDROOT
BRANCH   2  14
ATOM     14  C   UNL     1       0.100  -1.924   6.371  0.00  0.00    +0.040 A 
ATOM     15  C   UNL     1      -0.644  -2.956   5.826  0.00  0.00    +0.018 A 
ATOM     16  C   UNL     1      -0.436  -4.231   6.296  0.00  0.00    +0.008 A 
ATOM     17  C   UNL     1       0.486  -4.438   7.273  0.00  0.00    +0.046 A 
ATOM     18  S   UNL     1       1.110  -2.791   7.562  0.00  0.00    -0.095 S 
ENDBRANCH   2  14
BRANCH   1  20
ATOM     19  N   UNL     1       0.024   0.035   2.339  0.00  0.00    -0.201 N 
ATOM     20  C   UNL     1       0.044  -0.645   3.503  0.00  0.00    +0.286 C 
ATOM     21  O   UNL     1       0.060  -1.862   3.496  0.00  0.00    -0.267 OA
ATOM     22  H   UNL     1       0.011   1.005   2.345  0.00  0.00    +0.178 HD
BRANCH  19  25
ATOM     23  C   UNL     1      -0.018   1.503   0.010  0.00  0.00    +0.068 C 
ATOM     24  C   UNL     1       0.002  -0.004   0.002  0.00  0.00    +0.063 C 
ATOM     25  N   UNL     1       0.022  -0.659   1.122  0.00  0.00    -0.184 NA
BRANCH  24  26
ATOM     26  C   UNL     1      -0.000  -0.735  -1.279  0.00  0.00    +0.001 A 
ATOM     27  C   UNL     1      -0.015  -0.032  -2.487  0.00  0.00    +0.010 A 
ATOM     28  C   UNL     1      -0.017  -0.719  -3.683  0.00  0.00    +0.004 A 
ATOM     29  C   UNL     1      -0.003  -2.102  -3.692  0.00  0.00    +0.045 A 
ATOM     30  C   UNL     1       0.011  -2.809  -2.497  0.00  0.00    +0.117 A 
ATOM     31  C   UNL     1       0.019  -2.130  -1.290  0.00  0.00    +0.055 A 
BRANCH  30  32
ATOM     32  O   UNL     1       0.024  -4.168  -2.512  0.00  0.00    -0.507 OA
ATOM     33  H   UNL     1       0.911  -4.553  -2.522  0.00  0.00    +0.292 HD
ENDBRANCH  30  32
ENDBRANCH  24  26
ENDBRANCH  19  25
ENDBRANCH   1  20
TORSDOF 5
