REMARK  Name = ZINC58410184
REMARK  8 active torsions:
REMARK  status: ('A' for Active; 'I' for Inactive)
REMARK    1  A    between atoms: C_1  and  C_2
REMARK    2  A    between atoms: C_2  and  O_3
REMARK    3  A    between atoms: O_3  and  C_4
REMARK    4  A    between atoms: C_4  and  C_6
REMARK    5  A    between atoms: C_6  and  N_12
REMARK    6  A    between atoms: C_13  and  C_15
REMARK    7  A    between atoms: C_16  and  C_26
REMARK    8  A    between atoms: N_22  and  C_25
REMARK                            x       y       z     vdW  Elec       q    Type
REMARK                         _______ _______ _______ _____ _____    ______ ____
ROOT
ATOM      1  N   UNL     1      -3.784  -1.576  -0.763  0.00  0.00    -0.295 N 
ATOM      2  C   UNL     1      -3.978  -0.292  -0.402  0.00  0.00    +0.252 C 
ATOM      3  O   UNL     1      -3.404   0.161   0.571  0.00  0.00    -0.270 OA
ATOM      4  H   UNL     1      -4.241  -1.936  -1.538  0.00  0.00    +0.150 HD
ENDROOT
BRANCH   2   5
ATOM      5  C   UNL     1      -4.882   0.560  -1.182  0.00  0.00    +0.079 A 
ATOM      6  C   UNL     1      -5.201   1.871  -0.981  0.00  0.00    -0.017 A 
ATOM      7  C   UNL     1      -6.093   2.510  -1.845  0.00  0.00    +0.076 A 
ATOM      8  C   UNL     1      -6.609   1.715  -2.894  0.00  0.00    +0.116 A 
ATOM      9  S   UNL     1      -5.832   0.141  -2.634  0.00  0.00    -0.064 S 
ATOM     10  N   UNL     1      -7.464   2.201  -3.785  0.00  0.00    -0.230 NA
ATOM     11  C   UNL     1      -7.873   3.440  -3.736  0.00  0.00    +0.203 A 
ATOM     12  N   UNL     1      -7.447   4.298  -2.777  0.00  0.00    -0.302 N 
ATOM     13  C   UNL     1      -6.579   3.908  -1.823  0.00  0.00    +0.262 A 
ATOM     14  O   UNL     1      -6.203   4.687  -0.964  0.00  0.00    -0.267 OA
ATOM     15  C   UNL     1      -7.942   5.677  -2.776  0.00  0.00    +0.153 C 
ATOM     16  C   UNL     1      -4.593   2.628   0.172  0.00  0.00    +0.046 C 
ENDBRANCH   2   5
BRANCH   1  17
ATOM     17  C   UNL     1      -2.881  -2.427   0.017  0.00  0.00    +0.132 C 
ATOM     18  C   UNL     1      -3.385  -2.520   1.458  0.00  0.00    +0.037 C 
ATOM     19  C   UNL     1      -4.791  -3.124   1.468  0.00  0.00    +0.003 C 
ATOM     20  C   UNL     1      -4.750  -4.523   0.851  0.00  0.00    +0.000 C 
ATOM     21  C   UNL     1      -4.245  -4.430  -0.591  0.00  0.00    +0.003 C 
ATOM     22  C   UNL     1      -2.839  -3.826  -0.601  0.00  0.00    +0.037 C 
BRANCH  17  23
ATOM     23  C   UNL     1      -1.496  -1.832   0.006  0.00  0.00    +0.331 C 
ATOM     24  O   UNL     1      -0.528  -2.555  -0.007  0.00  0.00    -0.248 OA
BRANCH  23  25
ATOM     25  O   UNL     1      -1.339  -0.499   0.012  0.00  0.00    -0.463 OA
BRANCH  25  27
ATOM     26  C   UNL     1      -0.019   1.526   0.010  0.00  0.00    +0.048 C 
ATOM     27  C   UNL     1       0.002  -0.004   0.002  0.00  0.00    +0.229 C 
ENDBRANCH  25  27
ENDBRANCH  23  25
ENDBRANCH  17  23
ENDBRANCH   1  17
TORSDOF 5
