REMARK  Name = ZINC37338848
REMARK  6 active torsions:
REMARK  status: ('A' for Active; 'I' for Inactive)
REMARK    1  A    between atoms: C_3  and  C_11
REMARK    2  A    between atoms: C_6  and  C_7
REMARK    3  A    between atoms: N_8  and  O_9
REMARK    4  A    between atoms: C_18  and  C_20
REMARK    5  A    between atoms: C_20  and  C_21
REMARK    6  A    between atoms: C_21  and  O_22
REMARK                            x       y       z     vdW  Elec       q    Type
REMARK                         _______ _______ _______ _____ _____    ______ ____
ROOT
ATOM      1  C   UNL     1       0.250   1.140   1.664  0.00  0.00    +0.012 A 
ATOM      2  C   UNL     1       1.401   1.869   1.461  0.00  0.00    +0.014 A 
ATOM      3  C   UNL     1       2.432   1.342   0.679  0.00  0.00    +0.037 A 
ATOM      4  C   UNL     1       2.294   0.077   0.104  0.00  0.00    +0.014 A 
ATOM      5  C   UNL     1       1.143  -0.650   0.307  0.00  0.00    +0.012 A 
ATOM      6  C   UNL     1       0.114  -0.124   1.089  0.00  0.00    +0.018 A 
ENDROOT
BRANCH   3   7
ATOM      7  C   UNL     1       3.667   2.124   0.460  0.00  0.00    +0.247 C 
ATOM      8  O   UNL     1       3.615   3.336   0.391  0.00  0.00    -0.270 OA
ATOM      9  N   UNL     1       4.851   1.492   0.339  0.00  0.00    -0.294 N 
ATOM     10  C   UNL     1       4.924   0.025   0.369  0.00  0.00    +0.108 C 
ATOM     11  C   UNL     1       5.939  -0.396   1.437  0.00  0.00    +0.019 C 
ATOM     12  C   UNL     1       7.277   0.294   1.164  0.00  0.00    +0.003 C 
ATOM     13  C   UNL     1       7.096   1.812   1.242  0.00  0.00    +0.022 C 
ATOM     14  C   UNL     1       6.094   2.257   0.166  0.00  0.00    +0.078 C 
BRANCH  14  15
ATOM     15  C   UNL     1       5.802   3.751   0.322  0.00  0.00    +0.050 C 
BRANCH  15  16
ATOM     16  C   UNL     1       7.103   4.543   0.179  0.00  0.00    +0.157 C 
BRANCH  16  17
ATOM     17  O   UNL     1       6.815   5.942   0.206  0.00  0.00    -0.395 OA
ATOM     18  H   UNL     1       7.596   6.506   0.120  0.00  0.00    +0.209 HD
ENDBRANCH  16  17
ENDBRANCH  15  16
ENDBRANCH  14  15
ENDBRANCH   3   7
BRANCH   6  19
ATOM     19  C   UNL     1      -1.124  -0.906   1.308  0.00  0.00    +0.162 C 
ATOM     20  N   UNL     1      -2.083  -0.416   2.037  0.00  0.00    -0.072 NA
ATOM     21  N   UNL     1      -1.260  -2.161   0.737  0.00  0.00    -0.340 N 
ATOM     22  H   UNL     1      -0.544  -2.527   0.194  0.00  0.00    +0.144 HD
ATOM     23  H   UNL     1      -2.070  -2.674   0.881  0.00  0.00    +0.144 HD
BRANCH  20  24
ATOM     24  O   UNL     1      -3.266  -1.165   2.246  0.00  0.00    -0.408 OA
ATOM     25  H   UNL     1      -3.921  -0.719   2.800  0.00  0.00    +0.328 HD
ENDBRANCH  20  24
ENDBRANCH   6  19
TORSDOF 6
