REMARK  Name = ZINC02354565
REMARK  5 active torsions:
REMARK  status: ('A' for Active; 'I' for Inactive)
REMARK    1  A    between atoms: C_1  and  C_2
REMARK    2  A    between atoms: N_8  and  O_9
REMARK    3  A    between atoms: C_10  and  C_18
REMARK    4  A    between atoms: C_12  and  C_16
REMARK    5  A    between atoms: C_13  and  N_15
REMARK                            x       y       z     vdW  Elec       q    Type
REMARK                         _______ _______ _______ _____ _____    ______ ____
ROOT
ATOM      1  C   UNL     1       3.792   5.491   4.763  0.00  0.00    +0.067 C 
ATOM      2  C   UNL     1       3.114   4.999   3.510  0.00  0.00    +0.062 A 
ATOM      3  C   UNL     1       3.764   5.073   2.329  0.00  0.00    +0.071 A 
ATOM      4  C   UNL     1       3.134   4.613   1.154  0.00  0.00    +0.141 A 
ATOM      5  C   UNL     1       1.859   4.095   1.238  0.00  0.00    +0.075 A 
ATOM      6  C   UNL     1       1.224   4.039   2.485  0.00  0.00    +0.291 A 
ATOM      7  O   UNL     1       0.095   3.583   2.575  0.00  0.00    -0.264 OA
ATOM      8  N   UNL     1       1.857   4.487   3.585  0.00  0.00    -0.151 N 
ATOM      9  C   UNL     1       1.151   3.593   0.010  0.00  0.00    +0.103 C 
ATOM     10  C   UNL     1       1.836   4.107  -1.226  0.00  0.00    +0.098 C 
ATOM     11  C   UNL     1       3.087   4.615  -1.178  0.00  0.00    +0.199 C 
ATOM     12  O   UNL     1       3.781   4.685  -0.029  0.00  0.00    -0.441 OA
ENDROOT
BRANCH   9  13
ATOM     13  C   UNL     1       1.171   2.086   0.002  0.00  0.00    -0.033 A 
ATOM     14  C   UNL     1       2.377   1.411  -0.013  0.00  0.00    +0.004 A 
ATOM     15  C   UNL     1       2.397   0.029  -0.021  0.00  0.00    +0.002 A 
ATOM     16  C   UNL     1       1.210  -0.679  -0.013  0.00  0.00    +0.020 A 
ATOM     17  C   UNL     1       0.002  -0.004   0.002  0.00  0.00    +0.041 A 
ATOM     18  C   UNL     1      -0.017   1.379   0.010  0.00  0.00    +0.024 A 
ATOM     19 CL   UNL     1      -1.489  -0.893   0.011  0.00  0.00    -0.084 Cl
ENDBRANCH   9  13
BRANCH  11  20
ATOM     20  N   UNL     1       3.667   5.071  -2.336  0.00  0.00    -0.328 N 
ATOM     21  H   UNL     1       4.565   5.437  -2.316  0.00  0.00    +0.145 HD
ATOM     22  H   UNL     1       3.179   5.027  -3.173  0.00  0.00    +0.145 HD
ENDBRANCH  11  20
BRANCH   8  23
ATOM     23  O   UNL     1       1.204   4.424   4.840  0.00  0.00    -0.423 OA
ATOM     24  H   UNL     1       0.315   4.047   4.802  0.00  0.00    +0.326 HD
ENDBRANCH   8  23
BRANCH  10  25
ATOM     25  C   UNL     1       1.149   4.059  -2.482  0.00  0.00    +0.101 C 
ATOM     26  N   UNL     1       0.604   4.020  -3.478  0.00  0.00    -0.191 NA
ENDBRANCH  10  25
TORSDOF 4
