REMARK  Name = ZINC36629426
REMARK  9 active torsions:
REMARK  status: ('A' for Active; 'I' for Inactive)
REMARK    1  A    between atoms: C_1  and  C_2
REMARK    2  A    between atoms: C_6  and  O_8
REMARK    3  A    between atoms: O_8  and  C_9
REMARK    4  A    between atoms: C_9  and  C_10
REMARK    5  A    between atoms: N_12  and  C_13
REMARK    6  A    between atoms: C_14  and  C_25
REMARK    7  A    between atoms: N_19  and  C_22
REMARK    8  A    between atoms: C_22  and  C_23
REMARK    9  A    between atoms: C_22  and  C_24
REMARK                            x       y       z     vdW  Elec       q    Type
REMARK                         _______ _______ _______ _____ _____    ______ ____
ROOT
ATOM      1  C   UNL     1       0.015  -6.620   5.121  0.00  0.00    +0.084 A 
ATOM      2  C   UNL     1       0.050  -7.962   5.471  0.00  0.00    +0.068 A 
ATOM      3  C   UNL     1       0.082  -8.274   6.886  0.00  0.00    -0.027 A 
ATOM      4  C   UNL     1       0.072  -7.191   7.695  0.00  0.00    -0.021 A 
ATOM      5  S   UNL     1       0.031  -5.811   6.593  0.00  0.00    -0.079 S 
ATOM      6  C   UNL     1       0.094  -7.206   9.191  0.00  0.00    -0.035 C 
ATOM      7  N   UNL     1      -0.254  -8.565   9.645  0.00  0.00    +0.384 N 
ATOM      8  C   UNL     1       0.578  -9.550   8.941  0.00  0.00    -0.073 C 
ATOM      9  C   UNL     1       0.128  -9.675   7.481  0.00  0.00    +0.018 C 
ATOM     10  H   UNL     1      -1.227  -8.746   9.449  0.00  0.00    -0.081 HD
ENDROOT
BRANCH   2  11
ATOM     11  C   UNL     1       0.053  -9.018   4.453  0.00  0.00    +0.244 C 
ATOM     12  O   UNL     1       1.108  -9.434   4.012  0.00  0.00    -0.270 OA
ATOM     13  N   UNL     1      -1.112  -9.528   4.007  0.00  0.00    -0.325 N 
ATOM     14  H   UNL     1      -1.953  -9.196   4.359  0.00  0.00    +0.145 HD
ATOM     15  H   UNL     1      -1.109 -10.226   3.334  0.00  0.00    +0.145 HD
ENDBRANCH   2  11
BRANCH   1  18
ATOM     16  C   UNL     1      -0.045  -4.734   3.690  0.00  0.00    +0.255 C 
ATOM     17  O   UNL     1      -0.038  -4.008   4.662  0.00  0.00    -0.272 OA
ATOM     18  N   UNL     1      -0.020  -6.072   3.847  0.00  0.00    -0.277 N 
ATOM     19  H   UNL     1      -0.026  -6.652   3.070  0.00  0.00    +0.155 HD
BRANCH  16  20
ATOM     20  C   UNL     1      -0.083  -4.138   2.306  0.00  0.00    +0.324 C 
BRANCH  20  21
ATOM     21  O   UNL     1      -0.105  -2.712   2.402  0.00  0.00    -0.483 OA
BRANCH  21  27
ATOM     22  C   UNL     1      -0.224   1.582   0.086  0.00  0.00    +0.044 C 
ATOM     23  C   UNL     1      -0.198   0.076   0.066  0.00  0.00    -0.047 A 
ATOM     24  C   UNL     1      -0.211  -0.600  -1.140  0.00  0.00    +0.003 A 
ATOM     25  C   UNL     1      -0.188  -1.982  -1.162  0.00  0.00    +0.004 A 
ATOM     26  C   UNL     1      -0.153  -2.692   0.023  0.00  0.00    +0.045 A 
ATOM     27  C   UNL     1      -0.140  -2.017   1.235  0.00  0.00    +0.121 A 
ATOM     28  C   UNL     1      -0.157  -0.629   1.253  0.00  0.00    +0.049 A 
ENDBRANCH  21  27
ENDBRANCH  20  21
ENDBRANCH  16  20
ENDBRANCH   1  18
BRANCH   7  29
ATOM     29  C   UNL     1      -0.020  -8.672  11.092  0.00  0.00    -0.074 C 
ATOM     30  C   UNL     1      -0.783  -7.561  11.815  0.00  0.00    -0.014 C 
ATOM     31  C   UNL     1      -0.510 -10.034  11.588  0.00  0.00    -0.014 C 
ENDBRANCH   7  29
TORSDOF 6
