REMARK  Name = ZINC36815355
REMARK  8 active torsions:
REMARK  status: ('A' for Active; 'I' for Inactive)
REMARK    1  A    between atoms: C_1  and  C_2
REMARK    2  A    between atoms: C_2  and  C_4
REMARK    3  A    between atoms: C_2  and  O_10
REMARK    4  A    between atoms: O_10  and  C_11
REMARK    5  A    between atoms: C_12  and  O_20
REMARK    6  A    between atoms: C_14  and  C_18
REMARK    7  A    between atoms: C_18  and  O_19
REMARK    8  A    between atoms: O_20  and  C_21
REMARK                            x       y       z     vdW  Elec       q    Type
REMARK                         _______ _______ _______ _____ _____    ______ ____
ROOT
ATOM      1  O   UNL     1       0.671  -0.465  -1.174  0.00  0.00    -0.475 OA
ENDROOT
BRANCH   1   2
ATOM      2  C   UNL     1       2.015  -0.653  -1.086  0.00  0.00    +0.177 A 
ATOM      3  C   UNL     1       2.886   0.392  -1.378  0.00  0.00    +0.163 A 
ATOM      4  C   UNL     1       4.255   0.196  -1.288  0.00  0.00    +0.055 A 
ATOM      5  C   UNL     1       4.753  -1.037  -0.907  0.00  0.00    -0.017 A 
ATOM      6  C   UNL     1       3.888  -2.075  -0.616  0.00  0.00    +0.025 A 
ATOM      7  C   UNL     1       2.520  -1.884  -0.699  0.00  0.00    +0.063 A 
ATOM      8 BR   UNL     1       1.341  -3.305  -0.293  0.00  0.00    -0.046 Br
BRANCH   3   9
ATOM      9  O   UNL     1       2.395   1.604  -1.753  0.00  0.00    -0.491 OA
ATOM     10  C   UNL     1       3.348   2.630  -2.038  0.00  0.00    +0.277 C 
ENDBRANCH   3   9
BRANCH   5  11
ATOM     11  C   UNL     1       6.242  -1.248  -0.808  0.00  0.00    +0.191 C 
BRANCH  11  12
ATOM     12  O   UNL     1       6.682  -0.928   0.513  0.00  0.00    -0.390 OA
ATOM     13  H   UNL     1       7.633  -1.042   0.649  0.00  0.00    +0.210 HD
ENDBRANCH  11  12
ENDBRANCH   5  11
ENDBRANCH   1   2
BRANCH   1  15
ATOM     14  C   UNL     1      -0.019   1.526   0.010  0.00  0.00    +0.062 C 
ATOM     15  C   UNL     1       0.002  -0.004   0.002  0.00  0.00    +0.256 C 
BRANCH  15  16
ATOM     16  C   UNL     1      -1.412  -0.526   0.013  0.00  0.00    +0.261 C 
ATOM     17  O   UNL     1      -1.836  -1.147  -0.938  0.00  0.00    -0.271 OA
ATOM     18  N   UNL     1      -2.204  -0.302   1.079  0.00  0.00    -0.237 N 
ATOM     19  C   UNL     1      -3.469  -0.768   1.089  0.00  0.00    +0.303 C 
ATOM     20  O   UNL     1      -3.894  -1.391   0.136  0.00  0.00    -0.253 OA
ATOM     21  N   UNL     1      -4.262  -0.544   2.156  0.00  0.00    -0.313 N 
ATOM     22  H   UNL     1      -1.865   0.195   1.840  0.00  0.00    +0.159 HD
ATOM     23  H   UNL     1      -3.922  -0.048   2.916  0.00  0.00    +0.146 HD
ATOM     24  H   UNL     1      -5.172  -0.880   2.163  0.00  0.00    +0.146 HD
ENDBRANCH  15  16
ENDBRANCH   1  15
TORSDOF 6
