REMARK  Name = ZINC21874943
REMARK  8 active torsions:
REMARK  status: ('A' for Active; 'I' for Inactive)
REMARK    1  A    between atoms: C_1  and  C_2
REMARK    2  A    between atoms: C_2  and  C_24
REMARK    3  A    between atoms: C_7  and  C_9
REMARK    4  A    between atoms: N_11  and  C_12
REMARK    5  A    between atoms: C_12  and  C_13
REMARK    6  A    between atoms: C_13  and  C_14
REMARK    7  A    between atoms: N_22  and  C_23
REMARK    8  A    between atoms: N_26  and  C_27
REMARK                            x       y       z     vdW  Elec       q    Type
REMARK                         _______ _______ _______ _____ _____    ______ ____
ROOT
ATOM      1  C   UNL     1      -1.223   3.079  -1.862  0.00  0.00    +0.044 C 
ATOM      2  C   UNL     1      -1.288   3.232  -0.341  0.00  0.00    +0.130 C 
ATOM      3  C   UNL     1      -0.283   4.299   0.091  0.00  0.00    +0.179 C 
ATOM      4  N   UNL     1       1.076   3.757  -0.024  0.00  0.00    -0.256 N 
ATOM      5  C   UNL     1       1.321   2.410   0.148  0.00  0.00    +0.124 A 
ATOM      6  C   UNL     1       2.650   2.215  -0.017  0.00  0.00    +0.067 A 
ATOM      7  C   UNL     1       3.180   3.497  -0.291  0.00  0.00    +0.148 A 
ATOM      8  N   UNL     1       2.174   4.356  -0.276  0.00  0.00    -0.166 NA
ATOM      9  C   UNL     1       0.229   1.470   0.453  0.00  0.00    +0.265 C 
ATOM     10  O   UNL     1       0.447   0.339   0.845  0.00  0.00    -0.268 OA
ATOM     11  N   UNL     1      -1.031   1.933   0.267  0.00  0.00    -0.284 N 
ATOM     12  C   UNL     1      -2.164   1.108   0.693  0.00  0.00    +0.133 C 
ENDROOT
BRANCH   7  13
ATOM     13  C   UNL     1       4.599   3.818  -0.547  0.00  0.00    +0.264 C 
ATOM     14  O   UNL     1       5.434   2.935  -0.533  0.00  0.00    -0.268 OA
ATOM     15  N   UNL     1       4.968   5.090  -0.796  0.00  0.00    -0.310 N 
ATOM     16  H   UNL     1       4.212   5.889  -0.809  0.00  0.00    +0.149 HD
BRANCH  15  17
ATOM     17  C   UNL     1       6.375   5.409  -1.050  0.00  0.00    +0.109 C 
BRANCH  17  18
ATOM     18  C   UNL     1       6.520   6.911  -1.302  0.00  0.00    +0.049 C 
BRANCH  18  19
ATOM     19  C   UNL     1       7.968   7.238  -1.563  0.00  0.00    -0.072 C 
ATOM     20  C   UNL     1       8.364   7.295  -2.794  0.00  0.00    -0.028 C 
ATOM     21  C   UNL     1       9.774   7.600  -3.210  0.00  0.00    +0.027 C 
ATOM     22  C   UNL     1      10.541   8.235  -2.048  0.00  0.00    +0.004 C 
ATOM     23  C   UNL     1      10.328   7.373  -0.797  0.00  0.00    +0.005 C 
ATOM     24  C   UNL     1       8.858   7.484  -0.381  0.00  0.00    +0.030 C 
ENDBRANCH  18  19
ENDBRANCH  17  18
ENDBRANCH  15  17
ENDBRANCH   7  13
BRANCH   2  25
ATOM     25  C   UNL     1      -2.673   3.685   0.042  0.00  0.00    +0.238 C 
ATOM     26  O   UNL     1      -3.420   4.135  -0.801  0.00  0.00    -0.273 OA
ATOM     27  N   UNL     1      -3.083   3.591   1.323  0.00  0.00    -0.311 N 
ATOM     28  H   UNL     1      -2.379   3.264   2.103  0.00  0.00    +0.149 HD
BRANCH  27  29
ATOM     29  C   UNL     1      -4.465   3.924   1.677  0.00  0.00    +0.073 C 
ATOM     30  C   UNL     1      -4.584   5.433   1.903  0.00  0.00    +0.022 C 
ATOM     31  C   UNL     1      -6.028   5.780   2.272  0.00  0.00    +0.002 C 
ATOM     32  C   UNL     1      -6.419   5.040   3.553  0.00  0.00    +0.000 C 
ATOM     33  C   UNL     1      -6.300   3.531   3.326  0.00  0.00    +0.002 C 
ATOM     34  C   UNL     1      -4.856   3.184   2.957  0.00  0.00    +0.022 C 
ENDBRANCH  27  29
ENDBRANCH   2  25
TORSDOF 6
