REMARK  Name = ZINC04277866
REMARK  7 active torsions:
REMARK  status: ('A' for Active; 'I' for Inactive)
REMARK    1  A    between atoms: C_4  and  S_7
REMARK    2  A    between atoms: S_7  and  N_10
REMARK    3  A    between atoms: C_14  and  C_17
REMARK    4  A    between atoms: N_19  and  C_20
REMARK    5  A    between atoms: C_20  and  C_22
REMARK    6  A    between atoms: C_20  and  C_29
REMARK    7  A    between atoms: C_22  and  C_23
REMARK                            x       y       z     vdW  Elec       q    Type
REMARK                         _______ _______ _______ _____ _____    ______ ____
ROOT
ATOM      1  N   UNL     1       4.810   3.206  -1.464  0.00  0.00    -0.173 NA
ATOM      2  C   UNL     1       4.484   2.379  -2.634  0.00  0.00    +0.128 C 
ATOM      3  C   UNL     1       3.739   3.247  -3.656  0.00  0.00    +0.127 C 
ATOM      4  N   UNL     1       4.496   4.490  -3.856  0.00  0.00    -0.271 N 
ATOM      5  C   UNL     1       4.822   5.317  -2.686  0.00  0.00    +0.179 C 
ATOM      6  C   UNL     1       5.562   4.452  -1.665  0.00  0.00    +0.141 C 
ATOM      7  C   UNL     1       4.885   4.865  -5.091  0.00  0.00    +0.306 C 
ATOM      8  O   UNL     1       5.893   4.394  -5.580  0.00  0.00    -0.252 OA
ATOM      9  N   UNL     1       4.155   5.762  -5.784  0.00  0.00    -0.281 N 
ATOM     10  C   UNL     1       3.293   6.734  -5.092  0.00  0.00    +0.137 C 
ATOM     11  C   UNL     1       3.612   8.134  -5.642  0.00  0.00    +0.179 C 
ATOM     12  O   UNL     1       3.521   8.108  -7.069  0.00  0.00    -0.377 OA
ATOM     13  C   UNL     1       4.462   7.237  -7.700  0.00  0.00    +0.179 C 
ATOM     14  C   UNL     1       4.192   5.795  -7.255  0.00  0.00    +0.137 C 
ENDROOT
BRANCH   5  15
ATOM     15  C   UNL     1       5.696   6.470  -3.109  0.00  0.00    +0.236 C 
ATOM     16  O   UNL     1       6.216   6.466  -4.205  0.00  0.00    -0.274 OA
ATOM     17  N   UNL     1       5.901   7.504  -2.269  0.00  0.00    -0.302 N 
ATOM     18  H   UNL     1       5.485   7.507  -1.393  0.00  0.00    +0.150 HD
BRANCH  17  19
ATOM     19  C   UNL     1       6.750   8.624  -2.681  0.00  0.00    +0.159 C 
BRANCH  19  20
ATOM     20  C   UNL     1       8.192   8.293  -2.393  0.00  0.00    +0.231 C 
ATOM     21  O   UNL     1       8.481   7.227  -1.893  0.00  0.00    -0.274 OA
ATOM     22  N   UNL     1       9.160   9.183  -2.690  0.00  0.00    -0.328 N 
ATOM     23  H   UNL     1       8.929  10.036  -3.090  0.00  0.00    +0.145 HD
ATOM     24  H   UNL     1      10.088   8.970  -2.505  0.00  0.00    +0.145 HD
ENDBRANCH  19  20
BRANCH  19  25
ATOM     25  C   UNL     1       6.351   9.880  -1.903  0.00  0.00    +0.035 C 
BRANCH  25  26
ATOM     26  C   UNL     1       4.928  10.288  -2.291  0.00  0.00    -0.009 C 
ATOM     27  C   UNL     1       4.898  10.698  -3.765  0.00  0.00    +0.003 C 
ATOM     28  C   UNL     1       3.475  11.106  -4.152  0.00  0.00    +0.000 C 
ATOM     29  C   UNL     1       3.029  12.285  -3.286  0.00  0.00    +0.000 C 
ATOM     30  C   UNL     1       3.059  11.876  -1.812  0.00  0.00    +0.000 C 
ATOM     31  C   UNL     1       4.481  11.468  -1.425  0.00  0.00    +0.003 C 
ENDBRANCH  25  26
ENDBRANCH  19  25
ENDBRANCH  17  19
ENDBRANCH   5  15
BRANCH   1  32
ATOM     32  S   UNL     1       4.332   2.745   0.053  0.00  0.00    +0.061 S 
ATOM     33  O   UNL     1       3.210   1.890  -0.117  0.00  0.00    -0.153 OA
ATOM     34  O   UNL     1       4.277   3.928   0.838  0.00  0.00    -0.153 OA
BRANCH  32  38
ATOM     35  C   UNL     1       7.653   0.198   1.780  0.00  0.00    +0.000 A 
ATOM     36  C   UNL     1       7.656   1.566   1.979  0.00  0.00    +0.002 A 
ATOM     37  C   UNL     1       6.643   2.344   1.450  0.00  0.00    +0.028 A 
ATOM     38  C   UNL     1       5.624   1.754   0.727  0.00  0.00    +0.105 A 
ATOM     39  C   UNL     1       5.617   0.385   0.533  0.00  0.00    +0.028 A 
ATOM     40  C   UNL     1       6.630  -0.393   1.062  0.00  0.00    +0.002 A 
ENDBRANCH  32  38
ENDBRANCH   1  32
TORSDOF 7
