REMARK  Name = ZINC67577267
REMARK  7 active torsions:
REMARK  status: ('A' for Active; 'I' for Inactive)
REMARK    1  A    between atoms: C_1  and  C_2
REMARK    2  A    between atoms: C_2  and  C_4
REMARK    3  A    between atoms: C_2  and  N_12
REMARK    4  A    between atoms: N_15  and  C_16
REMARK    5  A    between atoms: C_18  and  C_24
REMARK    6  A    between atoms: C_21  and  S_22
REMARK    7  A    between atoms: S_22  and  C_23
REMARK                            x       y       z     vdW  Elec       q    Type
REMARK                         _______ _______ _______ _____ _____    ______ ____
ROOT
ATOM      1  N   UNL     1       0.454  -0.503   1.081  0.00  0.00    -0.288 N 
ATOM      2  C   UNL     1      -0.168  -0.531   2.276  0.00  0.00    +0.304 C 
ATOM      3  O   UNL     1      -1.317  -0.145   2.374  0.00  0.00    -0.252 OA
ATOM      4  N   UNL     1       0.484  -0.986   3.364  0.00  0.00    -0.268 N 
ATOM      5  H   UNL     1       1.370  -0.811   1.003  0.00  0.00    +0.151 HD
ATOM      6  H   UNL     1       1.375  -1.361   3.275  0.00  0.00    +0.156 HD
ENDROOT
BRANCH   4   7
ATOM      7  C   UNL     1      -0.124  -0.918   4.626  0.00  0.00    +0.049 A 
ATOM      8  C   UNL     1      -1.494  -1.054   4.741  0.00  0.00    +0.043 A 
ATOM      9  C   UNL     1      -2.097  -0.986   6.001  0.00  0.00    +0.054 A 
ATOM     10  C   UNL     1      -1.312  -0.781   7.139  0.00  0.00    +0.020 A 
ATOM     11  C   UNL     1       0.054  -0.646   7.020  0.00  0.00    +0.018 A 
ATOM     12  C   UNL     1       0.656  -0.718   5.768  0.00  0.00    +0.029 A 
BRANCH  12  13
ATOM     13  S   UNL     1       2.404  -0.551   5.622  0.00  0.00    -0.127 S 
ATOM     14  C   UNL     1       2.967  -0.315   7.331  0.00  0.00    +0.090 C 
ENDBRANCH  12  13
BRANCH   9  15
ATOM     15  C   UNL     1      -3.517  -1.127   6.125  0.00  0.00    +0.099 C 
ATOM     16  N   UNL     1      -4.643  -1.238   6.223  0.00  0.00    -0.191 NA
ENDBRANCH   9  15
ENDBRANCH   4   7
BRANCH   1  18
ATOM     17  C   UNL     1      -0.134   1.516  -0.169  0.00  0.00    +0.038 C 
ATOM     18  C   UNL     1      -0.256  -0.008  -0.102  0.00  0.00    +0.157 C 
BRANCH  18  19
ATOM     19  C   UNL     1       0.350  -0.615  -1.341  0.00  0.00    +0.236 C 
ATOM     20  O   UNL     1       1.491  -1.025  -1.320  0.00  0.00    -0.274 OA
ATOM     21  N   UNL     1      -0.376  -0.702  -2.473  0.00  0.00    -0.300 N 
ATOM     22  C   UNL     1      -1.714  -0.099  -2.552  0.00  0.00    +0.108 C 
ATOM     23  C   UNL     1      -1.766   0.827  -3.771  0.00  0.00    +0.019 C 
ATOM     24  C   UNL     1      -1.354   0.044  -5.020  0.00  0.00    +0.003 C 
ATOM     25  C   UNL     1       0.082  -0.461  -4.858  0.00  0.00    +0.019 C 
ATOM     26  C   UNL     1       0.157  -1.397  -3.653  0.00  0.00    +0.108 C 
ENDBRANCH  18  19
ENDBRANCH   1  18
TORSDOF 5
