REMARK  Name = ZINC20716368
REMARK  6 active torsions:
REMARK  status: ('A' for Active; 'I' for Inactive)
REMARK    1  A    between atoms: C_1  and  C_2
REMARK    2  A    between atoms: C_2  and  C_4
REMARK    3  A    between atoms: C_2  and  N_8
REMARK    4  A    between atoms: C_4  and  O_6
REMARK    5  A    between atoms: O_6  and  C_7
REMARK    6  A    between atoms: C_20  and  C_22
REMARK                            x       y       z     vdW  Elec       q    Type
REMARK                         _______ _______ _______ _____ _____    ______ ____
ROOT
ATOM      1  N   UNL     1      -1.008  -0.386   2.290  0.00  0.00    -0.286 N 
ATOM      2  C   UNL     1       0.309  -0.657   2.367  0.00  0.00    +0.304 C 
ATOM      3  O   UNL     1       0.999  -0.612   1.366  0.00  0.00    -0.253 OA
ATOM      4  N   UNL     1       0.863  -0.979   3.553  0.00  0.00    -0.273 N 
ATOM      5  C   UNL     1       2.317  -1.164   3.681  0.00  0.00    +0.116 C 
ATOM      6  C   UNL     1       2.881  -0.087   4.616  0.00  0.00    +0.076 C 
ATOM      7  C   UNL     1       1.992   0.020   5.830  0.00  0.00    +0.066 A 
ATOM      8  C   UNL     1       0.726  -0.448   5.891  0.00  0.00    +0.064 A 
ATOM      9  N   UNL     1       0.251  -0.164   7.133  0.00  0.00    -0.346 N 
ATOM     10  H   UNL     1      -0.631  -0.375   7.476  0.00  0.00    +0.167 HD
ATOM     11  C   UNL     1       1.244   0.469   7.801  0.00  0.00    +0.197 A 
ATOM     12  N   UNL     1       2.281   0.573   7.011  0.00  0.00    -0.240 NA
ATOM     13  C   UNL     1       0.028  -1.147   4.756  0.00  0.00    +0.159 C 
ATOM     14  H   UNL     1      -1.572  -0.493   3.072  0.00  0.00    +0.151 HD
ENDROOT
BRANCH  13  15
ATOM     15  C   UNL     1      -0.120  -2.612   5.076  0.00  0.00    +0.014 A 
ATOM     16  C   UNL     1       0.608  -3.172   6.109  0.00  0.00    +0.010 A 
ATOM     17  C   UNL     1       0.471  -4.515   6.404  0.00  0.00    +0.016 A 
ATOM     18  C   UNL     1      -0.394  -5.302   5.664  0.00  0.00    +0.021 A 
ATOM     19  C   UNL     1      -1.123  -4.744   4.630  0.00  0.00    +0.054 A 
ATOM     20  C   UNL     1      -0.991  -3.397   4.339  0.00  0.00    +0.130 A 
ATOM     21  F   UNL     1      -1.706  -2.850   3.332  0.00  0.00    -0.205 F 
ATOM     22 BR   UNL     1      -0.579  -7.140   6.067  0.00  0.00    -0.050 Br
ENDBRANCH  13  15
BRANCH   1  24
ATOM     23  C   UNL     1      -1.938  -1.140   0.157  0.00  0.00    +0.040 C 
ATOM     24  C   UNL     1      -1.589   0.071   1.025  0.00  0.00    +0.180 C 
BRANCH  24  25
ATOM     25  C   UNL     1      -2.840   0.865   1.304  0.00  0.00    +0.327 C 
ATOM     26  O   UNL     1      -3.207   1.032   2.443  0.00  0.00    -0.249 OA
BRANCH  25  27
ATOM     27  O   UNL     1      -3.544   1.387   0.288  0.00  0.00    -0.467 OA
ATOM     28  C   UNL     1      -4.719   2.128   0.626  0.00  0.00    +0.280 C 
ENDBRANCH  25  27
ENDBRANCH  24  25
ENDBRANCH   1  24
TORSDOF 4
