REMARK  Name = ZINC15085078
REMARK  9 active torsions:
REMARK  status: ('A' for Active; 'I' for Inactive)
REMARK    1  A    between atoms: C_1  and  O_2
REMARK    2  A    between atoms: O_2  and  C_3
REMARK    3  A    between atoms: C_8  and  C_9
REMARK    4  A    between atoms: C_15  and  C_22
REMARK    5  A    between atoms: C_16  and  N_18
REMARK    6  A    between atoms: N_18  and  C_19
REMARK    7  A    between atoms: C_19  and  C_20
REMARK    8  A    between atoms: C_29  and  N_33
REMARK    9  A    between atoms: C_30  and  C_31
REMARK                            x       y       z     vdW  Elec       q    Type
REMARK                         _______ _______ _______ _____ _____    ______ ____
ROOT
ATOM      1  C   UNL     1      -2.527   1.102   0.032  0.00  0.00    +0.107 C 
ATOM      2  C   UNL     1      -1.243   1.883   0.018  0.00  0.00    +0.073 A 
ATOM      3  C   UNL     1      -1.256   3.267   0.032  0.00  0.00    +0.155 A 
ATOM      4  C   UNL     1      -0.037   3.950   0.025  0.00  0.00    +0.081 A 
ATOM      5  C   UNL     1       1.183   3.279   0.009  0.00  0.00    +0.079 A 
ATOM      6  C   UNL     1       2.346   4.151   0.003  0.00  0.00    +0.104 A 
ATOM      7  C   UNL     1       2.127   5.524   0.014  0.00  0.00    +0.086 A 
ATOM      8  S   UNL     1       0.402   5.667   0.031  0.00  0.00    -0.067 S 
ATOM      9  N   UNL     1       1.146   1.888   0.001  0.00  0.00    -0.320 N 
ATOM     10  H   UNL     1       1.979   1.392  -0.010  0.00  0.00    +0.169 HD
ATOM     11  C   UNL     1      -0.015   1.217   0.009  0.00  0.00    +0.257 A 
ATOM     12  O   UNL     1       0.002  -0.004   0.002  0.00  0.00    -0.267 OA
ATOM     13  O   UNL     1      -2.423   3.948   0.045  0.00  0.00    -0.440 OA
ATOM     14  C   UNL     1      -3.555   3.335   0.431  0.00  0.00    +0.199 C 
ATOM     15  C   UNL     1      -3.670   1.986   0.448  0.00  0.00    +0.098 C 
ENDROOT
BRANCH   1  21
ATOM     16  C   UNL     1      -2.872  -0.808  -1.555  0.00  0.00    +0.124 A 
ATOM     17  C   UNL     1      -3.120  -1.303  -2.828  0.00  0.00    +0.046 A 
ATOM     18  C   UNL     1      -3.277  -0.431  -3.888  0.00  0.00    +0.004 A 
ATOM     19  C   UNL     1      -3.191   0.933  -3.681  0.00  0.00    +0.001 A 
ATOM     20  C   UNL     1      -2.948   1.429  -2.413  0.00  0.00    +0.008 A 
ATOM     21  C   UNL     1      -2.791   0.561  -1.349  0.00  0.00    +0.007 A 
BRANCH  16  23
ATOM     22  C   UNL     1      -2.808  -3.061  -0.797  0.00  0.00    +0.277 C 
ATOM     23  O   UNL     1      -2.712  -1.664  -0.511  0.00  0.00    -0.495 OA
ENDBRANCH  16  23
ENDBRANCH   1  21
BRANCH  14  24
ATOM     24  N   UNL     1      -4.627   4.099   0.819  0.00  0.00    -0.328 N 
ATOM     25  H   UNL     1      -4.561   5.067   0.813  0.00  0.00    +0.145 HD
ATOM     26  H   UNL     1      -5.451   3.671   1.100  0.00  0.00    +0.145 HD
ENDBRANCH  14  24
BRANCH   7  27
ATOM     27  N   UNL     1       3.063   6.534   0.011  0.00  0.00    -0.334 N 
ATOM     28  H   UNL     1       4.008   6.318   0.001  0.00  0.00    +0.147 HD
BRANCH  27  29
ATOM     29  C   UNL     1       2.630   7.933   0.023  0.00  0.00    +0.129 C 
BRANCH  29  30
ATOM     30  C   UNL     1       3.840   8.833   0.017  0.00  0.00    -0.016 C 
ATOM     31  C   UNL     1       3.968   9.751  -0.908  0.00  0.00    +0.005 C 
ENDBRANCH  29  30
ENDBRANCH  27  29
ENDBRANCH   7  27
BRANCH   6  32
ATOM     32  C   UNL     1       3.674   3.614  -0.013  0.00  0.00    +0.104 C 
ATOM     33  N   UNL     1       4.726   3.187  -0.025  0.00  0.00    -0.191 NA
ENDBRANCH   6  32
BRANCH  15  34
ATOM     34  C   UNL     1      -4.902   1.391   0.870  0.00  0.00    +0.101 C 
ATOM     35  N   UNL     1      -5.879   0.918   1.205  0.00  0.00    -0.191 NA
ENDBRANCH  15  34
TORSDOF 8
