REMARK  Name = ZINC42028775
REMARK  5 active torsions:
REMARK  status: ('A' for Active; 'I' for Inactive)
REMARK    1  A    between atoms: C_1  and  C_2
REMARK    2  A    between atoms: C_2  and  C_4
REMARK    3  A    between atoms: C_2  and  N_10
REMARK    4  A    between atoms: C_11  and  C_15
REMARK    5  A    between atoms: C_17  and  N_23
REMARK                            x       y       z     vdW  Elec       q    Type
REMARK                         _______ _______ _______ _____ _____    ______ ____
ROOT
ATOM      1  N   UNL     1      -1.385  -0.478   0.038  0.00  0.00    -0.220 N 
ATOM      2  C   UNL     1      -1.924  -1.377   0.899  0.00  0.00    +0.185 A 
ATOM      3  N   UNL     1      -3.164  -1.588   0.509  0.00  0.00    -0.108 NA
ATOM      4  N   UNL     1      -3.434  -0.887  -0.532  0.00  0.00    -0.023 NA
ATOM      5  N   UNL     1      -2.411  -0.183  -0.877  0.00  0.00    -0.043 NA
ENDROOT
BRANCH   2   6
ATOM      6  C   UNL     1      -1.248  -2.000   2.057  0.00  0.00    +0.058 A 
ATOM      7  C   UNL     1      -0.535  -1.211   2.959  0.00  0.00    +0.040 A 
ATOM      8  C   UNL     1       0.097  -1.800   4.042  0.00  0.00    +0.061 A 
ATOM      9  C   UNL     1       0.019  -3.178   4.228  0.00  0.00    +0.147 A 
ATOM     10  C   UNL     1      -0.687  -3.962   3.333  0.00  0.00    +0.079 A 
ATOM     11  C   UNL     1      -1.325  -3.381   2.253  0.00  0.00    +0.137 A 
ATOM     12  F   UNL     1      -2.020  -4.149   1.385  0.00  0.00    -0.205 F 
ATOM     13  F   UNL     1       0.637  -3.750   5.284  0.00  0.00    -0.203 F 
BRANCH   8  14
ATOM     14  N   UNL     1       0.813  -1.011   4.949  0.00  0.00    -0.356 N 
ATOM     15  H   UNL     1       0.868  -0.051   4.819  0.00  0.00    +0.142 HD
ATOM     16  H   UNL     1       1.256  -1.423   5.707  0.00  0.00    +0.142 HD
ENDBRANCH   8  14
ENDBRANCH   2   6
BRANCH   1  18
ATOM     17  C   UNL     1      -0.096   1.597   0.145  0.00  0.00    +0.035 C 
ATOM     18  C   UNL     1      -0.027   0.071   0.060  0.00  0.00    +0.137 C 
BRANCH  18  19
ATOM     19  C   UNL     1       0.709  -0.336  -1.219  0.00  0.00    +0.143 C 
ATOM     20  C   UNL     1       2.177   0.136  -1.150  0.00  0.00    +0.036 C 
ATOM     21  C   UNL     1       2.441   0.604  -2.607  0.00  0.00    +0.031 C 
ATOM     22  C   UNL     1       1.050   1.168  -2.991  0.00  0.00    +0.160 C 
ATOM     23  O   UNL     1       0.101   0.296  -2.351  0.00  0.00    -0.374 OA
ENDBRANCH  18  19
ENDBRANCH   1  18
TORSDOF 4
