REMARK  Name = ZINC51359678
REMARK  7 active torsions:
REMARK  status: ('A' for Active; 'I' for Inactive)
REMARK    1  A    between atoms: C_1  and  C_2
REMARK    2  A    between atoms: C_2  and  C_3
REMARK    3  A    between atoms: C_2  and  C_4
REMARK    4  A    between atoms: C_2  and  N_5
REMARK    5  A    between atoms: C_9  and  C_11
REMARK    6  A    between atoms: C_11  and  N_12
REMARK    7  A    between atoms: C_16  and  C_18
REMARK                            x       y       z     vdW  Elec       q    Type
REMARK                         _______ _______ _______ _____ _____    ______ ____
ROOT
ATOM      1  C   UNL     1       4.591  -0.709  -3.999  0.00  0.00    +0.019 C 
ENDROOT
BRANCH   1   6
ATOM      2  N   UNL     1       0.688  -0.476  -1.203  0.00  0.00    -0.294 N 
ATOM      3  C   UNL     1       1.972  -0.132  -1.427  0.00  0.00    +0.306 C 
ATOM      4  O   UNL     1       2.560   0.570  -0.629  0.00  0.00    -0.252 OA
ATOM      5  N   UNL     1       2.602  -0.567  -2.536  0.00  0.00    -0.242 N 
ATOM      6  C   UNL     1       3.886  -0.223  -2.760  0.00  0.00    +0.204 C 
ATOM      7  O   UNL     1       4.473   0.478  -1.963  0.00  0.00    -0.277 OA
ATOM      8  H   UNL     1       0.218  -1.037  -1.840  0.00  0.00    +0.151 HD
ATOM      9  H   UNL     1       2.132  -1.127  -3.173  0.00  0.00    +0.159 HD
BRANCH   2  11
ATOM     10  C   UNL     1      -0.019   1.526   0.010  0.00  0.00    +0.031 C 
ATOM     11  C   UNL     1       0.002  -0.004   0.002  0.00  0.00    +0.028 C 
ATOM     12  C   UNL     1       0.742  -0.511   1.242  0.00  0.00    +0.031 C 
ATOM     13  C   UNL     1      -1.433  -0.534   0.013  0.00  0.00    +0.031 C 
ENDBRANCH   2  11
ENDBRANCH   1   6
BRANCH   1  14
ATOM     14  N   UNL     1       5.970  -0.200  -4.010  0.00  0.00    +0.388 N 
ATOM     15  C   UNL     1       6.729  -0.799  -2.892  0.00  0.00    -0.078 C 
ATOM     16  C   UNL     1       7.463  -2.012  -3.518  0.00  0.00    -0.020 C 
ATOM     17  C   UNL     1       7.835  -1.463  -4.921  0.00  0.00    -0.016 C 
ATOM     18  C   UNL     1       6.626  -0.572  -5.277  0.00  0.00    -0.051 C 
ATOM     19  H   UNL     1       5.963   0.804  -3.913  0.00  0.00    -0.081 HD
BRANCH  18  20
ATOM     20  C   UNL     1       7.104   0.686  -6.004  0.00  0.00    +0.040 C 
ATOM     21  C   UNL     1       5.900   1.600  -6.318  0.00  0.00    +0.018 C 
ATOM     22  C   UNL     1       6.242   2.157  -7.725  0.00  0.00    +0.017 C 
ATOM     23  C   UNL     1       6.939   0.940  -8.383  0.00  0.00    +0.081 C 
ATOM     24  N   UNL     1       7.723   0.317  -7.290  0.00  0.00    -0.315 NA
ATOM     25  H   UNL     1       8.689   0.608  -7.324  0.00  0.00    +0.122 HD
ENDBRANCH  18  20
ENDBRANCH   1  14
TORSDOF 4
