REMARK  Name = ZINC51063921
REMARK  8 active torsions:
REMARK  status: ('A' for Active; 'I' for Inactive)
REMARK    1  A    between atoms: C_1  and  C_2
REMARK    2  A    between atoms: C_5  and  C_8
REMARK    3  A    between atoms: C_8  and  C_9
REMARK    4  A    between atoms: N_14  and  C_16
REMARK    5  A    between atoms: C_16  and  C_17
REMARK    6  A    between atoms: C_17  and  C_19
REMARK    7  A    between atoms: C_20  and  N_31
REMARK    8  A    between atoms: N_21  and  C_28
REMARK                            x       y       z     vdW  Elec       q    Type
REMARK                         _______ _______ _______ _____ _____    ______ ____
ROOT
ATOM      1  C   UNL     1       4.458  -8.862  -0.303  0.00  0.00    +0.155 C 
ATOM      2  O   UNL     1       5.331  -8.018  -0.252  0.00  0.00    -0.294 OA
ENDROOT
BRANCH   1   3
ATOM      3  C   UNL     1       4.689 -10.148   0.229  0.00  0.00    +0.118 A 
ATOM      4  C   UNL     1       5.959 -10.521   0.701  0.00  0.00    +0.116 A 
ATOM      5  N   UNL     1       6.133 -11.778   1.207  0.00  0.00    -0.278 N 
ATOM      6  C   UNL     1       5.119 -12.655   1.261  0.00  0.00    +0.331 A 
ATOM      7  O   UNL     1       5.325 -13.761   1.721  0.00  0.00    -0.246 OA
ATOM      8  N   UNL     1       3.884 -12.355   0.825  0.00  0.00    -0.274 N 
ATOM      9  H   UNL     1       3.182 -13.021   0.884  0.00  0.00    +0.173 HD
ATOM     10  C   UNL     1       3.608 -11.139   0.313  0.00  0.00    +0.266 A 
ATOM     11  O   UNL     1       2.486 -10.869  -0.076  0.00  0.00    -0.267 OA
BRANCH   5  12
ATOM     12  C   UNL     1       7.454 -12.176   1.701  0.00  0.00    +0.094 C 
ATOM     13  C   UNL     1       7.519 -12.860   3.068  0.00  0.00    +0.027 C 
ATOM     14  C   UNL     1       8.013 -11.421   2.909  0.00  0.00    +0.027 C 
ENDBRANCH   5  12
BRANCH   4  15
ATOM     15  N   UNL     1       6.999  -9.645   0.653  0.00  0.00    -0.344 N 
ATOM     16  H   UNL     1       6.831  -8.690   0.684  0.00  0.00    +0.144 HD
ATOM     17  H   UNL     1       7.909  -9.975   0.588  0.00  0.00    +0.144 HD
ENDBRANCH   4  15
ENDBRANCH   1   3
BRANCH   1  18
ATOM     18  C   UNL     1       3.130  -8.535  -0.935  0.00  0.00    +0.002 C 
BRANCH  18  23
ATOM     19  C   UNL     1       1.794  -5.315  -2.325  0.00  0.00    -0.023 C 
ATOM     20  C   UNL     1       2.830  -5.094  -3.431  0.00  0.00    +0.000 C 
ATOM     21  C   UNL     1       4.205  -5.540  -2.925  0.00  0.00    -0.018 C 
ATOM     22  C   UNL     1       4.130  -7.003  -2.485  0.00  0.00    -0.078 C 
ATOM     23  N   UNL     1       3.142  -7.144  -1.408  0.00  0.00    +0.385 N 
ATOM     24  C   UNL     1       1.808  -6.786  -1.906  0.00  0.00    -0.074 C 
ATOM     25  H   UNL     1       3.389  -6.533  -0.644  0.00  0.00    -0.081 HD
BRANCH  19  26
ATOM     26  C   UNL     1       0.403  -4.946  -2.847  0.00  0.00    +0.037 C 
BRANCH  26  31
ATOM     27  C   UNL     1       0.213   0.714  -3.997  0.00  0.00    +0.044 C 
ATOM     28  C   UNL     1       0.263  -0.762  -3.697  0.00  0.00    -0.050 A 
ATOM     29  C   UNL     1       0.649  -1.655  -4.679  0.00  0.00    +0.003 A 
ATOM     30  C   UNL     1       0.695  -3.009  -4.404  0.00  0.00    +0.004 A 
ATOM     31  C   UNL     1       0.354  -3.470  -3.146  0.00  0.00    -0.047 A 
ATOM     32  C   UNL     1      -0.031  -2.578  -2.164  0.00  0.00    +0.004 A 
ATOM     33  C   UNL     1      -0.073  -1.223  -2.438  0.00  0.00    +0.003 A 
ENDBRANCH  26  31
ENDBRANCH  19  26
ENDBRANCH  18  23
ENDBRANCH   1  18
TORSDOF 7
