REMARK  Name = ZINC44249979
REMARK  4 active torsions:
REMARK  status: ('A' for Active; 'I' for Inactive)
REMARK    1  A    between atoms: C_2  and  N_12
REMARK    2  A    between atoms: C_3  and  O_11
REMARK    3  A    between atoms: C_4  and  C_9
REMARK    4  A    between atoms: C_9  and  N_10
REMARK                            x       y       z     vdW  Elec       q    Type
REMARK                         _______ _______ _______ _____ _____    ______ ____
ROOT
ATOM      1  C   UNL     1      -0.017   1.378   0.010  0.00  0.00    +0.055 A 
ATOM      2  C   UNL     1       1.169   2.087   0.002  0.00  0.00    +0.169 A 
ATOM      3  C   UNL     1       2.382   1.413  -0.013  0.00  0.00    +0.152 A 
ATOM      4  C   UNL     1       2.404   0.027  -0.021  0.00  0.00    +0.027 A 
ATOM      5  C   UNL     1       1.214  -0.683  -0.013  0.00  0.00    +0.198 A 
ATOM      6  C   UNL     1       0.002  -0.004   0.002  0.00  0.00    +0.067 A 
ATOM      7 BR   UNL     1      -1.623  -0.971   0.013  0.00  0.00    -0.046 Br
ATOM      8  O   UNL     1       1.232  -2.042  -0.021  0.00  0.00    -0.286 OA
ENDROOT
BRANCH   2   9
ATOM      9  N   UNL     1       1.146   3.567   0.010  0.00  0.00    +0.060 N 
ATOM     10  O   UNL     1       0.090   4.155   0.023  0.00  0.00    -0.126 OA
ATOM     11  O   UNL     1       2.183   4.188   0.004  0.00  0.00    -0.126 OA
ENDBRANCH   2   9
BRANCH   3  12
ATOM     12  O   UNL     1       3.548   2.112  -0.022  0.00  0.00    -0.504 OA
ATOM     13  H   UNL     1       3.894   2.309   0.859  0.00  0.00    +0.292 HD
ENDBRANCH   3  12
BRANCH   4  14
ATOM     14  C   UNL     1       3.720  -0.707  -0.039  0.00  0.00    -0.043 C 
BRANCH  14  15
ATOM     15  N   UNL     1       4.162  -0.953   1.341  0.00  0.00    +0.381 N 
ATOM     16  H   UNL     1       5.043  -1.444   1.329  0.00  0.00    -0.090 HD
ATOM     17  H   UNL     1       4.274  -0.072   1.820  0.00  0.00    -0.090 HD
ATOM     18  H   UNL     1       3.472  -1.511   1.821  0.00  0.00    -0.090 HD
ENDBRANCH  14  15
ENDBRANCH   4  14
TORSDOF 4
