REMARK  Name = ZINC24845288
REMARK  16 active torsions:
REMARK  status: ('A' for Active; 'I' for Inactive)
REMARK    1  A    between atoms: C_1  and  C_2
REMARK    2  A    between atoms: C_5  and  N_9
REMARK    3  A    between atoms: C_6  and  C_8
REMARK    4  A    between atoms: C_13  and  S_14
REMARK    5  A    between atoms: S_14  and  C_15
REMARK    6  A    between atoms: C_15  and  C_16
REMARK    7  A    between atoms: N_18  and  C_19
REMARK    8  A    between atoms: N_18  and  C_23
REMARK    9  A    between atoms: C_19  and  C_20
REMARK   10  A    between atoms: C_20  and  C_21
REMARK   11  A    between atoms: C_20  and  C_22
REMARK   12  A    between atoms: C_24  and  N_36
REMARK   13  A    between atoms: N_25  and  C_32
REMARK   14  A    between atoms: C_32  and  C_33
REMARK   15  A    between atoms: C_33  and  C_34
REMARK   16  A    between atoms: C_33  and  C_35
REMARK                            x       y       z     vdW  Elec       q    Type
REMARK                         _______ _______ _______ _____ _____    ______ ____
ROOT
ATOM      1  C   UNL     1       5.599   3.276  -0.561  0.00  0.00    +0.230 C 
ATOM      2  O   UNL     1       4.446   3.010  -0.830  0.00  0.00    -0.274 OA
ATOM      3  N   UNL     1       5.900   4.451   0.029  0.00  0.00    -0.263 N 
ENDROOT
BRANCH   3   4
ATOM      4  C   UNL     1       7.248   4.803   0.255  0.00  0.00    +0.140 A 
ATOM      5  C   UNL     1       7.811   5.879  -0.398  0.00  0.00    +0.127 A 
ATOM      6  N   UNL     1       9.128   6.197  -0.157  0.00  0.00    -0.280 N 
ATOM      7  C   UNL     1       9.857   5.467   0.706  0.00  0.00    +0.331 A 
ATOM      8  O   UNL     1      11.020   5.764   0.905  0.00  0.00    -0.246 OA
ATOM      9  N   UNL     1       9.325   4.414   1.352  0.00  0.00    -0.273 N 
ATOM     10  H   UNL     1       9.941   3.828   2.049  0.00  0.00    +0.173 HD
ATOM     11  C   UNL     1       8.039   4.064   1.156  0.00  0.00    +0.277 A 
ATOM     12  O   UNL     1       7.564   3.111   1.750  0.00  0.00    -0.266 OA
BRANCH   5  13
ATOM     13  N   UNL     1       7.066   6.625  -1.280  0.00  0.00    -0.343 N 
ATOM     14  H   UNL     1       7.522   7.482  -1.798  0.00  0.00    +0.144 HD
ATOM     15  H   UNL     1       6.014   6.365  -1.468  0.00  0.00    +0.144 HD
ENDBRANCH   5  13
BRANCH   6  16
ATOM     16  C   UNL     1       9.739   7.338  -0.844  0.00  0.00    +0.131 C 
BRANCH  16  17
ATOM     17  C   UNL     1       9.545   8.602  -0.004  0.00  0.00    +0.003 C 
ATOM     18  C   UNL     1      10.289   9.768  -0.658  0.00  0.00    +0.009 C 
ATOM     19  C   UNL     1       8.054   8.933   0.082  0.00  0.00    +0.009 C 
ENDBRANCH  16  17
ENDBRANCH   6  16
ENDBRANCH   3   4
BRANCH   1  20
ATOM     20  C   UNL     1       6.695   2.293  -0.885  0.00  0.00    +0.173 C 
BRANCH  20  21
ATOM     21  S   UNL     1       5.970   0.792  -1.591  0.00  0.00    -0.076 S 
BRANCH  21  26
ATOM     22  N   UNL     1       7.498  -1.411  -2.400  0.00  0.00    -0.277 N 
ATOM     23  C   UNL     1       8.829  -1.733  -2.420  0.00  0.00    +0.230 A 
ATOM     24  N   UNL     1       9.481  -0.718  -1.928  0.00  0.00    -0.137 NA
ATOM     25  N   UNL     1       8.662   0.217  -1.600  0.00  0.00    -0.122 NA
ATOM     26  C   UNL     1       7.431  -0.153  -1.867  0.00  0.00    +0.196 A 
BRANCH  22  31
ATOM     27  C   UNL     1       3.162  -4.626  -4.155  0.00  0.00    +0.044 C 
ATOM     28  C   UNL     1       4.313  -3.773  -3.689  0.00  0.00    -0.050 A 
ATOM     29  C   UNL     1       5.078  -4.175  -2.609  0.00  0.00    +0.005 A 
ATOM     30  C   UNL     1       6.133  -3.394  -2.180  0.00  0.00    +0.027 A 
ATOM     31  C   UNL     1       6.427  -2.205  -2.833  0.00  0.00    +0.053 A 
ATOM     32  C   UNL     1       5.655  -1.802  -3.914  0.00  0.00    -0.026 A 
ATOM     33  C   UNL     1       4.603  -2.589  -4.342  0.00  0.00    +0.008 A 
ATOM     34  C   UNL     1       5.966  -0.509  -4.622  0.00  0.00    +0.046 C 
ENDBRANCH  22  31
ENDBRANCH  21  26
ENDBRANCH  20  21
ENDBRANCH   1  20
BRANCH   3  35
ATOM     35  C   UNL     1       4.827   5.363   0.435  0.00  0.00    +0.117 C 
BRANCH  35  36
ATOM     36  C   UNL     1       4.495   5.135   1.911  0.00  0.00    +0.001 C 
ATOM     37  C   UNL     1       3.453   6.159   2.363  0.00  0.00    +0.009 C 
ATOM     38  C   UNL     1       3.935   3.723   2.095  0.00  0.00    +0.009 C 
ENDBRANCH  35  36
ENDBRANCH   3  35
TORSDOF 10
