REMARK  Name = ZINC14109591
REMARK  9 active torsions:
REMARK  status: ('A' for Active; 'I' for Inactive)
REMARK    1  A    between atoms: C_1  and  C_2
REMARK    2  A    between atoms: C_2  and  C_3
REMARK    3  A    between atoms: C_2  and  C_4
REMARK    4  A    between atoms: C_7  and  C_10
REMARK    5  A    between atoms: C_10  and  C_30
REMARK    6  A    between atoms: N_13  and  C_17
REMARK    7  A    between atoms: C_17  and  C_18
REMARK    8  A    between atoms: N_20  and  C_21
REMARK    9  A    between atoms: C_24  and  C_27
REMARK                            x       y       z     vdW  Elec       q    Type
REMARK                         _______ _______ _______ _____ _____    ______ ____
ROOT
ATOM      1  C   UNL     1       2.857   3.493   0.334  0.00  0.00    +0.135 C 
ATOM      2  C   UNL     1       2.539   4.858   0.913  0.00  0.00    +0.251 C 
ATOM      3  O   UNL     1       1.704   5.644   0.520  0.00  0.00    -0.272 OA
ATOM      4  N   UNL     1       3.378   5.015   1.956  0.00  0.00    -0.215 N 
ATOM      5  C   UNL     1       4.174   3.951   2.114  0.00  0.00    +0.310 C 
ATOM      6  O   UNL     1       5.014   3.860   2.988  0.00  0.00    -0.252 OA
ATOM      7  N   UNL     1       3.940   2.994   1.199  0.00  0.00    -0.281 N 
ATOM      8  C   UNL     1       3.334   3.621  -1.114  0.00  0.00    +0.047 C 
ATOM      9  H   UNL     1       4.395   2.141   1.123  0.00  0.00    +0.152 HD
ENDROOT
BRANCH   1  13
ATOM     10  C   UNL     1      -0.553   0.930   0.559  0.00  0.00    -0.045 A 
ATOM     11  C   UNL     1       0.719   0.395   0.623  0.00  0.00    +0.004 A 
ATOM     12  C   UNL     1       1.823   1.224   0.549  0.00  0.00    +0.006 A 
ATOM     13  C   UNL     1       1.654   2.589   0.416  0.00  0.00    -0.015 A 
ATOM     14  C   UNL     1       0.381   3.126   0.357  0.00  0.00    +0.006 A 
ATOM     15  C   UNL     1      -0.723   2.296   0.432  0.00  0.00    +0.004 A 
BRANCH  10  17
ATOM     16  C   UNL     1      -2.610   0.411   1.844  0.00  0.00    +0.012 C 
ATOM     17  C   UNL     1      -1.756   0.026   0.634  0.00  0.00    +0.013 C 
ATOM     18  C   UNL     1      -2.586   0.173  -0.643  0.00  0.00    +0.012 C 
ENDBRANCH  10  17
ENDBRANCH   1  13
BRANCH   4  19
ATOM     19  C   UNL     1       3.415   6.205   2.811  0.00  0.00    +0.214 C 
BRANCH  19  20
ATOM     20  C   UNL     1       2.466   6.021   3.967  0.00  0.00    +0.235 C 
ATOM     21  O   UNL     1       1.823   4.997   4.067  0.00  0.00    -0.274 OA
ATOM     22  N   UNL     1       2.332   6.994   4.890  0.00  0.00    -0.284 N 
ATOM     23  H   UNL     1       2.901   7.779   4.853  0.00  0.00    +0.155 HD
BRANCH  22  24
ATOM     24  C   UNL     1       1.376   6.872   5.898  0.00  0.00    +0.033 A 
ATOM     25  C   UNL     1       0.169   6.232   5.636  0.00  0.00    +0.024 A 
ATOM     26  C   UNL     1      -0.775   6.106   6.630  0.00  0.00    +0.015 A 
ATOM     27  C   UNL     1      -0.524   6.632   7.900  0.00  0.00    +0.037 A 
ATOM     28  C   UNL     1       0.687   7.279   8.159  0.00  0.00    +0.015 A 
ATOM     29  C   UNL     1       1.629   7.396   7.162  0.00  0.00    +0.024 A 
BRANCH  27  30
ATOM     30  C   UNL     1      -1.536   6.503   8.967  0.00  0.00    +0.242 C 
ATOM     31  O   UNL     1      -1.316   6.960  10.072  0.00  0.00    -0.270 OA
ATOM     32  N   UNL     1      -2.704   5.879   8.716  0.00  0.00    -0.325 N 
ATOM     33  H   UNL     1      -2.879   5.514   7.835  0.00  0.00    +0.145 HD
ATOM     34  H   UNL     1      -3.369   5.794   9.417  0.00  0.00    +0.145 HD
ENDBRANCH  27  30
ENDBRANCH  22  24
ENDBRANCH  19  20
ENDBRANCH   4  19
TORSDOF 6
