REMARK  Name = ZINC09046250
REMARK  8 active torsions:
REMARK  status: ('A' for Active; 'I' for Inactive)
REMARK    1  A    between atoms: C_1  and  C_2
REMARK    2  A    between atoms: C_2  and  N_58
REMARK    3  A    between atoms: C_15  and  C_17
REMARK    4  A    between atoms: C_18  and  O_33
REMARK    5  A    between atoms: C_20  and  O_32
REMARK    6  A    between atoms: N_21  and  C_24
REMARK    7  A    between atoms: C_27  and  C_31
REMARK    8  A    between atoms: C_29  and  C_30
REMARK                            x       y       z     vdW  Elec       q    Type
REMARK                         _______ _______ _______ _____ _____    ______ ____
ROOT
ATOM      1  C   UNL     1      -3.900   2.266   6.657  0.00  0.00    +0.071 A 
ATOM      2  C   UNL     1      -4.092   3.634   6.744  0.00  0.00    +0.224 A 
ATOM      3  N   UNL     1      -3.643   4.431   5.768  0.00  0.00    -0.161 NA
ATOM      4  C   UNL     1      -3.018   3.940   4.721  0.00  0.00    +0.306 A 
ATOM      5  N   UNL     1      -2.804   2.603   4.586  0.00  0.00    -0.230 N 
ATOM      6  C   UNL     1      -3.239   1.749   5.536  0.00  0.00    +0.267 A 
ATOM      7  O   UNL     1      -3.057   0.547   5.422  0.00  0.00    -0.267 OA
ENDROOT
BRANCH   1  20
ATOM      8  C   UNL     1      -3.773  -0.536   9.144  0.00  0.00    -0.073 C 
ATOM      9  C   UNL     1      -4.550  -1.592   8.346  0.00  0.00    +0.019 C 
ATOM     10  C   UNL     1      -5.542  -0.875   7.465  0.00  0.00    -0.022 A 
ATOM     11  C   UNL     1      -6.696  -1.399   6.769  0.00  0.00    +0.003 A 
ATOM     12  C   UNL     1      -7.251  -2.679   6.676  0.00  0.00    +0.010 A 
ATOM     13  C   UNL     1      -8.380  -2.812   5.905  0.00  0.00    +0.001 A 
ATOM     14  C   UNL     1      -8.951  -1.737   5.245  0.00  0.00    +0.002 A 
ATOM     15  C   UNL     1      -8.423  -0.460   5.318  0.00  0.00    +0.026 A 
ATOM     16  C   UNL     1      -7.277  -0.294   6.093  0.00  0.00    +0.047 A 
ATOM     17  N   UNL     1      -6.515   0.804   6.375  0.00  0.00    -0.359 N 
ATOM     18  H   UNL     1      -6.682   1.700   6.043  0.00  0.00    +0.166 HD
ATOM     19  C   UNL     1      -5.478   0.449   7.195  0.00  0.00    +0.011 A 
ATOM     20  C   UNL     1      -4.399   1.350   7.745  0.00  0.00    +0.021 C 
ATOM     21  N   UNL     1      -3.278   0.497   8.206  0.00  0.00    +0.388 N 
ATOM     22  H   UNL     1      -2.857   0.033   7.392  0.00  0.00    -0.080 HD
BRANCH  21  24
ATOM     23  C   UNL     1      -2.798   1.930  10.164  0.00  0.00    -0.017 C 
ATOM     24  C   UNL     1      -2.251   1.328   8.868  0.00  0.00    -0.081 C 
ENDBRANCH  21  24
ENDBRANCH   1  20
BRANCH   5  25
ATOM     25  C   UNL     1      -2.135   2.112   3.457  0.00  0.00    +0.057 A 
ATOM     26  C   UNL     1      -0.753   1.979   3.471  0.00  0.00    +0.027 A 
ATOM     27  C   UNL     1      -0.096   1.495   2.356  0.00  0.00    +0.005 A 
ATOM     28  C   UNL     1      -0.814   1.143   1.228  0.00  0.00    -0.050 A 
ATOM     29  C   UNL     1      -2.190   1.280   1.209  0.00  0.00    +0.008 A 
ATOM     30  C   UNL     1      -2.852   1.758   2.323  0.00  0.00    -0.026 A 
ATOM     31  C   UNL     1      -4.353   1.901   2.304  0.00  0.00    +0.046 C 
ATOM     32  C   UNL     1      -0.094   0.616   0.013  0.00  0.00    +0.044 C 
ENDBRANCH   5  25
BRANCH   4  33
ATOM     33  O   UNL     1      -2.581   4.779   3.760  0.00  0.00    -0.479 OA
ATOM     34  H   UNL     1      -2.751   5.722   3.889  0.00  0.00    +0.295 HD
ENDBRANCH   4  33
BRANCH   2  35
ATOM     35  O   UNL     1      -4.732   4.164   7.812  0.00  0.00    -0.492 OA
ATOM     36  H   UNL     1      -4.817   5.126   7.782  0.00  0.00    +0.294 HD
ENDBRANCH   2  35
TORSDOF 5
