REMARK  Name = ZINC39243127
REMARK  8 active torsions:
REMARK  status: ('A' for Active; 'I' for Inactive)
REMARK    1  A    between atoms: C_1  and  O_2
REMARK    2  A    between atoms: O_2  and  C_3
REMARK    3  A    between atoms: C_9  and  C_12
REMARK    4  A    between atoms: C_12  and  C_13
REMARK    5  A    between atoms: C_13  and  N_14
REMARK    6  A    between atoms: C_15  and  C_17
REMARK    7  A    between atoms: C_22  and  C_31
REMARK    8  A    between atoms: C_24  and  C_27
REMARK                            x       y       z     vdW  Elec       q    Type
REMARK                         _______ _______ _______ _____ _____    ______ ____
ROOT
ATOM      1  C   UNL     1      -2.429  -8.487  -0.823  0.00  0.00    +0.185 C 
ATOM      2  C   UNL     1      -2.412  -8.208   0.663  0.00  0.00    +0.047 C 
ATOM      3  C   UNL     1      -3.676  -8.377   1.105  0.00  0.00    +0.138 C 
ATOM      4  N   UNL     1      -4.169  -8.243   2.361  0.00  0.00    -0.231 NA
ATOM      5  C   UNL     1      -5.444  -8.450   2.614  0.00  0.00    +0.075 C 
ATOM      6  C   UNL     1      -6.327  -8.820   1.570  0.00  0.00    +0.057 C 
ATOM      7  C   UNL     1      -5.853  -8.959   0.316  0.00  0.00    +0.133 C 
ATOM      8  N   UNL     1      -4.519  -8.739   0.064  0.00  0.00    -0.213 N 
ATOM      9  N   UNL     1      -3.832  -8.823  -1.121  0.00  0.00    -0.218 NA
ATOM     10  H   UNL     1      -4.217  -8.193  -1.808  0.00  0.00    +0.146 HD
ENDROOT
BRANCH   5  11
ATOM     11  C   UNL     1      -5.957  -8.296   3.995  0.00  0.00    +0.000 A 
ATOM     12  C   UNL     1      -7.306  -8.520   4.270  0.00  0.00    +0.010 A 
ATOM     13  C   UNL     1      -7.778  -8.376   5.558  0.00  0.00    +0.001 A 
ATOM     14  C   UNL     1      -6.916  -8.010   6.577  0.00  0.00    +0.000 A 
ATOM     15  C   UNL     1      -5.577  -7.786   6.310  0.00  0.00    +0.001 A 
ATOM     16  C   UNL     1      -5.092  -7.932   5.027  0.00  0.00    +0.010 A 
ENDBRANCH   5  11
BRANCH   1  18
ATOM     17  N   UNL     1      -0.765  -6.763  -1.437  0.00  0.00    -0.313 N 
ATOM     18  C   UNL     1      -2.007  -7.262  -1.593  0.00  0.00    +0.236 C 
ATOM     19  O   UNL     1      -2.785  -6.726  -2.353  0.00  0.00    -0.274 OA
ATOM     20  H   UNL     1      -0.142  -7.192  -0.829  0.00  0.00    +0.149 HD
BRANCH  17  21
ATOM     21  C   UNL     1      -0.354  -5.573  -2.186  0.00  0.00    +0.109 C 
BRANCH  21  22
ATOM     22  C   UNL     1       1.091  -5.218  -1.828  0.00  0.00    +0.056 C 
BRANCH  22  29
ATOM     23  C   UNL     1       0.606  -0.608  -1.056  0.00  0.00    +0.121 A 
ATOM     24  C   UNL     1       1.169   0.167  -2.067  0.00  0.00    +0.047 A 
ATOM     25  C   UNL     1       1.785  -0.428  -3.146  0.00  0.00    +0.030 A 
ATOM     26  C   UNL     1       1.849  -1.815  -3.233  0.00  0.00    +0.047 A 
ATOM     27  N   UNL     1       2.383  -2.682  -4.162  0.00  0.00    -0.360 N 
ATOM     28  C   UNL     1       2.173  -3.974  -3.767  0.00  0.00    +0.087 A 
ATOM     29  C   UNL     1       1.513  -3.994  -2.598  0.00  0.00    -0.021 A 
ATOM     30  C   UNL     1       1.281  -2.599  -2.213  0.00  0.00    +0.006 A 
ATOM     31  C   UNL     1       0.664  -1.986  -1.121  0.00  0.00    +0.056 A 
ATOM     32  H   UNL     1       2.839  -2.415  -4.976  0.00  0.00    +0.165 HD
BRANCH  23  34
ATOM     33  C   UNL     1      -0.017   1.425   0.010  0.00  0.00    +0.277 C 
ATOM     34  O   UNL     1       0.002  -0.004   0.002  0.00  0.00    -0.495 OA
ENDBRANCH  23  34
ENDBRANCH  22  29
ENDBRANCH  21  22
ENDBRANCH  17  21
ENDBRANCH   1  18
BRANCH   7  35
ATOM     35  C   UNL     1      -6.780  -9.351  -0.805  0.00  0.00    +0.432 C 
ATOM     36  F   UNL     1      -8.075  -9.516  -0.303  0.00  0.00    -0.165 F 
ATOM     37  F   UNL     1      -6.783  -8.349  -1.782  0.00  0.00    -0.165 F 
ATOM     38  F   UNL     1      -6.343 -10.553  -1.373  0.00  0.00    -0.165 F 
ENDBRANCH   7  35
TORSDOF 7
