REMARK  Name = ZINC50710227
REMARK  6 active torsions:
REMARK  status: ('A' for Active; 'I' for Inactive)
REMARK    1  A    between atoms: C_1  and  C_2
REMARK    2  A    between atoms: C_2  and  C_3
REMARK    3  A    between atoms: C_9  and  N_11
REMARK    4  A    between atoms: C_12  and  C_14
REMARK    5  A    between atoms: C_16  and  N_23
REMARK    6  A    between atoms: C_19  and  N_20
REMARK                            x       y       z     vdW  Elec       q    Type
REMARK                         _______ _______ _______ _____ _____    ______ ____
ROOT
ATOM      1  N   UNL     1       1.686  -3.156  -0.440  0.00  0.00    -0.308 N 
ATOM      2  C   UNL     1       1.411  -4.133   0.447  0.00  0.00    +0.247 C 
ATOM      3  O   UNL     1       0.501  -4.910   0.233  0.00  0.00    -0.270 OA
ATOM      4  H   UNL     1       2.412  -2.536  -0.269  0.00  0.00    +0.149 HD
ENDROOT
BRANCH   1  10
ATOM      5  C   UNL     1       0.943  -1.585  -2.160  0.00  0.00    +0.009 C 
ATOM      6  C   UNL     1       0.110  -1.454  -3.437  0.00  0.00    +0.005 C 
ATOM      7  C   UNL     1       0.672  -2.386  -4.511  0.00  0.00    +0.000 C 
ATOM      8  C   UNL     1       0.617  -3.832  -4.013  0.00  0.00    +0.002 C 
ATOM      9  C   UNL     1       1.451  -3.963  -2.736  0.00  0.00    +0.022 C 
ATOM     10  C   UNL     1       0.888  -3.031  -1.662  0.00  0.00    +0.076 C 
BRANCH   5  12
ATOM     11  C   UNL     1       0.549   0.801  -1.532  0.00  0.00    +0.004 C 
ATOM     12  C   UNL     1       0.380  -0.653  -1.086  0.00  0.00    +0.002 C 
ENDBRANCH   5  12
ENDBRANCH   1  10
BRANCH   2  13
ATOM     13  C   UNL     1       2.217  -4.260   1.681  0.00  0.00    +0.069 A 
ATOM     14  C   UNL     1       3.605  -4.376   1.601  0.00  0.00    +0.038 A 
ATOM     15  C   UNL     1       4.353  -4.495   2.762  0.00  0.00    +0.025 A 
ATOM     16  C   UNL     1       3.720  -4.497   4.000  0.00  0.00    +0.025 A 
ATOM     17  C   UNL     1       2.345  -4.383   4.078  0.00  0.00    +0.035 A 
ATOM     18  C   UNL     1       1.592  -4.258   2.929  0.00  0.00    +0.138 A 
BRANCH  18  19
ATOM     19  N   UNL     1       0.120  -4.129   3.019  0.00  0.00    +0.057 N 
ATOM     20  O   UNL     1      -0.433  -4.251   4.087  0.00  0.00    -0.126 OA
ATOM     21  O   UNL     1      -0.529  -3.901   2.024  0.00  0.00    -0.126 OA
ENDBRANCH  18  19
BRANCH  15  22
ATOM     22  N   UNL     1       5.744  -4.612   2.688  0.00  0.00    -0.358 N 
ATOM     23  H   UNL     1       6.185  -4.611   1.824  0.00  0.00    +0.142 HD
ATOM     24  H   UNL     1       6.267  -4.695   3.500  0.00  0.00    +0.142 HD
ENDBRANCH  15  22
ENDBRANCH   2  13
TORSDOF 5
