REMARK  Name = ZINC42406005
REMARK  3 active torsions:
REMARK  status: ('A' for Active; 'I' for Inactive)
REMARK    1  A    between atoms: C_2  and  N_21
REMARK    2  A    between atoms: C_3  and  N_11
REMARK    3  A    between atoms: C_16  and  C_18
REMARK                            x       y       z     vdW  Elec       q    Type
REMARK                         _______ _______ _______ _____ _____    ______ ____
ROOT
ATOM      1  C   UNL     1      -0.207   2.398  -0.140  0.00  0.00    +0.074 A 
ATOM      2  C   UNL     1       1.097   2.869  -0.167  0.00  0.00    +0.050 A 
ATOM      3  C   UNL     1       2.159   1.983   0.001  0.00  0.00    +0.055 A 
ATOM      4  C   UNL     1       1.910   0.633   0.194  0.00  0.00    +0.074 A 
ATOM      5  C   UNL     1       0.605   0.164   0.220  0.00  0.00    +0.164 A 
ATOM      6  C   UNL     1      -0.455   1.047   0.055  0.00  0.00    +0.164 A 
ATOM      7  O   UNL     1      -1.743   0.604   0.085  0.00  0.00    -0.485 OA
ATOM      8  C   UNL     1      -1.944  -0.802  -0.091  0.00  0.00    +0.270 C 
ATOM      9  C   UNL     1      -0.943  -1.547   0.802  0.00  0.00    +0.270 C 
ATOM     10  O   UNL     1       0.379  -1.167   0.407  0.00  0.00    -0.485 OA
ENDROOT
BRANCH   3  11
ATOM     11  N   UNL     1       3.479   2.457  -0.025  0.00  0.00    -0.317 N 
ATOM     12  C   UNL     1       4.143   2.890   1.212  0.00  0.00    +0.106 C 
ATOM     13  C   UNL     1       4.684   4.309   1.010  0.00  0.00    +0.019 C 
ATOM     14  C   UNL     1       5.583   4.337  -0.229  0.00  0.00    +0.004 C 
ATOM     15  C   UNL     1       4.764   3.951  -1.463  0.00  0.00    +0.032 C 
ATOM     16  C   UNL     1       4.226   2.523  -1.288  0.00  0.00    +0.159 C 
BRANCH  16  17
ATOM     17  C   UNL     1       3.310   2.182  -2.435  0.00  0.00    +0.231 C 
ATOM     18  O   UNL     1       2.173   2.604  -2.449  0.00  0.00    -0.274 OA
ATOM     19  N   UNL     1       3.754   1.408  -3.445  0.00  0.00    -0.328 N 
ATOM     20  H   UNL     1       4.663   1.071  -3.434  0.00  0.00    +0.145 HD
ATOM     21  H   UNL     1       3.164   1.189  -4.183  0.00  0.00    +0.145 HD
ENDBRANCH  16  17
ENDBRANCH   3  11
BRANCH   2  22
ATOM     22  N   UNL     1       1.346   4.235  -0.364  0.00  0.00    -0.356 N 
ATOM     23  H   UNL     1       0.606   4.851  -0.481  0.00  0.00    +0.142 HD
ATOM     24  H   UNL     1       2.258   4.564  -0.383  0.00  0.00    +0.142 HD
ENDBRANCH   2  22
TORSDOF 3
