REMARK  Name = ZINC51143684
REMARK  10 active torsions:
REMARK  status: ('A' for Active; 'I' for Inactive)
REMARK    1  A    between atoms: C_1  and  C_2
REMARK    2  A    between atoms: C_2  and  C_4
REMARK    3  A    between atoms: C_2  and  N_7
REMARK    4  A    between atoms: C_4  and  C_5
REMARK    5  A    between atoms: C_4  and  C_6
REMARK    6  A    between atoms: N_7  and  C_8
REMARK    7  A    between atoms: C_9  and  C_11
REMARK    8  A    between atoms: C_13  and  N_20
REMARK    9  A    between atoms: C_14  and  N_18
REMARK   10  A    between atoms: N_18  and  N_19
REMARK                            x       y       z     vdW  Elec       q    Type
REMARK                         _______ _______ _______ _____ _____    ______ ____
ROOT
ATOM      1  C   UNL     1       0.648  -1.698   3.311  0.00  0.00    +0.041 A 
ATOM      2  C   UNL     1       1.437  -0.804   4.040  0.00  0.00    +0.047 A 
ATOM      3  C   UNL     1       2.017  -1.207   5.222  0.00  0.00    +0.150 A 
ATOM      4  C   UNL     1       1.818  -2.502   5.691  0.00  0.00    +0.090 A 
ATOM      5  C   UNL     1       1.033  -3.396   4.966  0.00  0.00    +0.066 A 
ATOM      6  C   UNL     1       0.445  -2.997   3.786  0.00  0.00    +0.035 A 
ATOM      7 CL   UNL     1       0.788  -5.010   5.555  0.00  0.00    -0.081 Cl
ENDROOT
BRANCH   1  10
ATOM      8  N   UNL     1       0.674  -0.414   1.230  0.00  0.00    -0.298 N 
ATOM      9  C   UNL     1       2.048  -0.009   1.537  0.00  0.00    +0.132 C 
ATOM     10  C   UNL     1       0.025  -1.269   2.044  0.00  0.00    +0.247 C 
ATOM     11  O   UNL     1      -1.074  -1.688   1.734  0.00  0.00    -0.270 OA
BRANCH   8  13
ATOM     12  C   UNL     1      -0.069   1.638   0.125  0.00  0.00    +0.028 C 
ATOM     13  C   UNL     1       0.005   0.113   0.037  0.00  0.00    +0.076 C 
BRANCH  13  14
ATOM     14  C   UNL     1       0.796  -0.288  -1.210  0.00  0.00    +0.003 C 
ATOM     15  C   UNL     1       0.870  -1.814  -1.298  0.00  0.00    +0.009 C 
ATOM     16  C   UNL     1       0.098   0.261  -2.455  0.00  0.00    +0.009 C 
ENDBRANCH  13  14
ENDBRANCH   8  13
ENDBRANCH   1  10
BRANCH   3  17
ATOM     17  N   UNL     1       2.853  -0.261   5.994  0.00  0.00    +0.058 N 
ATOM     18  O   UNL     1       3.101   0.834   5.545  0.00  0.00    -0.126 OA
ATOM     19  O   UNL     1       3.289  -0.583   7.075  0.00  0.00    -0.126 OA
ENDBRANCH   3  17
BRANCH   4  20
ATOM     20  N   UNL     1       2.406  -2.906   6.886  0.00  0.00    -0.280 N 
ATOM     21  H   UNL     1       2.494  -2.277   7.619  0.00  0.00    +0.166 HD
BRANCH  20  22
ATOM     22  N   UNL     1       2.859  -4.187   7.025  0.00  0.00    -0.256 NA
ATOM     23  H   UNL     1       3.582  -4.390   6.352  0.00  0.00    +0.140 HD
ATOM     24  H   UNL     1       3.183  -4.355   7.966  0.00  0.00    +0.140 HD
ENDBRANCH  20  22
ENDBRANCH   4  20
TORSDOF 6
