REMARK  Name = ZINC61534318
REMARK  5 active torsions:
REMARK  status: ('A' for Active; 'I' for Inactive)
REMARK    1  A    between atoms: C_1  and  C_2
REMARK    2  A    between atoms: C_2  and  C_3
REMARK    3  A    between atoms: C_3  and  C_4
REMARK    4  A    between atoms: C_3  and  C_5
REMARK    5  A    between atoms: C_3  and  N_6
REMARK                            x       y       z     vdW  Elec       q    Type
REMARK                         _______ _______ _______ _____ _____    ______ ____
ROOT
ATOM      1  N   UNL     1       0.762  -1.976   1.234  0.00  0.00    -0.308 N 
ATOM      2  C   UNL     1       1.379  -2.663   2.259  0.00  0.00    +0.221 A 
ATOM      3  N   UNL     1       1.402  -3.992   2.249  0.00  0.00    -0.181 NA
ATOM      4  C   UNL     1       1.997  -4.650   3.238  0.00  0.00    +0.223 A 
ATOM      5  N   UNL     1       2.568  -3.977   4.235  0.00  0.00    -0.184 NA
ATOM      6  C   UNL     1       2.543  -2.655   4.241  0.00  0.00    +0.229 A 
ATOM      7  N   UNL     1       1.956  -1.996   3.255  0.00  0.00    -0.184 NA
ATOM      8 CL   UNL     1       3.288  -1.781   5.543  0.00  0.00    -0.041 Cl
ATOM      9  N   UNL     1       2.023  -6.029   3.232  0.00  0.00    -0.299 N 
ATOM     10  C   UNL     1       1.402  -6.785   2.136  0.00  0.00    +0.108 C 
ATOM     11  C   UNL     1       2.437  -7.755   1.558  0.00  0.00    +0.019 C 
ATOM     12  C   UNL     1       2.998  -8.627   2.683  0.00  0.00    +0.003 C 
ATOM     13  C   UNL     1       3.693  -7.741   3.719  0.00  0.00    +0.019 C 
ATOM     14  C   UNL     1       2.677  -6.771   4.319  0.00  0.00    +0.108 C 
ATOM     15  H   UNL     1       0.342  -2.462   0.507  0.00  0.00    +0.149 HD
ENDROOT
BRANCH   1  16
ATOM     16  C   UNL     1       0.742  -0.511   1.242  0.00  0.00    +0.029 C 
ATOM     17  C   UNL     1       2.178   0.019   1.231  0.00  0.00    +0.031 C 
ATOM     18  C   UNL     1       0.026  -0.018   2.500  0.00  0.00    +0.031 C 
BRANCH  16  20
ATOM     19  C   UNL     1      -0.019   1.526   0.010  0.00  0.00    +0.006 C 
ATOM     20  C   UNL     1       0.002  -0.004   0.002  0.00  0.00    +0.022 C 
ENDBRANCH  16  20
ENDBRANCH   1  16
TORSDOF 2
