REMARK  Name = ZINC66405047
REMARK  9 active torsions:
REMARK  status: ('A' for Active; 'I' for Inactive)
REMARK    1  A    between atoms: C_1  and  C_2
REMARK    2  A    between atoms: C_7  and  C_8
REMARK    3  A    between atoms: C_8  and  C_10
REMARK    4  A    between atoms: C_8  and  N_12
REMARK    5  A    between atoms: C_13  and  C_15
REMARK    6  A    between atoms: C_15  and  N_16
REMARK    7  A    between atoms: C_21  and  C_28
REMARK    8  A    between atoms: C_24  and  C_26
REMARK    9  A    between atoms: C_24  and  C_27
REMARK                            x       y       z     vdW  Elec       q    Type
REMARK                         _______ _______ _______ _____ _____    ______ ____
ROOT
ATOM      1  N   UNL     1      -2.421  -0.298   6.684  0.00  0.00    -0.215 N 
ATOM      2  C   UNL     1      -1.810   0.179   7.790  0.00  0.00    +0.247 C 
ATOM      3  O   UNL     1      -0.716  -0.141   8.201  0.00  0.00    -0.273 OA
ATOM      4  C   UNL     1      -2.776   1.175   8.386  0.00  0.00    +0.113 C 
ATOM      5  C   UNL     1      -2.990   0.906   9.867  0.00  0.00    +0.038 C 
ATOM      6  C   UNL     1      -1.752   1.327  10.660  0.00  0.00    -0.011 C 
ATOM      7  C   UNL     1      -1.546   2.830  10.480  0.00  0.00    +0.009 C 
ATOM      8  C   UNL     1      -1.303   3.177   9.016  0.00  0.00    -0.032 C 
ATOM      9  C   UNL     1      -2.367   2.605   8.096  0.00  0.00    +0.041 C 
ATOM     10  C   UNL     1      -1.336   4.716   8.886  0.00  0.00    +0.011 C 
ATOM     11  C   UNL     1       0.091   2.710   8.589  0.00  0.00    +0.011 C 
ATOM     12  C   UNL     1      -1.972   1.019  12.144  0.00  0.00    +0.007 C 
ATOM     13  N   UNL     1      -4.035   0.886   7.662  0.00  0.00    -0.285 N 
ATOM     14  C   UNL     1      -3.708   0.069   6.645  0.00  0.00    +0.310 C 
ATOM     15  O   UNL     1      -4.489  -0.295   5.789  0.00  0.00    -0.252 OA
ATOM     16  H   UNL     1      -4.912   1.226   7.887  0.00  0.00    +0.151 HD
ENDROOT
BRANCH   1  17
ATOM     17  C   UNL     1      -1.768  -1.133   5.675  0.00  0.00    +0.213 C 
BRANCH  17  19
ATOM     18  N   UNL     1      -0.537  -0.808   3.554  0.00  0.00    -0.295 N 
ATOM     19  C   UNL     1      -1.190  -0.255   4.595  0.00  0.00    +0.232 C 
ATOM     20  O   UNL     1      -1.312   0.950   4.663  0.00  0.00    -0.274 OA
ATOM     21  H   UNL     1      -0.440  -1.772   3.500  0.00  0.00    +0.150 HD
BRANCH  18  22
ATOM     22  C   UNL     1       0.025   0.045   2.504  0.00  0.00    +0.207 C 
BRANCH  22  29
ATOM     23  C   UNL     1      -0.096   1.486   0.003  0.00  0.00    +0.044 C 
ATOM     24  C   UNL     1      -0.017  -0.019   0.003  0.00  0.00    -0.045 A 
ATOM     25  C   UNL     1       0.003  -0.710  -1.195  0.00  0.00    +0.004 A 
ATOM     26  C   UNL     1       0.076  -2.090  -1.195  0.00  0.00    +0.000 A 
ATOM     27  C   UNL     1       0.129  -2.780   0.002  0.00  0.00    +0.000 A 
ATOM     28  C   UNL     1       0.110  -2.089   1.199  0.00  0.00    +0.007 A 
ATOM     29  C   UNL     1       0.041  -0.709   1.199  0.00  0.00    -0.010 A 
ENDBRANCH  22  29
BRANCH  22  30
ATOM     30  C   UNL     1       1.400   0.428   2.867  0.00  0.00    +0.090 C 
ATOM     31  N   UNL     1       2.460   0.723   3.147  0.00  0.00    -0.194 NA
ENDBRANCH  22  30
ENDBRANCH  18  22
ENDBRANCH  17  19
ENDBRANCH   1  17
TORSDOF 5
