REMARK  Name = ZINC06008141
REMARK  4 active torsions:
REMARK  status: ('A' for Active; 'I' for Inactive)
REMARK    1  A    between atoms: C_1  and  C_2
REMARK    2  A    between atoms: N_10  and  C_13
REMARK    3  A    between atoms: N_26  and  C_29
REMARK    4  A    between atoms: C_29  and  C_30
REMARK                            x       y       z     vdW  Elec       q    Type
REMARK                         _______ _______ _______ _____ _____    ______ ____
ROOT
ATOM      1  C   UNL     1       2.895   2.529   1.850  0.00  0.00    -0.013 C 
ATOM      2  C   UNL     1       1.506   2.613   1.215  0.00  0.00    -0.060 C 
ATOM      3  C   UNL     1       1.421   1.685  -0.016  0.00  0.00    +0.073 C 
ATOM      4  C   UNL     1      -0.021   1.106   0.022  0.00  0.00    +0.088 C 
ATOM      5  C   UNL     1      -0.665   1.693  -1.213  0.00  0.00    +0.229 C 
ATOM      6  O   UNL     1      -1.808   1.499  -1.567  0.00  0.00    -0.275 OA
ATOM      7  N   UNL     1       0.223   2.461  -1.856  0.00  0.00    -0.210 N 
ATOM      8  C   UNL     1       1.425   2.527  -1.272  0.00  0.00    +0.228 C 
ATOM      9  O   UNL     1       2.371   3.163  -1.686  0.00  0.00    -0.275 OA
ATOM     10  C   UNL     1      -0.646   1.704   1.287  0.00  0.00    +0.050 C 
ATOM     11  C   UNL     1      -1.510   2.892   0.970  0.00  0.00    -0.027 A 
ATOM     12  C   UNL     1      -1.271   4.103   0.360  0.00  0.00    +0.004 A 
ATOM     13  C   UNL     1      -2.298   5.018   0.210  0.00  0.00    +0.000 A 
ATOM     14  C   UNL     1      -3.564   4.713   0.674  0.00  0.00    +0.002 A 
ATOM     15  C   UNL     1      -3.809   3.501   1.285  0.00  0.00    +0.024 A 
ATOM     16  C   UNL     1      -2.781   2.574   1.440  0.00  0.00    +0.040 A 
ATOM     17  N   UNL     1      -2.779   1.301   2.014  0.00  0.00    -0.260 N 
ATOM     18  C   UNL     1      -1.564   0.723   1.964  0.00  0.00    +0.215 C 
ATOM     19  O   UNL     1      -1.266  -0.376   2.383  0.00  0.00    -0.276 OA
ATOM     20  N   UNL     1       0.472   2.099   2.119  0.00  0.00    +0.394 N 
ATOM     21  H   UNL     1       0.182   2.831   2.778  0.00  0.00    -0.083 HD
ATOM     22  H   UNL     1       0.828   1.290   2.640  0.00  0.00    -0.083 HD
ENDROOT
BRANCH   7  23
ATOM     23  C   UNL     1      -0.082   3.140  -3.043  0.00  0.00    +0.044 A 
ATOM     24  C   UNL     1      -0.332   2.428  -4.208  0.00  0.00    +0.024 A 
ATOM     25  C   UNL     1      -0.637   3.100  -5.375  0.00  0.00    +0.002 A 
ATOM     26  C   UNL     1      -0.682   4.482  -5.387  0.00  0.00    +0.000 A 
ATOM     27  C   UNL     1      -0.428   5.195  -4.230  0.00  0.00    +0.002 A 
ATOM     28  C   UNL     1      -0.128   4.528  -3.058  0.00  0.00    +0.024 A 
ENDBRANCH   7  23
BRANCH  17  29
ATOM     29  C   UNL     1      -3.962   0.667   2.601  0.00  0.00    +0.202 C 
BRANCH  29  30
ATOM     30  C   UNL     1      -4.673  -0.101   1.566  0.00  0.00    -0.086 C 
ATOM     31  C   UNL     1      -5.240  -0.713   0.740  0.00  0.00    +0.005 C 
ENDBRANCH  29  30
ENDBRANCH  17  29
TORSDOF 3
