REMARK  Name = ZINC27519257
REMARK  5 active torsions:
REMARK  status: ('A' for Active; 'I' for Inactive)
REMARK    1  A    between atoms: C_3  and  C_10
REMARK    2  A    between atoms: C_5  and  N_7
REMARK    3  A    between atoms: C_11  and  C_12
REMARK    4  A    between atoms: C_15  and  N_16
REMARK    5  A    between atoms: N_16  and  C_17
REMARK                            x       y       z     vdW  Elec       q    Type
REMARK                         _______ _______ _______ _____ _____    ______ ____
ROOT
ATOM      1  C   UNL     1       4.791   4.216  -0.053  0.00  0.00    +0.225 C 
ATOM      2  N   UNL     1       4.883   5.552  -0.042  0.00  0.00    -0.205 NA
ATOM      3  C   UNL     1       6.153   5.905  -0.041  0.00  0.00    +0.165 C 
ATOM      4  C   UNL     1       6.688   7.271  -0.031  0.00  0.00    +0.107 C 
ATOM      5  C   UNL     1       6.934   4.639  -0.053  0.00  0.00    +0.366 C 
ATOM      6  O   UNL     1       8.142   4.519  -0.056  0.00  0.00    -0.243 OA
ATOM      7  O   UNL     1       6.013   3.649  -0.054  0.00  0.00    -0.403 OA
ENDROOT
BRANCH   1   9
ATOM      8  C   UNL     1       3.606   2.114  -0.062  0.00  0.00    +0.013 C 
ATOM      9  C   UNL     1       3.592   3.508  -0.057  0.00  0.00    +0.068 C 
BRANCH   8  12
ATOM     10  C   UNL     1      -0.012   1.376  -0.068  0.00  0.00    +0.003 A 
ATOM     11  C   UNL     1       1.158   2.082  -0.064  0.00  0.00    +0.008 A 
ATOM     12  C   UNL     1       2.388   1.395  -0.066  0.00  0.00    -0.023 A 
ATOM     13  C   UNL     1       2.396  -0.014  -0.072  0.00  0.00    +0.040 A 
ATOM     14  C   UNL     1       1.214  -0.698  -0.076  0.00  0.00    +0.127 A 
ATOM     15  C   UNL     1       0.008  -0.011  -0.074  0.00  0.00    +0.033 A 
BRANCH  14  16
ATOM     16  N   UNL     1       1.218  -2.178  -0.084  0.00  0.00    +0.056 N 
ATOM     17  O   UNL     1       2.361  -2.833  -0.086  0.00  0.00    -0.126 OA
ATOM     18  O   UNL     1       0.080  -2.840  -0.087  0.00  0.00    -0.126 OA
ENDBRANCH  14  16
ENDBRANCH   8  12
ENDBRANCH   1   9
BRANCH   4  19
ATOM     19  N   UNL     1       8.000   7.469  -0.031  0.00  0.00    -0.318 N 
ATOM     20  H   UNL     1       8.604   6.714   0.038  0.00  0.00    +0.152 HD
BRANCH  19  21
ATOM     21  C   UNL     1       8.506   8.758  -0.130  0.00  0.00    +0.045 A 
ATOM     22  C   UNL     1       7.643   9.852  -0.110  0.00  0.00    +0.025 A 
ATOM     23  C   UNL     1       8.151  11.130  -0.207  0.00  0.00    +0.017 A 
ATOM     24  C   UNL     1       9.518  11.328  -0.326  0.00  0.00    +0.019 A 
ATOM     25  C   UNL     1      10.380  10.245  -0.346  0.00  0.00    +0.032 A 
ATOM     26  C   UNL     1       9.881   8.961  -0.243  0.00  0.00    +0.040 A 
ATOM     27 BR   UNL     1      11.059   7.483  -0.264  0.00  0.00    -0.048 Br
ATOM     28 BR   UNL     1      10.207  13.084  -0.460  0.00  0.00    -0.050 Br
ENDBRANCH  19  21
ENDBRANCH   4  19
TORSDOF 5
