REMARK  Name = ZINC12702975
REMARK  12 active torsions:
REMARK  status: ('A' for Active; 'I' for Inactive)
REMARK    1  A    between atoms: C_1  and  C_2
REMARK    2  A    between atoms: C_6  and  N_9
REMARK    3  A    between atoms: C_7  and  C_8
REMARK    4  A    between atoms: N_9  and  C_10
REMARK    5  A    between atoms: C_10  and  C_12
REMARK    6  A    between atoms: C_10  and  C_19
REMARK    7  A    between atoms: C_15  and  O_18
REMARK    8  A    between atoms: N_21  and  C_22
REMARK    9  A    between atoms: C_27  and  C_29
REMARK   10  A    between atoms: C_29  and  N_30
REMARK   11  A    between atoms: C_32  and  C_35
REMARK   12  A    between atoms: C_38  and  C_40
REMARK                            x       y       z     vdW  Elec       q    Type
REMARK                         _______ _______ _______ _____ _____    ______ ____
ROOT
ATOM      1  N   UNL     1      -1.937   0.562   0.033  0.00  0.00    -0.254 N 
ATOM      2  C   UNL     1      -2.657   0.282   1.137  0.00  0.00    +0.244 C 
ATOM      3  O   UNL     1      -3.837   0.561   1.178  0.00  0.00    -0.273 OA
ENDROOT
BRANCH   1   9
ATOM      4  C   UNL     1       1.628  -2.573  -1.246  0.00  0.00    +0.044 C 
ATOM      5  C   UNL     1       1.180  -1.273  -0.630  0.00  0.00    -0.046 A 
ATOM      6  C   UNL     1       2.115  -0.394  -0.115  0.00  0.00    +0.004 A 
ATOM      7  C   UNL     1       1.708   0.799   0.453  0.00  0.00    +0.002 A 
ATOM      8  C   UNL     1       0.365   1.118   0.506  0.00  0.00    +0.024 A 
ATOM      9  C   UNL     1      -0.576   0.240  -0.015  0.00  0.00    +0.041 A 
ATOM     10  C   UNL     1      -0.164  -0.960  -0.579  0.00  0.00    -0.026 A 
ATOM     11  C   UNL     1      -1.183  -1.918  -1.140  0.00  0.00    +0.046 C 
ENDBRANCH   1   9
BRANCH   1  12
ATOM     12  C   UNL     1      -2.579   1.204  -1.117  0.00  0.00    +0.197 C 
BRANCH  12  13
ATOM     13  C   UNL     1      -3.062   2.576  -0.722  0.00  0.00    -0.018 A 
ATOM     14  C   UNL     1      -2.225   3.428  -0.025  0.00  0.00    +0.009 A 
ATOM     15  C   UNL     1      -2.664   4.688   0.333  0.00  0.00    +0.046 A 
ATOM     16  C   UNL     1      -3.950   5.093   0.004  0.00  0.00    +0.117 A 
ATOM     17  C   UNL     1      -4.789   4.234  -0.691  0.00  0.00    +0.046 A 
ATOM     18  C   UNL     1      -4.343   2.977  -1.052  0.00  0.00    +0.009 A 
BRANCH  16  19
ATOM     19  O   UNL     1      -4.386   6.330   0.360  0.00  0.00    -0.507 OA
ATOM     20  H   UNL     1      -4.811   6.362   1.229  0.00  0.00    +0.292 HD
ENDBRANCH  16  19
ENDBRANCH  12  13
BRANCH  12  21
ATOM     21  C   UNL     1      -1.585   1.327  -2.243  0.00  0.00    +0.239 C 
ATOM     22  O   UNL     1      -0.459   1.719  -2.018  0.00  0.00    -0.273 OA
ATOM     23  N   UNL     1      -1.946   1.001  -3.500  0.00  0.00    -0.311 N 
ATOM     24  H   UNL     1      -2.846   0.688  -3.680  0.00  0.00    +0.149 HD
BRANCH  23  25
ATOM     25  C   UNL     1      -0.980   1.121  -4.595  0.00  0.00    +0.073 C 
ATOM     26  C   UNL     1      -1.022   2.546  -5.184  0.00  0.00    +0.022 C 
ATOM     27  C   UNL     1      -0.816   2.334  -6.705  0.00  0.00    +0.002 C 
ATOM     28  C   UNL     1      -1.615   1.036  -6.981  0.00  0.00    +0.002 C 
ATOM     29  C   UNL     1      -1.356   0.161  -5.737  0.00  0.00    +0.022 C 
ENDBRANCH  23  25
ENDBRANCH  12  21
ENDBRANCH   1  12
BRANCH   2  30
ATOM     30  C   UNL     1      -1.997  -0.378   2.320  0.00  0.00    +0.264 C 
BRANCH  30  31
ATOM     31  N   UNL     1      -2.985  -0.574   3.384  0.00  0.00    -0.154 N 
ATOM     32  N   UNL     1      -3.246   0.270   4.323  0.00  0.00    -0.127 NA
ATOM     33  C   UNL     1      -4.188  -0.255   5.085  0.00  0.00    +0.239 A 
ATOM     34  N   UNL     1      -4.476  -1.458   4.565  0.00  0.00    -0.105 NA
ATOM     35  N   UNL     1      -3.724  -1.618   3.530  0.00  0.00    -0.045 NA
BRANCH  33  36
ATOM     36  C   UNL     1      -4.802   0.362   6.281  0.00  0.00    +0.175 A 
ATOM     37  C   UNL     1      -5.772  -0.192   7.055  0.00  0.00    +0.053 A 
ATOM     38  C   UNL     1      -6.054   0.735   8.078  0.00  0.00    +0.045 A 
ATOM     39  C   UNL     1      -5.256   1.801   7.875  0.00  0.00    +0.103 A 
ATOM     40  O   UNL     1      -4.501   1.573   6.789  0.00  0.00    -0.457 OA
ATOM     41  C   UNL     1      -5.217   3.045   8.726  0.00  0.00    +0.086 C 
ENDBRANCH  33  36
ENDBRANCH  30  31
ENDBRANCH   2  30
TORSDOF 9
