REMARK  Name = ZINC00227874
REMARK  3 active torsions:
REMARK  status: ('A' for Active; 'I' for Inactive)
REMARK    1  A    between atoms: C_5  and  C_7
REMARK    2  A    between atoms: N_9  and  N_10
REMARK    3  A    between atoms: C_11  and  C_12
REMARK                            x       y       z     vdW  Elec       q    Type
REMARK                         _______ _______ _______ _____ _____    ______ ____
ROOT
ATOM      1  C   UNL     1       1.267  -2.145  -0.023  0.00  0.00    +0.282 C 
ATOM      2  O   UNL     1       0.230  -2.779  -0.017  0.00  0.00    -0.267 OA
ATOM      3  N   UNL     1       2.450  -2.789  -0.039  0.00  0.00    -0.202 N 
ATOM      4  H   UNL     1       3.278  -2.283  -0.044  0.00  0.00    +0.178 HD
ENDROOT
BRANCH   1   9
ATOM      5  C   UNL     1      -0.017   1.381   0.010  0.00  0.00    +0.004 A 
ATOM      6  C   UNL     1       1.193   2.059   0.002  0.00  0.00    +0.020 A 
ATOM      7  C   UNL     1       2.376   1.338  -0.013  0.00  0.00    +0.111 A 
ATOM      8  N   UNL     1       2.365   0.023  -0.021  0.00  0.00    -0.250 NA
ATOM      9  C   UNL     1       1.229  -0.664  -0.014  0.00  0.00    +0.127 A 
ATOM     10  C   UNL     1       0.002  -0.004   0.002  0.00  0.00    +0.033 A 
ENDBRANCH   1   9
BRANCH   3  11
ATOM     11  N   UNL     1       2.486  -4.189  -0.047  0.00  0.00    -0.187 NA
ATOM     12  C   UNL     1       3.626  -4.810  -0.062  0.00  0.00    +0.139 C 
BRANCH  12  13
ATOM     13  C   UNL     1       3.663  -6.284  -0.072  0.00  0.00    +0.014 A 
ATOM     14  C   UNL     1       4.888  -6.955  -0.082  0.00  0.00    +0.011 A 
ATOM     15  C   UNL     1       4.917  -8.333  -0.090  0.00  0.00    +0.002 A 
ATOM     16  C   UNL     1       3.735  -9.054  -0.088  0.00  0.00    +0.021 A 
ATOM     17  C   UNL     1       2.516  -8.397  -0.078  0.00  0.00    +0.060 A 
ATOM     18  C   UNL     1       2.473  -7.016  -0.064  0.00  0.00    +0.068 A 
ATOM     19 CL   UNL     1       0.944  -6.193  -0.044  0.00  0.00    -0.081 Cl
ATOM     20 CL   UNL     1       1.040  -9.311  -0.076  0.00  0.00    -0.082 Cl
ENDBRANCH  12  13
ENDBRANCH   3  11
TORSDOF 3
