REMARK  Name = ZINC49181655
REMARK  12 active torsions:
REMARK  status: ('A' for Active; 'I' for Inactive)
REMARK    1  A    between atoms: C_1  and  C_2
REMARK    2  A    between atoms: C_2  and  C_4
REMARK    3  A    between atoms: C_2  and  O_42
REMARK    4  A    between atoms: C_4  and  O_41
REMARK    5  A    between atoms: C_5  and  C_37
REMARK    6  A    between atoms: C_14  and  C_36
REMARK    7  A    between atoms: C_18  and  C_35
REMARK    8  A    between atoms: C_19  and  O_34
REMARK    9  A    between atoms: C_28  and  C_29
REMARK   10  A    between atoms: C_28  and  C_30
REMARK   11  A    between atoms: C_37  and  O_39
REMARK   12  A    between atoms: O_39  and  C_40
REMARK                            x       y       z     vdW  Elec       q    Type
REMARK                         _______ _______ _______ _____ _____    ______ ____
ROOT
ATOM      1  C   UNL     1       1.801  -0.694   0.376  0.00  0.00    +0.214 C 
ATOM      2  C   UNL     1       1.567  -2.171   0.751  0.00  0.00    +0.141 C 
ATOM      3  C   UNL     1       1.064  -2.089   2.167  0.00  0.00    +0.097 C 
ATOM      4  C   UNL     1       1.560  -0.662   2.591  0.00  0.00    +0.319 C 
ATOM      5  O   UNL     1       1.217   0.098   1.480  0.00  0.00    -0.306 OA
ATOM      6  O   UNL     1       1.233  -0.623   3.932  0.00  0.00    -0.434 OA
ATOM      7  C   UNL     1       1.551  -1.841   4.464  0.00  0.00    +0.316 C 
ATOM      8  O   UNL     1       1.712  -2.071   5.640  0.00  0.00    -0.250 OA
ATOM      9  C   UNL     1       1.673  -2.872   3.310  0.00  0.00    +0.075 C 
ATOM     10  C   UNL     1       3.166  -3.049   3.094  0.00  0.00    +0.025 C 
ATOM     11  C   UNL     1       3.747  -3.021   1.700  0.00  0.00    +0.039 C 
ATOM     12  C   UNL     1       2.756  -3.100   0.558  0.00  0.00    +0.025 C 
ATOM     13  C   UNL     1       3.428  -2.797  -0.777  0.00  0.00    +0.145 C 
ATOM     14  C   UNL     1       4.391  -3.803  -1.278  0.00  0.00    +0.012 C 
ATOM     15  C   UNL     1       5.452  -4.339  -0.821  0.00  0.00    -0.000 C 
ATOM     16  C   UNL     1       5.846  -4.181   0.597  0.00  0.00    +0.000 C 
ATOM     17  C   UNL     1       7.165  -4.160   0.879  0.00  0.00    +0.098 C 
ATOM     18  C   UNL     1       8.097  -4.349  -0.174  0.00  0.00    +0.333 C 
ATOM     19  O   UNL     1       9.281  -4.188   0.055  0.00  0.00    -0.246 OA
ATOM     20  O   UNL     1       7.716  -4.716  -1.409  0.00  0.00    -0.451 OA
ATOM     21  C   UNL     1       6.391  -5.240  -1.607  0.00  0.00    +0.133 C 
ATOM     22  C   UNL     1       6.312  -6.675  -1.077  0.00  0.00    +0.061 C 
ATOM     23  C   UNL     1       6.079  -5.227  -3.105  0.00  0.00    +0.061 C 
ATOM     24  C   UNL     1       4.810  -4.123   1.672  0.00  0.00    +0.122 C 
ATOM     25  C   UNL     1       5.343  -4.585   3.050  0.00  0.00    +0.201 C 
ATOM     26  O   UNL     1       4.437  -5.371   2.282  0.00  0.00    -0.363 OA
ATOM     27  C   UNL     1       2.215  -4.545   0.481  0.00  0.00    +0.016 C 
ATOM     28  C   UNL     1       0.946  -4.190   3.616  0.00  0.00    +0.023 C 
ENDROOT
BRANCH   1  30
ATOM     29  C   UNL     1       0.246   0.957  -0.678  0.00  0.00    +0.043 C 
ATOM     30  C   UNL     1       1.051  -0.324  -0.908  0.00  0.00    +0.172 C 
BRANCH  30  31
ATOM     31  O   UNL     1       1.990  -0.112  -1.964  0.00  0.00    -0.387 OA
ATOM     32  H   UNL     1       2.661   0.555  -1.766  0.00  0.00    +0.210 HD
ENDBRANCH  30  31
ENDBRANCH   1  30
BRANCH  13  33
ATOM     33  O   UNL     1       2.471  -2.655  -1.826  0.00  0.00    -0.387 OA
ATOM     34  H   UNL     1       2.862  -2.530  -2.701  0.00  0.00    +0.210 HD
ENDBRANCH  13  33
BRANCH   2  35
ATOM     35  C   UNL     1       0.388  -2.702  -0.052  0.00  0.00    +0.320 C 
ATOM     36  O   UNL     1       0.571  -3.515  -0.927  0.00  0.00    -0.250 OA
BRANCH  35  37
ATOM     37  O   UNL     1      -0.854  -2.267   0.211  0.00  0.00    -0.467 OA
ATOM     38  C   UNL     1      -1.913  -2.807  -0.582  0.00  0.00    +0.280 C 
ENDBRANCH  35  37
ENDBRANCH   2  35
BRANCH   1  39
ATOM     39  O   UNL     1       3.175  -0.341   0.274  0.00  0.00    -0.362 OA
ATOM     40  H   UNL     1       3.328   0.601   0.118  0.00  0.00    +0.213 HD
ENDBRANCH   1  39
TORSDOF 6
