REMARK  Name = ZINC39451966
REMARK  9 active torsions:
REMARK  status: ('A' for Active; 'I' for Inactive)
REMARK    1  A    between atoms: C_1  and  C_2
REMARK    2  A    between atoms: C_2  and  O_3
REMARK    3  A    between atoms: O_3  and  C_4
REMARK    4  A    between atoms: C_14  and  C_17
REMARK    5  A    between atoms: C_22  and  O_23
REMARK    6  A    between atoms: N_26  and  S_27
REMARK    7  A    between atoms: S_27  and  C_30
REMARK    8  A    between atoms: C_30  and  C_31
REMARK    9  A    between atoms: C_30  and  C_32
REMARK                            x       y       z     vdW  Elec       q    Type
REMARK                         _______ _______ _______ _____ _____    ______ ____
ROOT
ATOM      1  C   UNL     1       1.390  -1.704   1.442  0.00  0.00    +0.211 C 
ATOM      2  C   UNL     1       1.866  -2.214   2.807  0.00  0.00    +0.132 C 
ATOM      3  C   UNL     1       1.920  -3.719   2.787  0.00  0.00    +0.187 C 
ATOM      4  O   UNL     1       1.735  -4.342   3.813  0.00  0.00    -0.290 OA
ATOM      5  C   UNL     1       2.185  -4.414   1.585  0.00  0.00    +0.134 A 
ATOM      6  C   UNL     1       2.338  -3.710   0.404  0.00  0.00    +0.085 A 
ATOM      7  C   UNL     1       2.620  -4.431  -0.844  0.00  0.00    +0.099 A 
ATOM      8  C   UNL     1       2.717  -5.840  -0.793  0.00  0.00    +0.069 A 
ATOM      9  C   UNL     1       2.983  -6.549  -1.962  0.00  0.00    +0.025 A 
ATOM     10  C   UNL     1       3.144  -5.823  -3.143  0.00  0.00    +0.004 A 
ATOM     11  C   UNL     1       3.034  -4.429  -3.112  0.00  0.00    +0.120 A 
ATOM     12  N   UNL     1       2.781  -3.788  -1.994  0.00  0.00    -0.252 NA
ATOM     13  C   UNL     1       2.533  -6.519   0.498  0.00  0.00    +0.281 A 
ATOM     14  O   UNL     1       2.610  -7.732   0.564  0.00  0.00    -0.265 OA
ATOM     15  N   UNL     1       2.280  -5.800   1.607  0.00  0.00    -0.174 N 
ATOM     16  N   UNL     1       2.218  -2.333   0.401  0.00  0.00    -0.315 N 
ATOM     17  H   UNL     1       2.668  -1.796  -0.269  0.00  0.00    +0.149 HD
ENDROOT
BRANCH  10  18
ATOM     18  C   UNL     1       3.430  -6.523  -4.418  0.00  0.00    +0.025 A 
ATOM     19  C   UNL     1       4.450  -7.471  -4.484  0.00  0.00    +0.012 A 
ATOM     20  C   UNL     1       4.712  -8.120  -5.673  0.00  0.00    +0.001 A 
ATOM     21  C   UNL     1       3.964  -7.834  -6.802  0.00  0.00    +0.004 A 
ATOM     22  C   UNL     1       2.950  -6.897  -6.749  0.00  0.00    +0.046 A 
ATOM     23  C   UNL     1       2.672  -6.241  -5.560  0.00  0.00    +0.125 A 
BRANCH  23  24
ATOM     24  O   UNL     1       1.673  -5.323  -5.505  0.00  0.00    -0.506 OA
ATOM     25  H   UNL     1       1.955  -4.421  -5.711  0.00  0.00    +0.292 HD
ENDBRANCH  23  24
ENDBRANCH  10  18
BRANCH  15  26
ATOM     26  S   UNL     1       2.077  -6.593   3.047  0.00  0.00    +0.060 S 
ATOM     27  O   UNL     1       2.272  -7.965   2.735  0.00  0.00    -0.153 OA
ATOM     28  O   UNL     1       2.943  -5.926   3.954  0.00  0.00    -0.153 OA
BRANCH  26  29
ATOM     29  C   UNL     1       0.346  -6.295   3.502  0.00  0.00    +0.148 C 
ATOM     30  C   UNL     1      -0.573  -6.962   2.476  0.00  0.00    +0.033 C 
ATOM     31  C   UNL     1       0.075  -6.885   4.888  0.00  0.00    +0.033 C 
ENDBRANCH  26  29
ENDBRANCH  15  26
BRANCH   1  32
ATOM     32  O   UNL     1       1.536  -0.284   1.381  0.00  0.00    -0.359 OA
BRANCH  32  34
ATOM     33  C   UNL     1       1.059   1.839   0.329  0.00  0.00    +0.034 C 
ATOM     34  C   UNL     1       0.832   0.327   0.297  0.00  0.00    +0.159 C 
ENDBRANCH  32  34
ENDBRANCH   1  32
TORSDOF 6
