REMARK  Name = ZINC44483670
REMARK  5 active torsions:
REMARK  status: ('A' for Active; 'I' for Inactive)
REMARK    1  A    between atoms: C_4  and  N_7
REMARK    2  A    between atoms: N_7  and  C_8
REMARK    3  A    between atoms: C_8  and  C_9
REMARK    4  A    between atoms: C_12  and  C_14
REMARK    5  A    between atoms: C_19  and  O_20
REMARK                            x       y       z     vdW  Elec       q    Type
REMARK                         _______ _______ _______ _____ _____    ______ ____
ROOT
ATOM      1  N   UNL     1       3.662  -0.516   0.594  0.00  0.00    -0.256 N 
ATOM      2  C   UNL     1       4.726   0.257   0.300  0.00  0.00    +0.255 C 
ATOM      3  O   UNL     1       4.565   1.331  -0.246  0.00  0.00    -0.269 OA
ENDROOT
BRANCH   2   4
ATOM      4  C   UNL     1       6.086  -0.201   0.641  0.00  0.00    +0.079 A 
ATOM      5  C   UNL     1       6.375  -1.567   0.693  0.00  0.00    +0.018 A 
ATOM      6  C   UNL     1       7.647  -1.988   1.012  0.00  0.00    +0.016 A 
ATOM      7  C   UNL     1       8.643  -1.062   1.282  0.00  0.00    +0.021 A 
ATOM      8  C   UNL     1       8.371   0.292   1.233  0.00  0.00    +0.061 A 
ATOM      9  C   UNL     1       7.097   0.733   0.908  0.00  0.00    +0.130 A 
ATOM     10 BR   UNL     1      10.385  -1.655   1.719  0.00  0.00    -0.050 Br
BRANCH   9  11
ATOM     11  O   UNL     1       6.829   2.061   0.856  0.00  0.00    -0.506 OA
ATOM     12  H   UNL     1       6.534   2.437   1.696  0.00  0.00    +0.292 HD
ENDBRANCH   9  11
ENDBRANCH   2   4
BRANCH   1  16
ATOM     13  C   UNL     1      -0.151   0.641  -0.621  0.00  0.00    +0.000 A 
ATOM     14  C   UNL     1       0.957   1.330  -1.078  0.00  0.00    +0.002 A 
ATOM     15  C   UNL     1       2.223   0.949  -0.677  0.00  0.00    +0.023 A 
ATOM     16  C   UNL     1       2.381  -0.128   0.186  0.00  0.00    +0.037 A 
ATOM     17  C   UNL     1       1.266  -0.817   0.644  0.00  0.00    +0.023 A 
ATOM     18  C   UNL     1       0.003  -0.431   0.239  0.00  0.00    +0.002 A 
ENDBRANCH   1  16
BRANCH   1  19
ATOM     19  C   UNL     1       3.846  -1.763   1.340  0.00  0.00    +0.239 C 
BRANCH  19  20
ATOM     20  C   UNL     1       3.588  -2.936   0.429  0.00  0.00    +0.373 C 
ATOM     21  O   UNL     1       3.279  -2.748  -0.735  0.00  0.00    -0.245 OA
ATOM     22  O   UNL     1       3.688  -4.074   0.857  0.00  0.00    -0.245 OA
ENDBRANCH  19  20
ENDBRANCH   1  19
TORSDOF 5
