REMARK  Name = ZINC43291191
REMARK  8 active torsions:
REMARK  status: ('A' for Active; 'I' for Inactive)
REMARK    1  A    between atoms: C_1  and  C_2
REMARK    2  A    between atoms: C_2  and  C_3
REMARK    3  A    between atoms: C_3  and  C_5
REMARK    4  A    between atoms: C_3  and  N_23
REMARK    5  A    between atoms: C_5  and  C_7
REMARK    6  A    between atoms: C_5  and  S_13
REMARK    7  A    between atoms: S_13  and  C_14
REMARK    8  A    between atoms: C_20  and  N_22
REMARK                            x       y       z     vdW  Elec       q    Type
REMARK                         _______ _______ _______ _____ _____    ______ ____
ROOT
ATOM      1  C   UNL     1       0.759  -2.078  -1.587  0.00  0.00    +0.076 C 
ENDROOT
BRANCH   1   2
ATOM      2  C   UNL     1       1.359  -2.648  -2.846  0.00  0.00    +0.003 A 
ATOM      3  C   UNL     1       2.442  -3.451  -2.988  0.00  0.00    +0.027 A 
ATOM      4  C   UNL     1       2.815  -3.856  -4.257  0.00  0.00    +0.025 A 
ATOM      5  C   UNL     1       2.086  -3.438  -5.321  0.00  0.00    +0.060 A 
ATOM      6  S   UNL     1       0.825  -2.447  -4.538  0.00  0.00    -0.099 S 
ATOM      7 BR   UNL     1       4.318  -4.976  -4.503  0.00  0.00    -0.050 Br
ENDBRANCH   1   2
BRANCH   1   8
ATOM      8  C   UNL     1       0.773  -0.550  -1.662  0.00  0.00    -0.057 C 
BRANCH   8   9
ATOM      9  N   UNL     1       2.155  -0.080  -1.834  0.00  0.00    +0.381 N 
ATOM     10  H   UNL     1       2.713  -0.384  -1.050  0.00  0.00    -0.090 HD
ATOM     11  H   UNL     1       2.536  -0.462  -2.686  0.00  0.00    -0.090 HD
ATOM     12  H   UNL     1       2.164   0.927  -1.883  0.00  0.00    -0.090 HD
ENDBRANCH   8   9
BRANCH   8  14
ATOM     13  C   UNL     1       0.086   1.550  -0.496  0.00  0.00    +0.002 C 
ATOM     14  C   UNL     1       0.195   0.030  -0.369  0.00  0.00    -0.018 C 
ENDBRANCH   8  14
ENDBRANCH   1   8
BRANCH   1  15
ATOM     15  S   UNL     1      -0.951  -2.659  -1.415  0.00  0.00    -0.081 S 
BRANCH  15  16
ATOM     16  C   UNL     1      -0.786  -4.389  -1.128  0.00  0.00    +0.171 A 
ATOM     17  N   UNL     1      -1.904  -5.165  -1.065  0.00  0.00    -0.302 N 
ATOM     18  H   UNL     1      -2.779  -4.763  -1.180  0.00  0.00    +0.171 HD
ATOM     19  C   UNL     1      -1.796  -6.492  -0.846  0.00  0.00    +0.254 A 
ATOM     20  O   UNL     1      -2.793  -7.195  -0.789  0.00  0.00    -0.268 OA
ATOM     21  C   UNL     1      -0.524  -7.049  -0.685  0.00  0.00    +0.113 A 
ATOM     22  C   UNL     1       0.584  -6.216  -0.757  0.00  0.00    +0.124 A 
ATOM     23  N   UNL     1       0.417  -4.908  -0.982  0.00  0.00    -0.209 NA
BRANCH  22  24
ATOM     24  N   UNL     1       1.853  -6.735  -0.602  0.00  0.00    -0.343 N 
ATOM     25  H   UNL     1       1.973  -7.685  -0.442  0.00  0.00    +0.144 HD
ATOM     26  H   UNL     1       2.626  -6.151  -0.652  0.00  0.00    +0.144 HD
ENDBRANCH  22  24
ENDBRANCH  15  16
ENDBRANCH   1  15
TORSDOF 7
