REMARK  Name = ZINC05274820
REMARK  7 active torsions:
REMARK  status: ('A' for Active; 'I' for Inactive)
REMARK    1  A    between atoms: C_1  and  C_2
REMARK    2  A    between atoms: N_5  and  N_24
REMARK    3  A    between atoms: N_9  and  C_10
REMARK    4  A    between atoms: C_10  and  C_11
REMARK    5  A    between atoms: C_11  and  C_12
REMARK    6  A    between atoms: C_19  and  O_22
REMARK    7  A    between atoms: O_22  and  C_23
REMARK                            x       y       z     vdW  Elec       q    Type
REMARK                         _______ _______ _______ _____ _____    ______ ____
ROOT
ATOM      1  C   UNL     1       5.405   1.968  -1.478  0.00  0.00    +0.109 C 
ENDROOT
BRANCH   1  10
ATOM      2  C   UNL     1       9.301   0.918  -6.400  0.00  0.00    +0.073 C 
ATOM      3  C   UNL     1       8.667   1.135  -5.050  0.00  0.00    +0.126 A 
ATOM      4  C   UNL     1       9.456   1.106  -3.880  0.00  0.00    +0.293 A 
ATOM      5  O   UNL     1      10.657   0.906  -3.938  0.00  0.00    -0.264 OA
ATOM      6  N   UNL     1       8.842   1.307  -2.691  0.00  0.00    -0.199 N 
ATOM      7  C   UNL     1       7.498   1.526  -2.682  0.00  0.00    +0.235 A 
ATOM      8  N   UNL     1       6.813   1.536  -3.812  0.00  0.00    -0.113 NA
ATOM      9  N   UNL     1       7.377   1.353  -4.952  0.00  0.00    -0.146 NA
ATOM     10  N   UNL     1       6.851   1.732  -1.494  0.00  0.00    -0.312 N 
ATOM     11  H   UNL     1       7.350   1.722  -0.662  0.00  0.00    +0.149 HD
BRANCH   6  12
ATOM     12  N   UNL     1       9.554   1.290  -1.525  0.00  0.00    -0.293 N 
ATOM     13  H   UNL     1      10.532   1.116  -1.702  0.00  0.00    +0.163 HD
ATOM     14  H   UNL     1       9.427   2.148  -1.011  0.00  0.00    +0.163 HD
ENDBRANCH   6  12
ENDBRANCH   1  10
BRANCH   1  15
ATOM     15  C   UNL     1       4.937   2.167  -0.035  0.00  0.00    +0.056 C 
BRANCH  15  16
ATOM     16  C   UNL     1       3.449   2.410  -0.019  0.00  0.00    -0.021 A 
ATOM     17  C   UNL     1       2.836   3.603  -0.006  0.00  0.00    +0.087 A 
ATOM     18  N   UNL     1       1.479   3.430   0.006  0.00  0.00    -0.360 N 
ATOM     19  H   UNL     1       0.825   4.147   0.017  0.00  0.00    +0.165 HD
ATOM     20  C   UNL     1       1.178   2.084   0.002  0.00  0.00    +0.047 A 
ATOM     21  C   UNL     1       2.400   1.388  -0.014  0.00  0.00    +0.006 A 
ATOM     22  C   UNL     1       2.407  -0.009  -0.021  0.00  0.00    +0.056 A 
ATOM     23  C   UNL     1       1.210  -0.697  -0.013  0.00  0.00    +0.121 A 
ATOM     24  C   UNL     1       0.002  -0.004   0.002  0.00  0.00    +0.047 A 
ATOM     25  C   UNL     1      -0.017   1.373   0.010  0.00  0.00    +0.030 A 
BRANCH  23  26
ATOM     26  O   UNL     1       1.210  -2.057  -0.021  0.00  0.00    -0.495 OA
ATOM     27  C   UNL     1      -0.063  -2.706  -0.012  0.00  0.00    +0.277 C 
ENDBRANCH  23  26
ENDBRANCH  15  16
ENDBRANCH   1  15
TORSDOF 5
