REMARK  Name = ZINC41080596
REMARK  8 active torsions:
REMARK  status: ('A' for Active; 'I' for Inactive)
REMARK    1  A    between atoms: C_1  and  C_2
REMARK    2  A    between atoms: C_2  and  O_3
REMARK    3  A    between atoms: O_3  and  C_4
REMARK    4  A    between atoms: C_4  and  C_6
REMARK    5  A    between atoms: C_9  and  O_13
REMARK    6  A    between atoms: C_10  and  N_12
REMARK    7  A    between atoms: O_13  and  C_14
REMARK    8  A    between atoms: C_20  and  C_22
REMARK                            x       y       z     vdW  Elec       q    Type
REMARK                         _______ _______ _______ _____ _____    ______ ____
ROOT
ATOM      1  C   UNL     1      -2.852  -2.419   0.019  0.00  0.00    +0.061 A 
ATOM      2  C   UNL     1      -3.963  -1.603   0.248  0.00  0.00    +0.018 A 
ATOM      3  C   UNL     1      -5.229  -2.148   0.255  0.00  0.00    +0.048 A 
ATOM      4  C   UNL     1      -5.405  -3.507   0.035  0.00  0.00    +0.141 A 
ATOM      5  C   UNL     1      -4.300  -4.329  -0.195  0.00  0.00    +0.068 A 
ATOM      6  C   UNL     1      -3.028  -3.787  -0.208  0.00  0.00    +0.041 A 
ENDROOT
BRANCH   5   7
ATOM      7  N   UNL     1      -4.481  -5.699  -0.416  0.00  0.00    -0.355 N 
ATOM      8  H   UNL     1      -5.374  -6.078  -0.411  0.00  0.00    +0.142 HD
ATOM      9  H   UNL     1      -3.713  -6.270  -0.576  0.00  0.00    +0.142 HD
ENDBRANCH   5   7
BRANCH   1  10
ATOM     10  C   UNL     1      -1.497  -1.837   0.011  0.00  0.00    +0.339 C 
ATOM     11  O   UNL     1      -0.532  -2.547  -0.193  0.00  0.00    -0.245 OA
BRANCH  10  12
ATOM     12  O   UNL     1      -1.329  -0.518   0.230  0.00  0.00    -0.461 OA
BRANCH  12  14
ATOM     13  C   UNL     1       0.002   1.484   0.474  0.00  0.00    +0.048 C 
ATOM     14  C   UNL     1       0.011  -0.023   0.208  0.00  0.00    +0.229 C 
ENDBRANCH  12  14
ENDBRANCH  10  12
ENDBRANCH   1  10
BRANCH   4  15
ATOM     15  O   UNL     1      -6.655  -4.038   0.043  0.00  0.00    -0.487 OA
BRANCH  15  16
ATOM     16  C   UNL     1      -7.747  -3.125   0.164  0.00  0.00    +0.176 C 
ATOM     17  C   UNL     1      -7.996  -2.820   1.642  0.00  0.00    +0.045 C 
ATOM     18  C   UNL     1      -8.332  -4.117   2.381  0.00  0.00    +0.004 C 
ATOM     19  C   UNL     1      -9.588  -4.742   1.770  0.00  0.00    +0.000 C 
ATOM     20  C   UNL     1      -9.339  -5.047   0.292  0.00  0.00    +0.007 C 
ATOM     21  C   UNL     1      -9.004  -3.750  -0.447  0.00  0.00    +0.027 C 
ATOM     22  C   UNL     1      -8.755  -4.055  -1.925  0.00  0.00    +0.011 C 
ENDBRANCH  15  16
ENDBRANCH   4  15
TORSDOF 6
