REMARK  Name = ZINC24879263
REMARK  7 active torsions:
REMARK  status: ('A' for Active; 'I' for Inactive)
REMARK    1  A    between atoms: C_1  and  C_2
REMARK    2  A    between atoms: C_5  and  C_22
REMARK    3  A    between atoms: C_6  and  O_8
REMARK    4  A    between atoms: O_8  and  C_9
REMARK    5  A    between atoms: C_9  and  C_10
REMARK    6  A    between atoms: C_13  and  C_19
REMARK    7  A    between atoms: C_15  and  N_16
REMARK                            x       y       z     vdW  Elec       q    Type
REMARK                         _______ _______ _______ _____ _____    ______ ____
ROOT
ATOM      1  C   UNL     1      -2.513   0.974   0.019  0.00  0.00    +0.266 C 
ENDROOT
BRANCH   1   2
ATOM      2  C   UNL     1      -1.221   1.750   0.017  0.00  0.00    +0.020 A 
ATOM      3  C   UNL     1      -0.013   1.076   0.008  0.00  0.00    +0.010 A 
ATOM      4  C   UNL     1       1.173   1.780   0.000  0.00  0.00    +0.013 A 
ATOM      5  C   UNL     1       1.153   3.176   0.008  0.00  0.00    +0.039 A 
ATOM      6  C   UNL     1      -0.070   3.849   0.023  0.00  0.00    +0.046 A 
ATOM      7  C   UNL     1      -1.249   3.133   0.031  0.00  0.00    +0.133 A 
BRANCH   5   8
ATOM      8  C   UNL     1       2.420   3.937   0.001  0.00  0.00    +0.242 C 
ATOM      9  O   UNL     1       2.399   5.153   0.007  0.00  0.00    -0.270 OA
ATOM     10  N   UNL     1       3.599   3.284  -0.014  0.00  0.00    -0.325 N 
ATOM     11  H   UNL     1       4.542   3.850  -0.019  0.00  0.00    +0.145 HD
ATOM     12  H   UNL     1       3.618   2.184  -0.020  0.00  0.00    +0.145 HD
ENDBRANCH   5   8
BRANCH   7  13
ATOM     13  N   UNL     1      -2.546   3.845   0.047  0.00  0.00    +0.057 N 
ATOM     14  O   UNL     1      -2.572   5.063   0.054  0.00  0.00    -0.126 OA
ATOM     15  O   UNL     1      -3.587   3.214   0.054  0.00  0.00    -0.126 OA
ENDBRANCH   7  13
ENDBRANCH   1   2
BRANCH   1  16
ATOM     16  O   UNL     1      -2.227  -0.426   0.009  0.00  0.00    -0.487 OA
BRANCH  16  22
ATOM     17  C   UNL     1      -7.061  -1.073   0.026  0.00  0.00    +0.044 C 
ATOM     18  C   UNL     1      -5.660  -1.628   0.017  0.00  0.00    -0.047 A 
ATOM     19  C   UNL     1      -5.462  -2.999   0.008  0.00  0.00    +0.004 A 
ATOM     20  C   UNL     1      -4.186  -3.518  -0.001  0.00  0.00    +0.017 A 
ATOM     21  C   UNL     1      -3.085  -2.658  -0.005  0.00  0.00    +0.078 A 
ATOM     22  C   UNL     1      -3.289  -1.271   0.009  0.00  0.00    +0.133 A 
ATOM     23  C   UNL     1      -4.581  -0.767   0.018  0.00  0.00    +0.049 A 
BRANCH  21  24
ATOM     24  C   UNL     1      -1.715  -3.206  -0.021  0.00  0.00    +0.245 C 
ATOM     25  O   UNL     1      -0.759  -2.454  -0.021  0.00  0.00    -0.270 OA
ATOM     26  N   UNL     1      -1.523  -4.540  -0.035  0.00  0.00    -0.325 N 
ATOM     27  H   UNL     1      -0.502  -4.949  -0.047  0.00  0.00    +0.145 HD
ATOM     28  H   UNL     1      -2.388  -5.220  -0.035  0.00  0.00    +0.145 HD
ENDBRANCH  21  24
ENDBRANCH  16  22
ENDBRANCH   1  16
TORSDOF 6
