REMARK  Name = ZINC03531971
REMARK  12 active torsions:
REMARK  status: ('A' for Active; 'I' for Inactive)
REMARK    1  A    between atoms: C_1  and  C_2
REMARK    2  A    between atoms: C_3  and  C_23
REMARK    3  A    between atoms: C_4  and  C_22
REMARK    4  A    between atoms: C_7  and  C_8
REMARK    5  A    between atoms: C_8  and  O_10
REMARK    6  A    between atoms: O_10  and  C_11
REMARK    7  A    between atoms: C_11  and  C_12
REMARK    8  A    between atoms: N_17  and  C_18
REMARK    9  A    between atoms: C_18  and  C_19
REMARK   10  A    between atoms: C_18  and  C_20
REMARK   11  A    between atoms: C_18  and  C_21
REMARK   12  A    between atoms: C_23  and  C_25
REMARK                            x       y       z     vdW  Elec       q    Type
REMARK                         _______ _______ _______ _____ _____    ______ ____
ROOT
ATOM      1  O   UNL     1      -1.351   1.942   0.963  0.00  0.00    -0.451 OA
ENDROOT
BRANCH   1   2
ATOM      2  C   UNL     1      -1.308   3.276   1.158  0.00  0.00    +0.356 C 
ATOM      3  O   UNL     1      -0.940   4.010   0.261  0.00  0.00    -0.243 OA
BRANCH   2  10
ATOM      4  C   UNL     1      -1.294   6.308   1.885  0.00  0.00    +0.047 C 
ATOM      5  C   UNL     1      -1.701   5.165   2.779  0.00  0.00    -0.008 A 
ATOM      6  C   UNL     1      -2.157   5.262   4.115  0.00  0.00    +0.041 A 
ATOM      7  C   UNL     1      -2.412   3.970   4.551  0.00  0.00    +0.024 A 
ATOM      8  N   UNL     1      -2.138   3.124   3.547  0.00  0.00    -0.352 N 
ATOM      9  H   UNL     1      -2.230   2.159   3.586  0.00  0.00    +0.166 HD
ATOM     10  C   UNL     1      -1.704   3.841   2.452  0.00  0.00    +0.128 A 
ATOM     11  C   UNL     1      -2.911   3.583   5.919  0.00  0.00    +0.064 C 
BRANCH   6  12
ATOM     12  C   UNL     1      -2.322   6.493   4.893  0.00  0.00    +0.162 C 
ATOM     13  O   UNL     1      -1.423   6.886   5.606  0.00  0.00    -0.292 OA
ATOM     14  C   UNL     1      -3.610   7.271   4.808  0.00  0.00    +0.091 C 
ENDBRANCH   6  12
ENDBRANCH   2  10
ENDBRANCH   1   2
BRANCH   1  15
ATOM     15  C   UNL     1      -0.944   1.453  -0.342  0.00  0.00    +0.328 C 
BRANCH  15  16
ATOM     16  C   UNL     1      -1.057  -0.050  -0.373  0.00  0.00    +0.258 C 
ATOM     17  O   UNL     1      -1.442  -0.649   0.608  0.00  0.00    -0.272 OA
ATOM     18  N   UNL     1      -0.730  -0.727  -1.491  0.00  0.00    -0.237 N 
ATOM     19  C   UNL     1      -0.832  -2.071  -1.519  0.00  0.00    +0.306 C 
ATOM     20  O   UNL     1      -1.218  -2.671  -0.536  0.00  0.00    -0.252 OA
ATOM     21  N   UNL     1      -0.504  -2.748  -2.637  0.00  0.00    -0.294 N 
ATOM     22  H   UNL     1      -0.422  -0.247  -2.276  0.00  0.00    +0.159 HD
ATOM     23  H   UNL     1      -0.196  -2.269  -3.422  0.00  0.00    +0.151 HD
BRANCH  21  24
ATOM     24  C   UNL     1      -0.614  -4.209  -2.667  0.00  0.00    +0.028 C 
ATOM     25  C   UNL     1      -2.064  -4.617  -2.399  0.00  0.00    +0.031 C 
ATOM     26  C   UNL     1      -0.186  -4.724  -4.043  0.00  0.00    +0.031 C 
ATOM     27  C   UNL     1       0.292  -4.811  -1.592  0.00  0.00    +0.031 C 
ENDBRANCH  21  24
ENDBRANCH  15  16
ENDBRANCH   1  15
TORSDOF 6
