REMARK  Name = ZINC40783114
REMARK  5 active torsions:
REMARK  status: ('A' for Active; 'I' for Inactive)
REMARK    1  A    between atoms: C_1  and  C_2
REMARK    2  A    between atoms: C_3  and  C_27
REMARK    3  A    between atoms: C_9  and  N_26
REMARK    4  A    between atoms: C_10  and  O_14
REMARK    5  A    between atoms: O_14  and  C_15
REMARK                            x       y       z     vdW  Elec       q    Type
REMARK                         _______ _______ _______ _____ _____    ______ ____
ROOT
ATOM      1  C   UNL     1      -0.586   1.515   0.052  0.00  0.00    +0.066 C 
ATOM      2  C   UNL     1      -0.463   0.013   0.033  0.00  0.00    +0.050 A 
ATOM      3  C   UNL     1      -0.448  -0.681  -1.131  0.00  0.00    +0.011 A 
ATOM      4  S   UNL     1      -0.286  -2.351  -0.521  0.00  0.00    -0.057 S 
ATOM      5  C   UNL     1      -0.255  -1.996   1.124  0.00  0.00    +0.164 A 
ATOM      6  N   UNL     1      -0.358  -0.685   1.149  0.00  0.00    -0.230 NA
ATOM      7  N   UNL     1      -0.143  -2.873   2.193  0.00  0.00    -0.277 N 
ATOM      8  C   UNL     1      -0.135  -2.385   3.495  0.00  0.00    +0.152 A 
ATOM      9  C   UNL     1      -0.017  -3.258   4.580  0.00  0.00    +0.128 A 
ATOM     10  C   UNL     1      -0.015  -2.716   5.864  0.00  0.00    +0.246 A 
ATOM     11  N   UNL     1      -0.125  -1.399   6.008  0.00  0.00    -0.199 NA
ATOM     12  C   UNL     1      -0.235  -0.609   4.959  0.00  0.00    +0.227 A 
ATOM     13  N   UNL     1      -0.235  -1.079   3.727  0.00  0.00    -0.218 NA
ATOM     14  C   UNL     1      -0.543  -0.180  -2.550  0.00  0.00    +0.053 C 
ATOM     15  H   UNL     1      -0.069  -3.827   2.032  0.00  0.00    +0.156 HD
ENDROOT
BRANCH   9  16
ATOM     16  N   UNL     1       0.097  -4.643   4.381  0.00  0.00    -0.351 N 
ATOM     17  H   UNL     1       0.093  -5.006   3.482  0.00  0.00    +0.143 HD
ATOM     18  H   UNL     1       0.178  -5.237   5.144  0.00  0.00    +0.143 HD
ENDBRANCH   9  16
BRANCH  10  19
ATOM     19  O   UNL     1       0.097  -3.520   6.951  0.00  0.00    -0.434 OA
BRANCH  19  20
ATOM     20  C   UNL     1       0.199  -2.933   8.171  0.00  0.00    +0.156 A 
ATOM     21  C   UNL     1       1.437  -2.695   8.724  0.00  0.00    +0.049 A 
ATOM     22  C   UNL     1       1.557  -2.094   9.974  0.00  0.00    +0.019 A 
ATOM     23  C   UNL     1       0.453  -1.724  10.682  0.00  0.00    +0.027 A 
ATOM     24  C   UNL     1      -0.827  -1.950  10.151  0.00  0.00    +0.018 A 
ATOM     25  C   UNL     1      -0.962  -2.557   8.877  0.00  0.00    +0.114 A 
ATOM     26  N   UNL     1      -2.178  -2.769   8.367  0.00  0.00    -0.251 NA
ATOM     27  C   UNL     1      -3.261  -2.422   9.018  0.00  0.00    +0.111 A 
ATOM     28  C   UNL     1      -3.200  -1.817  10.272  0.00  0.00    +0.020 A 
ATOM     29  C   UNL     1      -1.988  -1.581  10.856  0.00  0.00    +0.013 A 
ATOM     30 BR   UNL     1       0.644  -0.910  12.379  0.00  0.00    -0.050 Br
ENDBRANCH  19  20
ENDBRANCH  10  19
TORSDOF 3
