REMARK  Name = ZINC36207195
REMARK  16 active torsions:
REMARK  status: ('A' for Active; 'I' for Inactive)
REMARK    1  A    between atoms: C_1  and  C_2
REMARK    2  A    between atoms: C_2  and  O_3
REMARK    3  A    between atoms: O_3  and  C_4
REMARK    4  A    between atoms: C_4  and  C_6
REMARK    5  A    between atoms: C_7  and  C_37
REMARK    6  A    between atoms: C_13  and  C_17
REMARK    7  A    between atoms: C_17  and  N_18
REMARK    8  A    between atoms: N_18  and  C_19
REMARK    9  A    between atoms: N_18  and  C_25
REMARK   10  A    between atoms: C_19  and  C_20
REMARK   11  A    between atoms: C_25  and  C_26
REMARK   12  A    between atoms: C_26  and  C_28
REMARK   13  A    between atoms: C_26  and  O_36
REMARK   14  A    between atoms: C_28  and  O_29
REMARK   15  A    between atoms: O_29  and  C_30
REMARK   16  A    between atoms: C_30  and  C_31
REMARK                            x       y       z     vdW  Elec       q    Type
REMARK                         _______ _______ _______ _____ _____    ______ ____
ROOT
ATOM      1  N   UNL     1       4.699  -2.931  -8.142  0.00  0.00    +0.391 N 
ATOM      2  H   UNL     1       5.257  -2.409  -7.483  0.00  0.00    -0.080 HD
ENDROOT
BRANCH   1   3
ATOM      3  C   UNL     1       4.446  -4.277  -7.611  0.00  0.00    -0.003 C 
BRANCH   3  11
ATOM      4  C   UNL     1      10.501  -5.593  -6.339  0.00  0.00    +0.102 A 
ATOM      5  C   UNL     1       9.464  -6.473  -6.220  0.00  0.00    -0.015 A 
ATOM      6  C   UNL     1       8.166  -6.064  -6.531  0.00  0.00    +0.076 A 
ATOM      7  C   UNL     1       6.904  -6.836  -6.478  0.00  0.00    +0.260 A 
ATOM      8  O   UNL     1       6.898  -8.001  -6.124  0.00  0.00    -0.267 OA
ATOM      9  N   UNL     1       5.761  -6.216  -6.832  0.00  0.00    -0.312 N 
ATOM     10  H   UNL     1       4.925  -6.707  -6.803  0.00  0.00    +0.170 HD
ATOM     11  C   UNL     1       5.755  -4.919  -7.227  0.00  0.00    +0.094 A 
ATOM     12  N   UNL     1       6.849  -4.210  -7.285  0.00  0.00    -0.229 NA
ATOM     13  C   UNL     1       8.029  -4.723  -6.959  0.00  0.00    +0.116 A 
ATOM     14  S   UNL     1       9.691  -4.104  -6.901  0.00  0.00    -0.062 S 
ATOM     15  C   UNL     1       9.720  -7.883  -5.755  0.00  0.00    +0.046 C 
BRANCH   4  16
ATOM     16  C   UNL     1      11.923  -5.813  -6.068  0.00  0.00    +0.346 C 
ATOM     17  O   UNL     1      12.307  -6.902  -5.687  0.00  0.00    -0.244 OA
BRANCH  16  18
ATOM     18  O   UNL     1      12.806  -4.808  -6.240  0.00  0.00    -0.461 OA
BRANCH  18  20
ATOM     19  C   UNL     1      15.021  -3.843  -6.208  0.00  0.00    +0.048 C 
ATOM     20  C   UNL     1      14.177  -5.094  -5.957  0.00  0.00    +0.229 C 
ENDBRANCH  18  20
ENDBRANCH  16  18
ENDBRANCH   4  16
ENDBRANCH   3  11
ENDBRANCH   1   3
BRANCH   1  21
ATOM     21  C   UNL     1       3.419  -2.241  -8.354  0.00  0.00    -0.002 C 
BRANCH  21  22
ATOM     22  C   UNL     1       2.739  -2.024  -7.027  0.00  0.00    +0.089 A 
ATOM     23  C   UNL     1       2.963  -0.999  -6.186  0.00  0.00    +0.042 A 
ATOM     24  C   UNL     1       2.116  -1.191  -5.071  0.00  0.00    +0.041 A 
ATOM     25  C   UNL     1       1.424  -2.322  -5.297  0.00  0.00    +0.195 A 
ATOM     26  O   UNL     1       1.802  -2.820  -6.486  0.00  0.00    -0.470 OA
ENDBRANCH  21  22
ENDBRANCH   1  21
BRANCH   1  27
ATOM     27  C   UNL     1       5.417  -3.034  -9.419  0.00  0.00    -0.044 C 
BRANCH  27  28
ATOM     28  C   UNL     1       5.789  -1.634  -9.910  0.00  0.00    +0.124 C 
BRANCH  28  29
ATOM     29  O   UNL     1       6.718  -1.042  -9.000  0.00  0.00    -0.391 OA
ATOM     30  H   UNL     1       7.543  -1.538  -8.901  0.00  0.00    +0.210 HD
ENDBRANCH  28  29
BRANCH  28  31
ATOM     31  C   UNL     1       6.426  -1.732 -11.297  0.00  0.00    +0.189 C 
BRANCH  31  32
ATOM     32  O   UNL     1       6.667  -0.418 -11.805  0.00  0.00    -0.370 OA
BRANCH  32  33
ATOM     33  C   UNL     1       7.263  -0.397 -13.103  0.00  0.00    +0.234 C 
BRANCH  33  34
ATOM     34  C   UNL     1       7.471   1.031 -13.537  0.00  0.00    +0.130 A 
ATOM     35  C   UNL     1       8.573   1.769 -13.313  0.00  0.00    +0.047 A 
ATOM     36  C   UNL     1       8.340   3.039 -13.888  0.00  0.00    +0.041 A 
ATOM     37  C   UNL     1       7.109   3.002 -14.429  0.00  0.00    +0.195 A 
ATOM     38  O   UNL     1       6.590   1.781 -14.219  0.00  0.00    -0.465 OA
ENDBRANCH  33  34
ENDBRANCH  32  33
ENDBRANCH  31  32
ENDBRANCH  28  31
ENDBRANCH  27  28
ENDBRANCH   1  27
TORSDOF 14
