REMARK  Name = ZINC66679731
REMARK  7 active torsions:
REMARK  status: ('A' for Active; 'I' for Inactive)
REMARK    1  A    between atoms: C_1  and  C_2
REMARK    2  A    between atoms: C_2  and  C_4
REMARK    3  A    between atoms: C_2  and  C_23
REMARK    4  A    between atoms: C_4  and  N_5
REMARK    5  A    between atoms: N_8  and  C_9
REMARK    6  A    between atoms: C_13  and  C_15
REMARK    7  A    between atoms: C_23  and  N_24
REMARK                            x       y       z     vdW  Elec       q    Type
REMARK                         _______ _______ _______ _____ _____    ______ ____
ROOT
ATOM      1  N   UNL     1      -0.005  -0.135   2.444  0.00  0.00    -0.299 N 
ATOM      2  C   UNL     1       0.456  -0.485   3.661  0.00  0.00    +0.304 C 
ATOM      3  O   UNL     1       1.494  -1.111   3.761  0.00  0.00    -0.253 OA
ATOM      4  N   UNL     1      -0.234  -0.143   4.767  0.00  0.00    -0.269 N 
ATOM      5  H   UNL     1      -0.834   0.364   2.365  0.00  0.00    +0.150 HD
ATOM      6  H   UNL     1      -1.025   0.413   4.693  0.00  0.00    +0.156 HD
ENDROOT
BRANCH   4   7
ATOM      7  C   UNL     1       0.193  -0.589   6.024  0.00  0.00    +0.035 A 
ATOM      8  C   UNL     1       1.550  -0.709   6.295  0.00  0.00    +0.023 A 
ATOM      9  C   UNL     1       1.975  -1.150   7.534  0.00  0.00    +0.002 A 
ATOM     10  C   UNL     1       1.053  -1.473   8.509  0.00  0.00    +0.010 A 
ATOM     11  C   UNL     1      -0.311  -1.355   8.246  0.00  0.00    +0.004 A 
ATOM     12  C   UNL     1      -0.739  -0.906   7.000  0.00  0.00    +0.033 A 
BRANCH  11  13
ATOM     13  C   UNL     1      -1.303  -1.703   9.293  0.00  0.00    +0.091 A 
ATOM     14  C   UNL     1      -0.862  -2.149  10.561  0.00  0.00    +0.035 A 
ATOM     15  C   UNL     1      -1.802  -2.459  11.499  0.00  0.00    +0.073 A 
ATOM     16  C   UNL     1      -3.162  -2.315  11.145  0.00  0.00    +0.265 A 
ATOM     17  O   UNL     1      -4.039  -2.580  11.951  0.00  0.00    -0.266 OA
ATOM     18  N   UNL     1      -3.484  -1.883   9.911  0.00  0.00    -0.243 N 
ATOM     19  H   UNL     1      -4.419  -1.786   9.674  0.00  0.00    +0.192 HD
ATOM     20  N   UNL     1      -2.586  -1.591   9.041  0.00  0.00    -0.171 NA
ENDBRANCH  11  13
ENDBRANCH   4   7
BRANCH   1  21
ATOM     21  C   UNL     1       0.744  -0.507   1.242  0.00  0.00    +0.110 C 
BRANCH  21  23
ATOM     22  C   UNL     1      -0.002   1.538   0.016  0.00  0.00    +0.011 C 
ATOM     23  C   UNL     1       0.009   0.008   0.003  0.00  0.00    +0.024 C 
BRANCH  23  24
ATOM     24  C   UNL     1       0.723  -0.486  -1.257  0.00  0.00    +0.148 C 
BRANCH  24  25
ATOM     25  N   UNL     1      -0.046  -0.094  -2.440  0.00  0.00    -0.271 N 
ATOM     26  C   UNL     1       0.421   0.607  -3.494  0.00  0.00    +0.108 A 
ATOM     27  C   UNL     1      -0.597   0.761  -4.372  0.00  0.00    +0.041 A 
ATOM     28  C   UNL     1      -1.726   0.132  -3.836  0.00  0.00    +0.134 A 
ATOM     29  N   UNL     1      -1.395  -0.386  -2.681  0.00  0.00    -0.180 NA
ENDBRANCH  24  25
ENDBRANCH  23  24
ENDBRANCH  21  23
ENDBRANCH   1  21
TORSDOF 6
