REMARK  Name = ZINC36703215
REMARK  12 active torsions:
REMARK  status: ('A' for Active; 'I' for Inactive)
REMARK    1  A    between atoms: C_1  and  C_2
REMARK    2  A    between atoms: C_2  and  N_3
REMARK    3  A    between atoms: N_3  and  C_4
REMARK    4  A    between atoms: N_3  and  C_6
REMARK    5  A    between atoms: C_4  and  C_5
REMARK    6  A    between atoms: C_6  and  C_8
REMARK    7  A    between atoms: C_6  and  C_28
REMARK    8  A    between atoms: C_8  and  N_9
REMARK    9  A    between atoms: C_10  and  C_12
REMARK   10  A    between atoms: C_12  and  C_13
REMARK   11  A    between atoms: C_13  and  N_14
REMARK   12  A    between atoms: N_17  and  C_18
REMARK                            x       y       z     vdW  Elec       q    Type
REMARK                         _______ _______ _______ _____ _____    ______ ____
ROOT
ATOM      1  N   UNL     1       1.456   0.933  -1.083  0.00  0.00    -0.316 N 
ATOM      2  C   UNL     1       2.413   1.882  -1.111  0.00  0.00    +0.214 C 
ATOM      3  O   UNL     1       3.160   1.962  -2.063  0.00  0.00    -0.276 OA
ATOM      4  H   UNL     1       0.813   0.913  -0.357  0.00  0.00    +0.149 HD
ENDROOT
BRANCH   1   5
ATOM      5  C   UNL     1       1.387  -0.069  -2.149  0.00  0.00    +0.093 C 
BRANCH   5   6
ATOM      6  C   UNL     1       0.147  -0.943  -1.948  0.00  0.00    -0.020 C 
BRANCH   6   7
ATOM      7  C   UNL     1       0.160  -2.070  -2.949  0.00  0.00    -0.059 A 
ATOM      8  C   UNL     1       1.358  -2.509  -3.481  0.00  0.00    +0.002 A 
ATOM      9  C   UNL     1       1.369  -3.543  -4.398  0.00  0.00    +0.000 A 
ATOM     10  C   UNL     1       0.182  -4.138  -4.784  0.00  0.00    +0.000 A 
ATOM     11  C   UNL     1      -1.016  -3.700  -4.251  0.00  0.00    +0.000 A 
ATOM     12  C   UNL     1      -1.027  -2.669  -3.330  0.00  0.00    +0.002 A 
ENDBRANCH   6   7
BRANCH   6  13
ATOM     13  N   UNL     1       0.153  -1.496  -0.587  0.00  0.00    +0.385 N 
ATOM     14  H   UNL     1       0.227  -0.744   0.081  0.00  0.00    -0.081 HD
BRANCH  13  16
ATOM     15  C   UNL     1      -2.276  -1.267  -0.375  0.00  0.00    -0.017 C 
ATOM     16  C   UNL     1      -1.093  -2.238  -0.354  0.00  0.00    -0.081 C 
ENDBRANCH  13  16
BRANCH  13  17
ATOM     17  C   UNL     1       1.299  -2.403  -0.432  0.00  0.00    -0.081 C 
ATOM     18  C   UNL     1       2.518  -1.609   0.039  0.00  0.00    -0.017 C 
ENDBRANCH  13  17
ENDBRANCH   6  13
ENDBRANCH   5   6
ENDBRANCH   1   5
BRANCH   2  19
ATOM     19  C   UNL     1       2.555   2.843   0.042  0.00  0.00    +0.114 C 
BRANCH  19  20
ATOM     20  C   UNL     1       3.621   3.888  -0.294  0.00  0.00    +0.115 C 
BRANCH  20  21
ATOM     21  N   UNL     1       3.759   4.822   0.826  0.00  0.00    -0.299 N 
ATOM     22  C   UNL     1       4.646   5.834   0.754  0.00  0.00    +0.300 C 
ATOM     23  O   UNL     1       5.332   5.971  -0.241  0.00  0.00    -0.253 OA
ATOM     24  N   UNL     1       4.773   6.693   1.784  0.00  0.00    -0.294 N 
ATOM     25  H   UNL     1       3.211   4.712   1.619  0.00  0.00    +0.150 HD
ATOM     26  H   UNL     1       4.226   6.584   2.577  0.00  0.00    +0.151 HD
BRANCH  24  27
ATOM     27  C   UNL     1       5.737   7.793   1.706  0.00  0.00    +0.037 C 
ATOM     28  C   UNL     1       7.146   7.225   1.523  0.00  0.00    +0.029 C 
ATOM     29  C   UNL     1       8.153   8.373   1.442  0.00  0.00    -0.008 C 
ATOM     30  C   UNL     1       8.097   9.193   2.732  0.00  0.00    +0.007 C 
ATOM     31  C   UNL     1       6.689   9.762   2.915  0.00  0.00    -0.008 C 
ATOM     32  C   UNL     1       5.681   8.613   2.996  0.00  0.00    +0.029 C 
ATOM     33  C   UNL     1       6.343  10.660   1.725  0.00  0.00    +0.007 C 
ATOM     34  C   UNL     1       6.399   9.840   0.434  0.00  0.00    -0.008 C 
ATOM     35  C   UNL     1       7.807   9.271   0.252  0.00  0.00    +0.007 C 
ATOM     36  C   UNL     1       5.391   8.691   0.516  0.00  0.00    +0.029 C 
ENDBRANCH  24  27
ENDBRANCH  20  21
ENDBRANCH  19  20
ENDBRANCH   2  19
TORSDOF 10
