REMARK  Name = ZINC53958531
REMARK  6 active torsions:
REMARK  status: ('A' for Active; 'I' for Inactive)
REMARK    1  A    between atoms: C_1  and  C_2
REMARK    2  A    between atoms: C_2  and  C_4
REMARK    3  A    between atoms: C_2  and  N_7
REMARK    4  A    between atoms: C_4  and  C_5
REMARK    5  A    between atoms: C_4  and  C_6
REMARK    6  A    between atoms: C_16  and  C_18
REMARK                            x       y       z     vdW  Elec       q    Type
REMARK                         _______ _______ _______ _____ _____    ______ ____
ROOT
ATOM      1  N   UNL     1       0.709  -0.494   1.188  0.00  0.00    -0.296 N 
ATOM      2  C   UNL     1       0.051  -0.633   2.355  0.00  0.00    +0.303 C 
ATOM      3  O   UNL     1      -1.106  -0.272   2.448  0.00  0.00    -0.253 OA
ATOM      4  N   UNL     1       0.676  -1.174   3.420  0.00  0.00    -0.283 N 
ATOM      5  C   UNL     1       2.107  -1.505   3.360  0.00  0.00    +0.128 C 
ATOM      6  C   UNL     1       2.822  -0.798   4.518  0.00  0.00    +0.127 C 
ATOM      7  N   UNL     1       2.085  -1.067   5.760  0.00  0.00    -0.296 N 
ATOM      8  C   UNL     1       0.654  -0.736   5.820  0.00  0.00    +0.127 C 
ATOM      9  C   UNL     1      -0.060  -1.438   4.665  0.00  0.00    +0.128 C 
ATOM     10  C   UNL     1       2.709  -1.608   6.825  0.00  0.00    +0.245 C 
ATOM     11  O   UNL     1       3.890  -1.877   6.763  0.00  0.00    -0.273 OA
ATOM     12  H   UNL     1       1.652  -0.715   1.133  0.00  0.00    +0.151 HD
ENDROOT
BRANCH  10  13
ATOM     13  C   UNL     1       1.940  -1.878   8.092  0.00  0.00    +0.204 C 
ATOM     14  C   UNL     1       1.465  -0.546   8.711  0.00  0.00    +0.043 C 
ATOM     15  C   UNL     1       1.668  -0.797  10.230  0.00  0.00    +0.031 C 
ATOM     16  C   UNL     1       2.933  -1.692  10.214  0.00  0.00    +0.161 C 
ATOM     17  O   UNL     1       2.790  -2.522   9.048  0.00  0.00    -0.367 OA
ENDBRANCH  10  13
BRANCH   1  19
ATOM     18  C   UNL     1      -0.015   1.522   0.007  0.00  0.00    +0.028 C 
ATOM     19  C   UNL     1       0.000  -0.008   0.001  0.00  0.00    +0.074 C 
BRANCH  19  20
ATOM     20  C   UNL     1       0.713  -0.506  -1.258  0.00  0.00    +0.003 C 
ATOM     21  C   UNL     1       0.728  -2.036  -1.264  0.00  0.00    +0.009 C 
ATOM     22  C   UNL     1      -0.027   0.002  -2.497  0.00  0.00    +0.009 C 
ENDBRANCH  19  20
ENDBRANCH   1  19
TORSDOF 3
