REMARK  Name = ZINC63847123
REMARK  2 active torsions:
REMARK  status: ('A' for Active; 'I' for Inactive)
REMARK    1  A    between atoms: N_16  and  C_19
REMARK    2  A    between atoms: C_19  and  C_20
REMARK                            x       y       z     vdW  Elec       q    Type
REMARK                         _______ _______ _______ _____ _____    ______ ____
ROOT
ATOM      1  C   UNL     1      -0.019   1.531   0.011  0.00  0.00    +0.000 C 
ATOM      2  C   UNL     1       1.429   1.974  -0.001  0.00  0.00    +0.000 C 
ATOM      3  C   UNL     1       2.069   1.968   1.377  0.00  0.00    +0.005 C 
ATOM      4  C   UNL     1       1.097   2.447   2.454  0.00  0.00    +0.042 C 
ATOM      5  C   UNL     1       0.118   1.369   2.870  0.00  0.00    -0.013 C 
ATOM      6  C   UNL     1      -0.052   0.137   2.469  0.00  0.00    -0.046 C 
ATOM      7  C   UNL     1       0.664  -0.496   1.285  0.00  0.00    +0.032 C 
ATOM      8  C   UNL     1       0.002  -0.004   0.002  0.00  0.00    +0.004 C 
ATOM      9  C   UNL     1      -1.067  -0.710   3.216  0.00  0.00    +0.129 C 
ATOM     10  C   UNL     1      -1.469  -0.100   4.561  0.00  0.00    +0.134 C 
ATOM     11  S   UNL     1      -1.072   1.664   4.176  0.00  0.00    -0.110 S 
ATOM     12  N   UNL     1      -0.627  -0.569   5.650  0.00  0.00    -0.288 NA
ATOM     13  C   UNL     1      -0.551  -2.011   5.800  0.00  0.00    +0.193 C 
ATOM     14  N   UNL     1      -0.350  -2.695   4.533  0.00  0.00    -0.281 N 
ATOM     15  C   UNL     1      -0.578  -2.112   3.367  0.00  0.00    +0.226 C 
ATOM     16  O   UNL     1      -0.405  -2.775   2.367  0.00  0.00    -0.275 OA
ATOM     17  H   UNL     1       0.294  -0.162   5.596  0.00  0.00    +0.124 HD
ENDROOT
BRANCH  14  18
ATOM     18  C   UNL     1       0.146  -4.073   4.552  0.00  0.00    +0.184 C 
BRANCH  18  19
ATOM     19  C   UNL     1      -1.020  -5.026   4.606  0.00  0.00    +0.142 A 
ATOM     20  H   UNL     1      -1.359  -5.519   2.618  0.00  0.00    +0.190 HD
ATOM     21  N   UNL     1      -1.644  -5.416   5.688  0.00  0.00    -0.218 NA
ATOM     22  C   UNL     1      -2.623  -6.259   5.365  0.00  0.00    +0.245 A 
ATOM     23  N   UNL     1      -2.637  -6.418   4.068  0.00  0.00    -0.161 NA
ATOM     24  N   UNL     1      -1.604  -5.620   3.551  0.00  0.00    -0.261 N 
ENDBRANCH  18  19
ENDBRANCH  14  18
TORSDOF 2
