REMARK  Name = ZINC22868069
REMARK  6 active torsions:
REMARK  status: ('A' for Active; 'I' for Inactive)
REMARK    1  A    between atoms: C_6  and  C_7
REMARK    2  A    between atoms: C_7  and  C_9
REMARK    3  A    between atoms: C_7  and  O_12
REMARK    4  A    between atoms: O_12  and  C_13
REMARK    5  A    between atoms: C_13  and  C_15
REMARK    6  A    between atoms: C_24  and  C_27
REMARK                            x       y       z     vdW  Elec       q    Type
REMARK                         _______ _______ _______ _____ _____    ______ ____
ROOT
ATOM      1  C   UNL     1      -5.487   1.617   2.277  0.00  0.00    +0.101 C 
ATOM      2  C   UNL     1      -4.818   2.396   3.413  0.00  0.00    +0.033 C 
ATOM      3  C   UNL     1      -5.897   3.021   4.301  0.00  0.00    +0.107 C 
ATOM      4  N   UNL     1      -6.758   1.964   4.846  0.00  0.00    -0.315 N 
ATOM      5  C   UNL     1      -7.447   1.234   3.775  0.00  0.00    +0.107 C 
ATOM      6  C   UNL     1      -6.415   0.555   2.873  0.00  0.00    +0.033 C 
ATOM      7  C   UNL     1      -7.665   2.482   5.756  0.00  0.00    +0.121 A 
ATOM      8  C   UNL     1      -7.200   3.211   6.850  0.00  0.00    +0.044 A 
ATOM      9  C   UNL     1      -8.099   3.722   7.747  0.00  0.00    +0.018 A 
ATOM     10  C   UNL     1      -9.466   3.491   7.530  0.00  0.00    +0.055 A 
ATOM     11  C   UNL     1      -9.860   2.753   6.413  0.00  0.00    +0.126 A 
ATOM     12  N   UNL     1      -8.963   2.283   5.571  0.00  0.00    -0.240 NA
ENDROOT
BRANCH  10  13
ATOM     13  C   UNL     1     -10.473   4.021   8.469  0.00  0.00    +0.243 C 
ATOM     14  O   UNL     1     -10.120   4.663   9.440  0.00  0.00    -0.270 OA
ATOM     15  N   UNL     1     -11.783   3.794   8.252  0.00  0.00    -0.325 N 
ATOM     16  H   UNL     1     -12.534   4.189   8.952  0.00  0.00    +0.145 HD
ATOM     17  H   UNL     1     -12.102   3.213   7.374  0.00  0.00    +0.145 HD
ENDBRANCH  10  13
BRANCH   1  18
ATOM     18  C   UNL     1      -4.430   0.949   1.436  0.00  0.00    +0.311 C 
ATOM     19  O   UNL     1      -4.421  -0.254   1.321  0.00  0.00    -0.251 OA
BRANCH  18  20
ATOM     20  O   UNL     1      -3.500   1.690   0.813  0.00  0.00    -0.447 OA
BRANCH  20  21
ATOM     21  C   UNL     1      -2.513   0.978   0.020  0.00  0.00    +0.291 C 
BRANCH  21  27
ATOM     22  C   UNL     1      -0.013   1.076   0.008  0.00  0.00    +0.010 A 
ATOM     23  C   UNL     1       1.175   1.783   0.000  0.00  0.00    +0.039 A 
ATOM     24  C   UNL     1       1.156   3.167   0.008  0.00  0.00    +0.123 A 
ATOM     25  C   UNL     1      -0.053   3.842   0.022  0.00  0.00    +0.039 A 
ATOM     26  C   UNL     1      -1.240   3.133   0.030  0.00  0.00    +0.010 A 
ATOM     27  C   UNL     1      -1.219   1.750   0.017  0.00  0.00    +0.002 A 
ATOM     28  F   UNL     1       2.316   3.859  -0.000  0.00  0.00    -0.205 F 
ENDBRANCH  21  27
BRANCH  21  29
ATOM     29  C   UNL     1      -3.015   0.835  -1.394  0.00  0.00    +0.256 C 
ATOM     30  O   UNL     1      -4.055   1.365  -1.725  0.00  0.00    -0.272 OA
ATOM     31  N   UNL     1      -2.309   0.117  -2.290  0.00  0.00    -0.326 N 
ATOM     32  H   UNL     1      -2.675   0.012  -3.322  0.00  0.00    +0.145 HD
ATOM     33  H   UNL     1      -1.366  -0.363  -1.989  0.00  0.00    +0.145 HD
ENDBRANCH  21  29
ENDBRANCH  20  21
ENDBRANCH  18  20
ENDBRANCH   1  18
TORSDOF 6
