REMARK  Name = ZINC37077405
REMARK  5 active torsions:
REMARK  status: ('A' for Active; 'I' for Inactive)
REMARK    1  A    between atoms: C_1  and  O_2
REMARK    2  A    between atoms: O_2  and  C_3
REMARK    3  A    between atoms: C_4  and  N_18
REMARK    4  A    between atoms: C_7  and  O_9
REMARK    5  A    between atoms: O_9  and  C_10
REMARK                            x       y       z     vdW  Elec       q    Type
REMARK                         _______ _______ _______ _____ _____    ______ ____
ROOT
ATOM      1  C   UNL     1      -1.199  -0.634  -0.036  0.00  0.00    +0.239 A 
ATOM      2  C   UNL     1      -1.244  -2.010  -0.252  0.00  0.00    +0.087 A 
ATOM      3  C   UNL     1      -2.480  -2.635  -0.375  0.00  0.00    +0.033 A 
ATOM      4  C   UNL     1      -3.625  -1.860  -0.276  0.00  0.00    +0.069 A 
ATOM      5  C   UNL     1      -3.505  -0.496  -0.060  0.00  0.00    +0.224 A 
ATOM      6  N   UNL     1      -2.314   0.071   0.058  0.00  0.00    -0.176 NA
ENDROOT
BRANCH   2   7
ATOM      7  N   UNL     1      -0.059  -2.754  -0.346  0.00  0.00    -0.354 N 
ATOM      8  H   UNL     1       0.800  -2.311  -0.259  0.00  0.00    +0.142 HD
ATOM      9  H   UNL     1      -0.098  -3.711  -0.496  0.00  0.00    +0.142 HD
ENDBRANCH   2   7
BRANCH   1  11
ATOM     10  C   UNL     1      -0.019   1.400   0.313  0.00  0.00    +0.279 C 
ATOM     11  O   UNL     1       0.002  -0.011   0.086  0.00  0.00    -0.478 OA
ENDBRANCH   1  11
BRANCH   5  12
ATOM     12  O   UNL     1      -4.623   0.269   0.037  0.00  0.00    -0.436 OA
BRANCH  12  13
ATOM     13  C   UNL     1      -4.469   1.615   0.142  0.00  0.00    +0.149 A 
ATOM     14  C   UNL     1      -4.440   2.216   1.393  0.00  0.00    +0.049 A 
ATOM     15  C   UNL     1      -4.282   3.584   1.497  0.00  0.00    +0.019 A 
ATOM     16  C   UNL     1      -4.154   4.356   0.356  0.00  0.00    +0.019 A 
ATOM     17  C   UNL     1      -4.182   3.760  -0.892  0.00  0.00    +0.039 A 
ATOM     18  C   UNL     1      -4.334   2.390  -1.001  0.00  0.00    +0.084 A 
ATOM     19 CL   UNL     1      -4.362   1.642  -2.567  0.00  0.00    -0.080 Cl
ATOM     20 BR   UNL     1      -3.939   6.229   0.503  0.00  0.00    -0.050 Br
ENDBRANCH  12  13
ENDBRANCH   5  12
TORSDOF 4
