REMARK  Name = ZINC15640629
REMARK  6 active torsions:
REMARK  status: ('A' for Active; 'I' for Inactive)
REMARK    1  A    between atoms: C_1  and  C_2
REMARK    2  A    between atoms: N_11  and  C_15
REMARK    3  A    between atoms: C_15  and  C_16
REMARK    4  A    between atoms: N_18  and  C_19
REMARK    5  A    between atoms: C_21  and  C_30
REMARK    6  A    between atoms: C_24  and  N_25
REMARK                            x       y       z     vdW  Elec       q    Type
REMARK                         _______ _______ _______ _____ _____    ______ ____
ROOT
ATOM      1  C   UNL     1       3.957   4.699  -0.404  0.00  0.00    +0.235 C 
ATOM      2  O   UNL     1       5.107   4.371  -0.606  0.00  0.00    -0.274 OA
ATOM      3  N   UNL     1       3.014   3.759  -0.198  0.00  0.00    -0.282 N 
ATOM      4  H   UNL     1       2.082   4.016  -0.119  0.00  0.00    +0.155 HD
ENDROOT
BRANCH   3   5
ATOM      5  C   UNL     1       3.379   2.412  -0.097  0.00  0.00    +0.060 A 
ATOM      6  C   UNL     1       4.357   1.891  -0.932  0.00  0.00    +0.037 A 
ATOM      7  C   UNL     1       4.713   0.560  -0.834  0.00  0.00    +0.057 A 
ATOM      8  C   UNL     1       4.099  -0.257   0.099  0.00  0.00    +0.014 A 
ATOM      9  C   UNL     1       3.128   0.254   0.939  0.00  0.00    +0.030 A 
ATOM     10  C   UNL     1       2.765   1.589   0.847  0.00  0.00    +0.086 A 
BRANCH  10  11
ATOM     11  N   UNL     1       1.779   2.110   1.698  0.00  0.00    -0.238 N 
ATOM     12  C   UNL     1       1.078   1.415   2.622  0.00  0.00    +0.114 A 
ATOM     13  C   UNL     1       0.226   2.277   3.226  0.00  0.00    +0.041 A 
ATOM     14  C   UNL     1       0.418   3.541   2.659  0.00  0.00    +0.135 A 
ATOM     15  N   UNL     1       1.346   3.442   1.741  0.00  0.00    -0.175 NA
ENDBRANCH  10  11
BRANCH   7  16
ATOM     16  C   UNL     1       5.771  -0.004  -1.746  0.00  0.00    +0.417 C 
ATOM     17  F   UNL     1       5.957  -1.362  -1.462  0.00  0.00    -0.166 F 
ATOM     18  F   UNL     1       5.366   0.142  -3.077  0.00  0.00    -0.166 F 
ATOM     19  F   UNL     1       6.973   0.682  -1.546  0.00  0.00    -0.166 F 
ENDBRANCH   7  16
ENDBRANCH   3   5
BRANCH   1  20
ATOM     20  C   UNL     1       3.583   6.159  -0.384  0.00  0.00    +0.214 C 
BRANCH  20  30
ATOM     21  C   UNL     1       5.263  10.257  -0.178  0.00  0.00    +0.010 C 
ATOM     22  C   UNL     1       6.657   9.670   0.056  0.00  0.00    +0.018 C 
ATOM     23  C   UNL     1       7.005   9.763   1.543  0.00  0.00    +0.006 C 
ATOM     24  C   UNL     1       8.390   9.157   1.780  0.00  0.00    +0.000 C 
ATOM     25  C   UNL     1       8.384   7.686   1.358  0.00  0.00    +0.003 C 
ATOM     26  C   UNL     1       8.041   7.585  -0.131  0.00  0.00    +0.035 C 
ATOM     27  C   UNL     1       6.673   8.210  -0.383  0.00  0.00    +0.115 C 
ATOM     28  C   UNL     1       5.593   7.435   0.336  0.00  0.00    +0.247 C 
ATOM     29  O   UNL     1       5.486   7.263   1.531  0.00  0.00    -0.273 OA
ATOM     30  N   UNL     1       4.775   6.972  -0.632  0.00  0.00    -0.215 N 
ATOM     31  C   UNL     1       5.186   7.354  -1.848  0.00  0.00    +0.310 C 
ATOM     32  O   UNL     1       4.610   7.063  -2.878  0.00  0.00    -0.252 OA
ATOM     33  N   UNL     1       6.309   8.095  -1.802  0.00  0.00    -0.285 N 
ATOM     34  H   UNL     1       6.784   8.478  -2.556  0.00  0.00    +0.151 HD
ENDBRANCH  20  30
ENDBRANCH   1  20
TORSDOF 5
