REMARK  Name = ZINC60142549
REMARK  9 active torsions:
REMARK  status: ('A' for Active; 'I' for Inactive)
REMARK    1  A    between atoms: C_1  and  C_2
REMARK    2  A    between atoms: C_5  and  N_8
REMARK    3  A    between atoms: C_9  and  C_11
REMARK    4  A    between atoms: C_11  and  C_12
REMARK    5  A    between atoms: C_18  and  O_20
REMARK    6  A    between atoms: O_20  and  C_21
REMARK    7  A    between atoms: C_21  and  C_22
REMARK    8  A    between atoms: C_21  and  C_23
REMARK    9  A    between atoms: C_21  and  C_24
REMARK                            x       y       z     vdW  Elec       q    Type
REMARK                         _______ _______ _______ _____ _____    ______ ____
ROOT
ATOM      1  C   UNL     1      -1.637  -3.240   6.009  0.00  0.00    +0.001 C 
ATOM      2  C   UNL     1      -0.145  -3.179   6.340  0.00  0.00    +0.023 C 
ATOM      3  C   UNL     1       0.161  -4.153   7.482  0.00  0.00    +0.111 C 
ATOM      4  N   UNL     1      -0.722  -3.845   8.615  0.00  0.00    -0.267 N 
ATOM      5  C   UNL     1      -2.172  -3.789   8.386  0.00  0.00    +0.111 C 
ATOM      6  C   UNL     1      -2.451  -2.818   7.234  0.00  0.00    +0.023 C 
ATOM      7  C   UNL     1      -0.211  -3.619   9.842  0.00  0.00    +0.403 C 
ATOM      8  O   UNL     1       0.990  -3.670  10.019  0.00  0.00    -0.226 OA
ENDROOT
BRANCH   1   9
ATOM      9  C   UNL     1      -1.941  -2.293   4.845  0.00  0.00    +0.099 C 
BRANCH   9  11
ATOM     10  N   UNL     1      -1.358  -2.098   2.449  0.00  0.00    -0.312 N 
ATOM     11  C   UNL     1      -1.235  -2.779   3.606  0.00  0.00    +0.214 C 
ATOM     12  O   UNL     1      -0.557  -3.784   3.648  0.00  0.00    -0.276 OA
ATOM     13  H   UNL     1      -1.901  -1.294   2.415  0.00  0.00    +0.149 HD
BRANCH  10  18
ATOM     14  C   UNL     1      -0.019   1.526   0.010  0.00  0.00    +0.007 C 
ATOM     15  C   UNL     1       0.002  -0.004   0.002  0.00  0.00    -0.014 C 
ATOM     16  C   UNL     1      -1.433  -0.534   0.013  0.00  0.00    +0.005 C 
ATOM     17  C   UNL     1      -1.413  -2.063   0.004  0.00  0.00    +0.022 C 
ATOM     18  C   UNL     1      -0.673  -2.570   1.244  0.00  0.00    +0.073 C 
ATOM     19  C   UNL     1       0.763  -2.041   1.233  0.00  0.00    +0.022 C 
ATOM     20  C   UNL     1       0.742  -0.511   1.242  0.00  0.00    +0.005 C 
ENDBRANCH  10  18
ENDBRANCH   9  11
ENDBRANCH   1   9
BRANCH   7  21
ATOM     21  O   UNL     1      -1.031  -3.338  10.872  0.00  0.00    -0.445 OA
BRANCH  21  22
ATOM     22  C   UNL     1      -0.422  -3.110  12.144  0.00  0.00    +0.107 C 
ATOM     23  C   UNL     1       0.536  -1.921  12.044  0.00  0.00    +0.055 C 
ATOM     24  C   UNL     1      -1.504  -2.808  13.182  0.00  0.00    +0.055 C 
ATOM     25  C   UNL     1       0.357  -4.357  12.567  0.00  0.00    +0.055 C 
ENDBRANCH  21  22
ENDBRANCH   7  21
TORSDOF 5
