REMARK  Name = ZINC39590265
REMARK  5 active torsions:
REMARK  status: ('A' for Active; 'I' for Inactive)
REMARK    1  A    between atoms: C_1  and  C_2
REMARK    2  A    between atoms: C_3  and  N_9
REMARK    3  A    between atoms: C_10  and  C_12
REMARK    4  A    between atoms: C_15  and  N_19
REMARK    5  A    between atoms: C_20  and  C_22
REMARK                            x       y       z     vdW  Elec       q    Type
REMARK                         _______ _______ _______ _____ _____    ______ ____
ROOT
ATOM      1  C   UNL     1       0.197   0.076  -4.796  0.00  0.00    +0.087 C 
ATOM      2  C   UNL     1       0.298  -0.592  -5.964  0.00  0.00    +0.021 C 
ATOM      3  N   UNL     1       0.393   0.058  -7.143  0.00  0.00    -0.320 N 
ATOM      4  C   UNL     1       1.022  -0.676  -8.262  0.00  0.00    +0.219 C 
ATOM      5  S   UNL     1       0.582  -2.411  -7.813  0.00  0.00    -0.114 S 
ATOM      6  C   UNL     1       0.318  -2.111  -6.013  0.00  0.00    +0.123 C 
ATOM      7  H   UNL     1       0.064   0.964  -7.251  0.00  0.00    +0.148 HD
ENDROOT
BRANCH   1   9
ATOM      8  N   UNL     1       0.004   0.028  -2.412  0.00  0.00    -0.282 N 
ATOM      9  C   UNL     1       0.105  -0.639  -3.579  0.00  0.00    +0.243 C 
ATOM     10  O   UNL     1       0.118  -1.856  -3.586  0.00  0.00    -0.270 OA
ATOM     11  H   UNL     1      -0.087   0.994  -2.412  0.00  0.00    +0.155 HD
BRANCH   8  14
ATOM     12  C   UNL     1      -1.242   1.214  -0.145  0.00  0.00    +0.047 C 
ATOM     13  C   UNL     1      -0.565  -0.130  -0.071  0.00  0.00    -0.011 A 
ATOM     14  C   UNL     1       0.031  -0.672  -1.202  0.00  0.00    +0.038 A 
ATOM     15  C   UNL     1       0.654  -1.911  -1.129  0.00  0.00    +0.023 A 
ATOM     16  C   UNL     1       0.679  -2.601   0.067  0.00  0.00    +0.003 A 
ATOM     17  C   UNL     1       0.085  -2.060   1.192  0.00  0.00    +0.020 A 
ATOM     18  C   UNL     1      -0.532  -0.823   1.125  0.00  0.00    +0.046 A 
ATOM     19 CL   UNL     1      -1.270  -0.143   2.541  0.00  0.00    -0.083 Cl
ENDBRANCH   8  14
ENDBRANCH   1   9
BRANCH   4  20
ATOM     20  N   UNL     1       0.431  -0.294  -9.547  0.00  0.00    -0.284 N 
ATOM     21  C   UNL     1       1.056  -0.613 -10.698  0.00  0.00    +0.251 C 
ATOM     22  O   UNL     1       2.062  -1.297 -10.675  0.00  0.00    -0.270 OA
ATOM     23  H   UNL     1      -0.410   0.189  -9.569  0.00  0.00    +0.152 HD
BRANCH  21  24
ATOM     24  C   UNL     1       0.521  -0.134 -11.982  0.00  0.00    +0.101 A 
ATOM     25  C   UNL     1       1.214  -0.364 -13.168  0.00  0.00    +0.020 A 
ATOM     26  C   UNL     1       0.676   0.105 -14.367  0.00  0.00    +0.018 A 
ATOM     27  C   UNL     1      -0.505   0.773 -14.368  0.00  0.00    +0.086 A 
ATOM     28  N   UNL     1      -1.184   1.001 -13.218  0.00  0.00    -0.328 N 
ATOM     29  C   UNL     1      -0.713   0.564 -12.035  0.00  0.00    +0.261 A 
ATOM     30  O   UNL     1      -1.341   0.774 -11.011  0.00  0.00    -0.267 OA
ATOM     31  H   UNL     1      -2.026   1.482 -13.248  0.00  0.00    +0.168 HD
ENDBRANCH  21  24
ENDBRANCH   4  20
TORSDOF 4
