REMARK  Name = ZINC58192266
REMARK  5 active torsions:
REMARK  status: ('A' for Active; 'I' for Inactive)
REMARK    1  A    between atoms: C_1  and  C_2
REMARK    2  A    between atoms: N_10  and  C_11
REMARK    3  A    between atoms: C_11  and  C_12
REMARK    4  A    between atoms: C_12  and  C_14
REMARK    5  A    between atoms: C_12  and  N_21
REMARK                            x       y       z     vdW  Elec       q    Type
REMARK                         _______ _______ _______ _____ _____    ______ ____
ROOT
ATOM      1  C   UNL     1      -5.749  -5.462   0.065  0.00  0.00    +0.104 C 
ENDROOT
BRANCH   1   2
ATOM      2  C   UNL     1      -7.251  -5.334   0.066  0.00  0.00    -0.029 A 
ATOM      3  C   UNL     1      -7.921  -5.073   1.247  0.00  0.00    +0.006 A 
ATOM      4  C   UNL     1      -9.298  -4.955   1.249  0.00  0.00    +0.020 A 
ATOM      5  C   UNL     1     -10.006  -5.099   0.070  0.00  0.00    +0.041 A 
ATOM      6  C   UNL     1      -9.335  -5.361  -1.112  0.00  0.00    +0.020 A 
ATOM      7  C   UNL     1      -7.957  -5.472  -1.114  0.00  0.00    +0.006 A 
ATOM      8 CL   UNL     1     -11.736  -4.952   0.072  0.00  0.00    -0.084 Cl
ENDBRANCH   1   2
BRANCH   1   9
ATOM      9  N   UNL     1      -5.320  -6.204   1.258  0.00  0.00    -0.290 NA
ATOM     10  C   UNL     1      -3.854  -6.286   1.327  0.00  0.00    +0.113 C 
ATOM     11  C   UNL     1      -3.449  -7.013   2.613  0.00  0.00    +0.175 C 
ATOM     12  O   UNL     1      -4.065  -8.303   2.638  0.00  0.00    -0.377 OA
ATOM     13  C   UNL     1      -5.493  -8.261   2.572  0.00  0.00    +0.175 C 
ATOM     14  C   UNL     1      -5.918  -7.546   1.287  0.00  0.00    +0.113 C 
ENDBRANCH   1   9
BRANCH   1  15
ATOM     15  C   UNL     1      -5.119  -4.068   0.076  0.00  0.00    +0.129 C 
BRANCH  15  25
ATOM     16  C   UNL     1      -3.542   3.106  -1.544  0.00  0.00    +0.089 C 
ATOM     17  C   UNL     1      -4.244   1.945  -2.200  0.00  0.00    +0.136 A 
ATOM     18  C   UNL     1      -4.394   0.716  -1.675  0.00  0.00    +0.091 A 
ATOM     19  C   UNL     1      -5.108  -0.073  -2.605  0.00  0.00    +0.169 A 
ATOM     20  N   UNL     1      -5.370   0.673  -3.647  0.00  0.00    -0.063 NA
ATOM     21  O   UNL     1      -4.833   1.960  -3.406  0.00  0.00    -0.358 OA
ATOM     22  N   UNL     1      -5.469  -1.410  -2.440  0.00  0.00    -0.252 N 
ATOM     23  C   UNL     1      -5.134  -2.065  -1.310  0.00  0.00    +0.305 C 
ATOM     24  O   UNL     1      -4.517  -1.490  -0.435  0.00  0.00    -0.252 OA
ATOM     25  N   UNL     1      -5.483  -3.357  -1.151  0.00  0.00    -0.297 N 
ATOM     26  H   UNL     1      -5.962  -1.869  -3.139  0.00  0.00    +0.158 HD
ATOM     27  H   UNL     1      -5.975  -3.816  -1.850  0.00  0.00    +0.150 HD
ENDBRANCH  15  25
ENDBRANCH   1  15
TORSDOF 4
