REMARK  Name = ZINC59136040
REMARK  5 active torsions:
REMARK  status: ('A' for Active; 'I' for Inactive)
REMARK    1  A    between atoms: C_5  and  N_7
REMARK    2  A    between atoms: C_11  and  C_12
REMARK    3  A    between atoms: C_15  and  O_19
REMARK    4  A    between atoms: O_19  and  C_20
REMARK    5  A    between atoms: C_20  and  C_21
REMARK                            x       y       z     vdW  Elec       q    Type
REMARK                         _______ _______ _______ _____ _____    ______ ____
ROOT
ATOM      1  N   UNL     1       1.076  -2.088  -0.020  0.00  0.00    -0.213 N 
ATOM      2  C   UNL     1       1.352  -2.773   1.111  0.00  0.00    +0.262 C 
ATOM      3  O   UNL     1       1.839  -2.220   2.079  0.00  0.00    -0.269 OA
ATOM      4  C   UNL     1       1.042  -4.217   1.132  0.00  0.00    +0.102 C 
ATOM      5  C   UNL     1       1.293  -4.995   2.250  0.00  0.00    +0.026 C 
ATOM      6  C   UNL     1       0.455  -4.792  -0.089  0.00  0.00    +0.274 C 
ATOM      7  O   UNL     1       0.142  -6.104  -0.154  0.00  0.00    -0.268 OA
ATOM      8  N   UNL     1       0.241  -3.994  -1.121  0.00  0.00    -0.153 NA
ATOM      9  C   UNL     1       0.534  -2.697  -1.084  0.00  0.00    +0.171 C 
ATOM     10  S   UNL     1       0.209  -1.755  -2.476  0.00  0.00    -0.016 S 
ENDROOT
BRANCH   5  11
ATOM     11  C   UNL     1       1.205  -6.451   2.162  0.00  0.00    -0.022 A 
ATOM     12  C   UNL     1       1.812  -7.131   1.094  0.00  0.00    +0.031 A 
ATOM     13  C   UNL     1       1.727  -8.492   1.015  0.00  0.00    +0.084 A 
ATOM     14  C   UNL     1       1.040  -9.210   1.990  0.00  0.00    +0.154 A 
ATOM     15  C   UNL     1       0.434  -8.547   3.054  0.00  0.00    +0.062 A 
ATOM     16  C   UNL     1       0.517  -7.176   3.148  0.00  0.00    +0.027 A 
ATOM     17 BR   UNL     1      -0.497  -9.530   4.373  0.00  0.00    -0.046 Br
ATOM     18 CL   UNL     1       2.478  -9.329  -0.307  0.00  0.00    -0.080 Cl
BRANCH  14  19
ATOM     19  O   UNL     1       0.961 -10.562   1.904  0.00  0.00    -0.475 OA
BRANCH  19  20
ATOM     20  C   UNL     1       1.996 -11.314   2.540  0.00  0.00    +0.346 C 
BRANCH  20  21
ATOM     21  C   UNL     1       1.748 -12.752   2.344  0.00  0.00    +0.104 C 
ATOM     22  N   UNL     1       1.558 -13.861   2.193  0.00  0.00    -0.193 NA
ENDBRANCH  20  21
ENDBRANCH  19  20
ENDBRANCH  14  19
ENDBRANCH   5  11
BRANCH   1  27
ATOM     23  C   UNL     1       0.671   1.559   0.252  0.00  0.00    +0.002 A 
ATOM     24  C   UNL     1       1.905   1.995  -0.197  0.00  0.00    +0.003 A 
ATOM     25  C   UNL     1       2.865   1.080  -0.587  0.00  0.00    +0.040 A 
ATOM     26  C   UNL     1       2.594  -0.275  -0.529  0.00  0.00    +0.145 A 
ATOM     27  C   UNL     1       1.355  -0.715  -0.079  0.00  0.00    +0.078 A 
ATOM     28  C   UNL     1       0.394   0.207   0.312  0.00  0.00    +0.027 A 
ATOM     29  F   UNL     1       3.532  -1.169  -0.911  0.00  0.00    -0.204 F 
ENDBRANCH   1  27
TORSDOF 5
