REMARK  Name = ZINC12858063
REMARK  11 active torsions:
REMARK  status: ('A' for Active; 'I' for Inactive)
REMARK    1  A    between atoms: C_1  and  C_2
REMARK    2  A    between atoms: C_5  and  C_8
REMARK    3  A    between atoms: C_8  and  C_10
REMARK    4  A    between atoms: C_8  and  N_15
REMARK    5  A    between atoms: C_16  and  C_18
REMARK    6  A    between atoms: C_18  and  N_50
REMARK    7  A    between atoms: C_19  and  C_20
REMARK    8  A    between atoms: C_19  and  N_50
REMARK    9  A    between atoms: C_23  and  C_24
REMARK   10  A    between atoms: C_23  and  C_25
REMARK   11  A    between atoms: C_23  and  N_50
REMARK                            x       y       z     vdW  Elec       q    Type
REMARK                         _______ _______ _______ _____ _____    ______ ____
ROOT
ATOM      1  N   UNL     1       1.812  -2.240  -0.973  0.00  0.00    -0.306 N 
ATOM      2  C   UNL     1       2.108  -2.311  -2.285  0.00  0.00    +0.197 C 
ATOM      3  O   UNL     1       2.919  -1.548  -2.766  0.00  0.00    -0.278 OA
ATOM      4  H   UNL     1       1.164  -2.850  -0.588  0.00  0.00    +0.150 HD
ENDROOT
BRANCH   1   5
ATOM      5  C   UNL     1       2.468  -1.240  -0.127  0.00  0.00    +0.140 C 
BRANCH   5  10
ATOM      6  C   UNL     1       2.485  -3.065   5.356  0.00  0.00    +0.044 C 
ATOM      7  C   UNL     1       2.481  -2.590   3.926  0.00  0.00    -0.050 A 
ATOM      8  C   UNL     1       3.591  -1.951   3.407  0.00  0.00    +0.004 A 
ATOM      9  C   UNL     1       3.587  -1.514   2.095  0.00  0.00    +0.006 A 
ATOM     10  C   UNL     1       2.473  -1.716   1.303  0.00  0.00    -0.022 A 
ATOM     11  C   UNL     1       1.360  -2.350   1.824  0.00  0.00    +0.006 A 
ATOM     12  C   UNL     1       1.366  -2.792   3.134  0.00  0.00    +0.004 A 
ENDBRANCH   5  10
BRANCH   5  13
ATOM     13  C   UNL     1       1.721   0.065  -0.219  0.00  0.00    +0.014 A 
ATOM     14  C   UNL     1       2.211   1.327  -0.281  0.00  0.00    +0.013 A 
ATOM     15  C   UNL     1       1.327   2.387  -0.362  0.00  0.00    +0.008 A 
ATOM     16  C   UNL     1      -0.005   2.132  -0.376  0.00  0.00    +0.045 A 
ATOM     17  S   UNL     1      -0.041   0.350  -0.274  0.00  0.00    -0.099 S 
ENDBRANCH   5  13
ENDBRANCH   1   5
BRANCH   2  18
ATOM     18  C   UNL     1       1.433  -3.340  -3.156  0.00  0.00    +0.020 C 
BRANCH  18  19
ATOM     19  N   UNL     1       1.846  -3.119  -4.557  0.00  0.00    +0.393 N 
ATOM     20  H   UNL     1       1.851  -2.110  -4.749  0.00  0.00    -0.080 HD
BRANCH  19  21
ATOM     21  C   UNL     1       0.893  -3.777  -5.475  0.00  0.00    -0.074 C 
ATOM     22  C   UNL     1       0.638  -5.221  -5.037  0.00  0.00    -0.013 C 
ATOM     23  C   UNL     1      -0.424  -2.999  -5.458  0.00  0.00    -0.013 C 
ENDBRANCH  19  21
BRANCH  19  24
ATOM     24  C   UNL     1       3.207  -3.654  -4.773  0.00  0.00    +0.019 C 
BRANCH  24  25
ATOM     25  C   UNL     1       3.688  -3.224  -6.135  0.00  0.00    +0.194 C 
ATOM     26  O   UNL     1       2.968  -2.560  -6.851  0.00  0.00    -0.278 OA
ATOM     27  N   UNL     1       4.918  -3.577  -6.558  0.00  0.00    -0.331 N 
ATOM     28  H   UNL     1       5.494  -4.108  -5.985  0.00  0.00    +0.145 HD
ATOM     29  H   UNL     1       5.228  -3.300  -7.434  0.00  0.00    +0.145 HD
ENDBRANCH  24  25
ENDBRANCH  19  24
ENDBRANCH  18  19
ENDBRANCH   2  18
TORSDOF 8
