REMARK  Name = ZINC44212065
REMARK  6 active torsions:
REMARK  status: ('A' for Active; 'I' for Inactive)
REMARK    1  A    between atoms: C_1  and  C_2
REMARK    2  A    between atoms: C_7  and  O_8
REMARK    3  A    between atoms: O_8  and  C_9
REMARK    4  A    between atoms: C_15  and  O_22
REMARK    5  A    between atoms: C_19  and  O_21
REMARK    6  A    between atoms: O_22  and  C_23
REMARK                            x       y       z     vdW  Elec       q    Type
REMARK                         _______ _______ _______ _____ _____    ______ ____
ROOT
ATOM      1  C   UNL     1      -0.064  -0.817   3.572  0.00  0.00    +0.207 C 
ATOM      2  C   UNL     1      -1.535  -1.104   3.893  0.00  0.00    +0.052 C 
ATOM      3  C   UNL     1      -1.591  -2.133   5.020  0.00  0.00    +0.039 C 
ATOM      4  C   UNL     1      -0.724  -1.701   6.174  0.00  0.00    -0.038 A 
ATOM      5  C   UNL     1      -0.944  -2.301   7.406  0.00  0.00    +0.049 A 
ATOM      6  C   UNL     1      -0.177  -1.953   8.504  0.00  0.00    +0.120 A 
ATOM      7  C   UNL     1       0.820  -0.997   8.370  0.00  0.00    +0.046 A 
ATOM      8  C   UNL     1       1.035  -0.401   7.146  0.00  0.00    +0.010 A 
ATOM      9  C   UNL     1       0.262  -0.748   6.044  0.00  0.00    -0.012 A 
ATOM     10  C   UNL     1       0.543  -0.045   4.742  0.00  0.00    +0.185 C 
ENDROOT
BRANCH  10  11
ATOM     11  O   UNL     1      -0.021   1.267   4.784  0.00  0.00    -0.383 OA
ATOM     12  H   UNL     1       0.317   1.818   5.503  0.00  0.00    +0.210 HD
ENDBRANCH  10  11
BRANCH   6  13
ATOM     13  O   UNL     1      -0.398  -2.544   9.708  0.00  0.00    -0.495 OA
ATOM     14  C   UNL     1       0.433  -2.134  10.795  0.00  0.00    +0.277 C 
ENDBRANCH   6  13
BRANCH   1  15
ATOM     15  O   UNL     1       0.025  -0.033   2.381  0.00  0.00    -0.486 OA
BRANCH  15  22
ATOM     16  C   UNL     1       0.433   1.473   0.026  0.00  0.00    +0.047 C 
ATOM     17  C   UNL     1       0.217  -0.018   0.009  0.00  0.00    -0.009 A 
ATOM     18  C   UNL     1       0.218  -0.704  -1.190  0.00  0.00    +0.007 A 
ATOM     19  C   UNL     1       0.019  -2.072  -1.206  0.00  0.00    +0.000 A 
ATOM     20  C   UNL     1      -0.182  -2.757  -0.022  0.00  0.00    +0.004 A 
ATOM     21  C   UNL     1      -0.184  -2.077   1.180  0.00  0.00    +0.046 A 
ATOM     22  C   UNL     1       0.021  -0.705   1.199  0.00  0.00    +0.124 A 
ENDBRANCH  15  22
ENDBRANCH   1  15
TORSDOF 4
