REMARK  Name = ZINC39337296
REMARK  5 active torsions:
REMARK  status: ('A' for Active; 'I' for Inactive)
REMARK    1  A    between atoms: C_1  and  C_2
REMARK    2  A    between atoms: C_2  and  O_4
REMARK    3  A    between atoms: O_4  and  C_5
REMARK    4  A    between atoms: C_8  and  N_11
REMARK    5  A    between atoms: C_20  and  C_34
REMARK                            x       y       z     vdW  Elec       q    Type
REMARK                         _______ _______ _______ _____ _____    ______ ____
ROOT
ATOM      1  N   UNL     1      -0.567  -6.182  -0.306  0.00  0.00    -0.210 N 
ATOM      2  C   UNL     1       0.620  -6.792  -0.196  0.00  0.00    +0.231 C 
ATOM      3  O   UNL     1       1.683  -6.236  -0.018  0.00  0.00    -0.274 OA
ATOM      4  C   UNL     1       0.424  -8.287  -0.328  0.00  0.00    +0.101 C 
ATOM      5  C   UNL     1      -1.093  -8.437  -0.535  0.00  0.00    +0.114 C 
ATOM      6  C   UNL     1      -1.601  -7.011  -0.494  0.00  0.00    +0.232 C 
ATOM      7  O   UNL     1      -2.759  -6.674  -0.614  0.00  0.00    -0.274 OA
ATOM      8  C   UNL     1      -1.409  -9.053  -1.914  0.00  0.00    +0.134 C 
ATOM      9  C   UNL     1      -0.635 -10.362  -1.959  0.00  0.00    -0.022 A 
ATOM     10  C   UNL     1      -1.194 -11.591  -2.163  0.00  0.00    +0.005 A 
ATOM     11  C   UNL     1      -0.368 -12.707  -2.180  0.00  0.00    +0.000 A 
ATOM     12  C   UNL     1       0.995 -12.572  -1.995  0.00  0.00    +0.000 A 
ATOM     13  C   UNL     1       1.557 -11.319  -1.789  0.00  0.00    +0.004 A 
ATOM     14  C   UNL     1       0.739 -10.226  -1.773  0.00  0.00    -0.035 A 
ATOM     15  C   UNL     1       1.217  -8.783  -1.556  0.00  0.00    +0.062 C 
ATOM     16  C   UNL     1       0.673  -7.993  -2.736  0.00  0.00    -0.035 A 
ATOM     17  C   UNL     1      -0.722  -8.151  -2.928  0.00  0.00    -0.022 A 
ATOM     18  C   UNL     1      -1.355  -7.506  -3.952  0.00  0.00    +0.005 A 
ATOM     19  C   UNL     1      -0.604  -6.709  -4.806  0.00  0.00    +0.000 A 
ATOM     20  C   UNL     1       0.759  -6.573  -4.620  0.00  0.00    +0.000 A 
ATOM     21  C   UNL     1       1.425  -7.204  -3.558  0.00  0.00    +0.004 A 
ENDROOT
BRANCH   1  25
ATOM     22  C   UNL     1      -1.006  -2.041  -0.066  0.00  0.00    +0.132 A 
ATOM     23  C   UNL     1      -1.527  -2.852   0.932  0.00  0.00    +0.048 A 
ATOM     24  C   UNL     1      -1.381  -4.223   0.853  0.00  0.00    +0.027 A 
ATOM     25  C   UNL     1      -0.715  -4.789  -0.226  0.00  0.00    +0.044 A 
ATOM     26  C   UNL     1      -0.195  -3.977  -1.224  0.00  0.00    +0.027 A 
ATOM     27  C   UNL     1      -0.345  -2.607  -1.147  0.00  0.00    +0.048 A 
BRANCH  22  28
ATOM     28  O   UNL     1      -1.150  -0.691   0.012  0.00  0.00    -0.426 OA
BRANCH  28  30
ATOM     29  C   UNL     1      -0.393   1.486   0.899  0.00  0.00    +0.136 C 
ATOM     30  C   UNL     1      -0.351  -0.020   0.858  0.00  0.00    +0.309 C 
ATOM     31  O   UNL     1       0.402  -0.624   1.585  0.00  0.00    -0.251 OA
ENDBRANCH  28  30
ENDBRANCH  22  28
ENDBRANCH   1  25
BRANCH   8  32
ATOM     32  C   UNL     1      -2.886  -9.210  -2.167  0.00  0.00    +0.371 C 
ATOM     33  O   UNL     1      -3.320  -9.147  -3.305  0.00  0.00    -0.245 OA
ATOM     34  O   UNL     1      -3.648  -9.399  -1.235  0.00  0.00    -0.245 OA
ENDBRANCH   8  32
TORSDOF 4
