REMARK  Name = ZINC48742163
REMARK  10 active torsions:
REMARK  status: ('A' for Active; 'I' for Inactive)
REMARK    1  A    between atoms: C_1  and  C_2
REMARK    2  A    between atoms: C_2  and  C_28
REMARK    3  A    between atoms: C_7  and  N_11
REMARK    4  A    between atoms: C_12  and  C_14
REMARK    5  A    between atoms: N_16  and  C_17
REMARK    6  A    between atoms: C_17  and  C_18
REMARK    7  A    between atoms: C_18  and  C_20
REMARK    8  A    between atoms: C_18  and  N_25
REMARK    9  A    between atoms: N_25  and  C_26
REMARK   10  A    between atoms: N_25  and  C_27
REMARK                            x       y       z     vdW  Elec       q    Type
REMARK                         _______ _______ _______ _____ _____    ______ ____
ROOT
ATOM      1  N   UNL     1      -0.206  -4.787   3.390  0.00  0.00    -0.278 N 
ATOM      2  C   UNL     1      -1.064  -5.799   3.630  0.00  0.00    +0.303 C 
ATOM      3  O   UNL     1      -2.157  -5.806   3.103  0.00  0.00    -0.265 OA
ATOM      4  H   UNL     1       0.688  -4.809   3.765  0.00  0.00    +0.155 HD
ENDROOT
BRANCH   1  11
ATOM      5  C   UNL     1      -3.165  -0.991  -1.954  0.00  0.00    +0.104 C 
ATOM      6  C   UNL     1      -3.025  -1.380  -0.481  0.00  0.00    +0.248 C 
ATOM      7  O   UNL     1      -1.919  -0.684   0.124  0.00  0.00    -0.448 OA
ATOM      8  C   UNL     1      -1.393  -1.556   1.034  0.00  0.00    +0.167 A 
ATOM      9  C   UNL     1      -0.544  -1.356   2.111  0.00  0.00    +0.051 A 
ATOM     10  C   UNL     1      -0.151  -2.425   2.891  0.00  0.00    +0.027 A 
ATOM     11  C   UNL     1      -0.606  -3.705   2.599  0.00  0.00    +0.038 A 
ATOM     12  C   UNL     1      -1.457  -3.909   1.521  0.00  0.00    +0.073 A 
ATOM     13  C   UNL     1      -1.851  -2.838   0.738  0.00  0.00    +0.169 A 
ATOM     14  O   UNL     1      -2.664  -2.769  -0.357  0.00  0.00    -0.448 OA
ATOM     15  C   UNL     1      -4.324  -1.093   0.275  0.00  0.00    +0.104 C 
ENDBRANCH   1  11
BRANCH   2  16
ATOM     16  C   UNL     1      -0.669  -6.910   4.546  0.00  0.00    +0.299 C 
ATOM     17  O   UNL     1       0.424  -6.903   5.074  0.00  0.00    -0.265 OA
ATOM     18  N   UNL     1      -1.526  -7.922   4.787  0.00  0.00    -0.309 N 
ATOM     19  H   UNL     1      -2.400  -7.928   4.365  0.00  0.00    +0.149 HD
BRANCH  18  20
ATOM     20  C   UNL     1      -1.139  -9.013   5.685  0.00  0.00    +0.094 C 
BRANCH  20  21
ATOM     21  C   UNL     1      -2.231 -10.084   5.686  0.00  0.00    -0.014 C 
BRANCH  21  22
ATOM     22  C   UNL     1      -2.370 -10.662   4.301  0.00  0.00    -0.022 A 
ATOM     23  C   UNL     1      -3.286 -10.374   3.345  0.00  0.00    +0.009 A 
ATOM     24  C   UNL     1      -3.220 -11.036   2.133  0.00  0.00    +0.008 A 
ATOM     25  C   UNL     1      -2.240 -11.952   1.937  0.00  0.00    +0.045 A 
ATOM     26  S   UNL     1      -1.365 -11.896   3.492  0.00  0.00    -0.103 S 
ENDBRANCH  21  22
BRANCH  21  27
ATOM     27  N   UNL     1      -1.868 -11.152   6.628  0.00  0.00    +0.382 N 
ATOM     28  C   UNL     1      -1.841 -10.612   7.994  0.00  0.00    -0.096 C 
ATOM     29  C   UNL     1      -2.858 -12.233   6.547  0.00  0.00    -0.096 C 
ATOM     30  H   UNL     1      -0.956 -11.513   6.391  0.00  0.00    -0.082 HD
ENDBRANCH  21  27
ENDBRANCH  20  21
ENDBRANCH  18  20
ENDBRANCH   2  16
TORSDOF 6
