REMARK  Name = ZINC08618895
REMARK  9 active torsions:
REMARK  status: ('A' for Active; 'I' for Inactive)
REMARK    1  A    between atoms: C_1  and  N_2
REMARK    2  A    between atoms: N_2  and  C_3
REMARK    3  A    between atoms: N_2  and  C_4
REMARK    4  A    between atoms: C_7  and  C_10
REMARK    5  A    between atoms: C_12  and  C_31
REMARK    6  A    between atoms: C_13  and  C_25
REMARK    7  A    between atoms: N_14  and  C_15
REMARK    8  A    between atoms: C_15  and  C_16
REMARK    9  A    between atoms: C_17  and  N_24
REMARK                            x       y       z     vdW  Elec       q    Type
REMARK                         _______ _______ _______ _____ _____    ______ ____
ROOT
ATOM      1  C   UNL     1       0.067  -2.398  -4.327  0.00  0.00    +0.142 A 
ATOM      2  N   UNL     1       0.419  -3.627  -4.024  0.00  0.00    -0.227 NA
ATOM      3  C   UNL     1       0.779  -4.281  -5.140  0.00  0.00    +0.097 A 
ATOM      4  C   UNL     1       0.642  -3.406  -6.204  0.00  0.00    +0.077 A 
ATOM      5  N   UNL     1       0.186  -2.220  -5.676  0.00  0.00    -0.318 N 
ENDROOT
BRANCH   1   9
ATOM      6  C   UNL     1      -1.246   0.544  -1.558  0.00  0.00    +0.029 A 
ATOM      7  C   UNL     1      -1.327  -0.805  -1.228  0.00  0.00    +0.024 A 
ATOM      8  C   UNL     1      -0.903  -1.761  -2.124  0.00  0.00    +0.013 A 
ATOM      9  C   UNL     1      -0.390  -1.375  -3.365  0.00  0.00    +0.018 A 
ATOM     10  C   UNL     1      -0.309  -0.020  -3.693  0.00  0.00    +0.013 A 
ATOM     11  C   UNL     1      -0.741   0.931  -2.795  0.00  0.00    +0.024 A 
BRANCH   6  13
ATOM     12  C   UNL     1      -1.598   2.930  -0.997  0.00  0.00    +0.129 C 
ATOM     13  N   UNL     1      -1.677   1.510  -0.649  0.00  0.00    -0.336 N 
ATOM     14  C   UNL     1      -2.210   1.103   0.653  0.00  0.00    +0.129 C 
ENDBRANCH   6  13
ENDBRANCH   1   9
BRANCH   4  15
ATOM     15  C   UNL     1       0.924  -3.691  -7.625  0.00  0.00    +0.001 A 
ATOM     16  C   UNL     1      -0.070  -3.504  -8.589  0.00  0.00    +0.010 A 
ATOM     17  C   UNL     1       0.201  -3.772  -9.915  0.00  0.00    +0.001 A 
ATOM     18  C   UNL     1       1.453  -4.225 -10.290  0.00  0.00    +0.000 A 
ATOM     19  C   UNL     1       2.442  -4.413  -9.341  0.00  0.00    +0.001 A 
ATOM     20  C   UNL     1       2.188  -4.144  -8.012  0.00  0.00    +0.010 A 
ENDBRANCH   4  15
BRANCH   3  21
ATOM     21  C   UNL     1       1.239  -5.687  -5.219  0.00  0.00    +0.002 A 
ATOM     22  C   UNL     1       0.911  -6.470  -6.326  0.00  0.00    +0.010 A 
ATOM     23  C   UNL     1       1.343  -7.779  -6.394  0.00  0.00    +0.001 A 
ATOM     24  C   UNL     1       2.099  -8.315  -5.367  0.00  0.00    +0.000 A 
ATOM     25  C   UNL     1       2.427  -7.543  -4.266  0.00  0.00    +0.001 A 
ATOM     26  C   UNL     1       2.007  -6.231  -4.190  0.00  0.00    +0.010 A 
ENDBRANCH   3  21
BRANCH   5  27
ATOM     27  C   UNL     1      -0.113  -0.994  -6.420  0.00  0.00    +0.168 C 
BRANCH  27  28
ATOM     28  C   UNL     1       1.172  -0.374  -6.905  0.00  0.00    +0.076 A 
ATOM     29  C   UNL     1       1.441  -0.273  -8.263  0.00  0.00    +0.130 A 
ATOM     30  N   UNL     1       2.588   0.280  -8.673  0.00  0.00    -0.201 NA
ATOM     31  C   UNL     1       3.472   0.734  -7.811  0.00  0.00    +0.195 A 
ATOM     32  N   UNL     1       3.256   0.658  -6.469  0.00  0.00    -0.295 N 
ATOM     33  C   UNL     1       2.115   0.115  -5.996  0.00  0.00    +0.259 A 
ATOM     34  O   UNL     1       1.911   0.047  -4.794  0.00  0.00    -0.267 OA
ATOM     35  N   UNL     1       4.633   1.294  -8.272  0.00  0.00    -0.329 N 
ATOM     36  H   UNL     1       4.798   1.353  -9.226  0.00  0.00    +0.145 HD
ATOM     37  H   UNL     1       5.292   1.631  -7.645  0.00  0.00    +0.145 HD
ATOM     38  H   UNL     1       3.922   0.998  -5.852  0.00  0.00    +0.172 HD
BRANCH  29  39
ATOM     39  N   UNL     1       0.528  -0.743  -9.186  0.00  0.00    -0.343 N 
ATOM     40  H   UNL     1      -0.360  -1.006  -8.900  0.00  0.00    +0.144 HD
ATOM     41  H   UNL     1       0.776  -0.809 -10.122  0.00  0.00    +0.144 HD
ENDBRANCH  29  39
ENDBRANCH  27  28
ENDBRANCH   5  27
TORSDOF 7
