REMARK  Name = ZINC32791559
REMARK  10 active torsions:
REMARK  status: ('A' for Active; 'I' for Inactive)
REMARK    1  A    between atoms: C_1  and  C_2
REMARK    2  A    between atoms: C_2  and  C_4
REMARK    3  A    between atoms: C_2  and  N_12
REMARK    4  A    between atoms: N_12  and  C_13
REMARK    5  A    between atoms: C_13  and  C_15
REMARK    6  A    between atoms: C_13  and  C_16
REMARK    7  A    between atoms: C_16  and  C_18
REMARK    8  A    between atoms: C_19  and  N_28
REMARK    9  A    between atoms: N_20  and  C_27
REMARK   10  A    between atoms: N_23  and  C_26
REMARK                            x       y       z     vdW  Elec       q    Type
REMARK                         _______ _______ _______ _____ _____    ______ ____
ROOT
ATOM      1  C   UNL     1      -0.827  -0.849   0.665  0.00  0.00    -0.001 C 
ATOM      2  C   UNL     1      -1.619  -1.145  -0.610  0.00  0.00    -0.006 C 
ENDROOT
BRANCH   1   3
ATOM      3  N   UNL     1      -0.338  -2.109   1.241  0.00  0.00    +0.390 N 
ATOM      4  H   UNL     1       0.561  -1.898   1.839  0.00  0.00    -0.084 HD
ATOM      5  H   UNL     1      -0.080  -2.795   0.420  0.00  0.00    -0.084 HD
BRANCH   3   7
ATOM      6  C   UNL     1      -1.281  -2.133   3.501  0.00  0.00    -0.009 C 
ATOM      7  C   UNL     1      -1.360  -2.730   2.094  0.00  0.00    -0.043 C 
BRANCH   7   8
ATOM      8  C   UNL     1      -1.120  -4.216   2.165  0.00  0.00    -0.060 A 
ATOM      9  C   UNL     1      -2.191  -5.091   2.133  0.00  0.00    +0.003 A 
ATOM     10  C   UNL     1      -1.972  -6.454   2.198  0.00  0.00    +0.021 A 
ATOM     11  C   UNL     1      -0.682  -6.944   2.296  0.00  0.00    +0.059 A 
ATOM     12  C   UNL     1       0.390  -6.068   2.328  0.00  0.00    +0.059 A 
ATOM     13  C   UNL     1       0.170  -4.704   2.257  0.00  0.00    +0.023 A 
ATOM     14 CL   UNL     1       2.009  -6.681   2.450  0.00  0.00    -0.082 Cl
ATOM     15 CL   UNL     1      -0.407  -8.656   2.378  0.00  0.00    -0.082 Cl
ENDBRANCH   7   8
ENDBRANCH   3   7
ENDBRANCH   1   3
BRANCH   1  16
ATOM     16  C   UNL     1       0.344   0.040   0.334  0.00  0.00    +0.158 C 
ATOM     17  O   UNL     1       1.452  -0.439   0.206  0.00  0.00    -0.294 OA
BRANCH  16  18
ATOM     18  C   UNL     1       0.152   1.429   0.174  0.00  0.00    +0.118 A 
ATOM     19  C   UNL     1       1.195   2.259  -0.270  0.00  0.00    +0.116 A 
ATOM     20  N   UNL     1       0.961   3.597  -0.410  0.00  0.00    -0.284 N 
ATOM     21  C   UNL     1      -0.240   4.128  -0.133  0.00  0.00    +0.333 A 
ATOM     22  O   UNL     1      -0.398   5.325  -0.274  0.00  0.00    -0.246 OA
ATOM     23  N   UNL     1      -1.274   3.385   0.294  0.00  0.00    -0.263 N 
ATOM     24  C   UNL     1      -1.147   2.052   0.460  0.00  0.00    +0.269 A 
ATOM     25  O   UNL     1      -2.088   1.381   0.842  0.00  0.00    -0.267 OA
ATOM     26  C   UNL     1      -2.559   4.030   0.578  0.00  0.00    +0.157 C 
ATOM     27  C   UNL     1       2.043   4.471  -0.872  0.00  0.00    +0.155 C 
BRANCH  19  28
ATOM     28  N   UNL     1       2.419   1.738  -0.556  0.00  0.00    -0.344 N 
ATOM     29  H   UNL     1       3.230   2.395  -0.903  0.00  0.00    +0.144 HD
ATOM     30  H   UNL     1       2.598   0.658  -0.440  0.00  0.00    +0.144 HD
ENDBRANCH  19  28
ENDBRANCH  16  18
ENDBRANCH   1  16
TORSDOF 6
