REMARK  Name = ZINC05186048
REMARK  8 active torsions:
REMARK  status: ('A' for Active; 'I' for Inactive)
REMARK    1  A    between atoms: C_1  and  N_2
REMARK    2  A    between atoms: C_3  and  C_22
REMARK    3  A    between atoms: C_6  and  S_7
REMARK    4  A    between atoms: S_7  and  C_8
REMARK    5  A    between atoms: C_8  and  C_9
REMARK    6  A    between atoms: C_9  and  C_11
REMARK    7  A    between atoms: C_12  and  N_21
REMARK    8  A    between atoms: N_13  and  C_20
REMARK                            x       y       z     vdW  Elec       q    Type
REMARK                         _______ _______ _______ _____ _____    ______ ____
ROOT
ATOM      1  C   UNL     1       0.136  -1.395   5.377  0.00  0.00    +0.182 C 
ATOM      2  O   UNL     1       0.343  -0.268   5.777  0.00  0.00    -0.291 OA
ENDROOT
BRANCH   1   3
ATOM      3  C   UNL     1       0.398  -2.501   6.214  0.00  0.00    +0.120 A 
ATOM      4  C   UNL     1       1.012  -2.332   7.467  0.00  0.00    +0.116 A 
ATOM      5  N   UNL     1       1.245  -3.432   8.242  0.00  0.00    -0.285 N 
ATOM      6  C   UNL     1       0.900  -4.662   7.830  0.00  0.00    +0.330 A 
ATOM      7  O   UNL     1       1.128  -5.609   8.556  0.00  0.00    -0.246 OA
ATOM      8  N   UNL     1       0.311  -4.885   6.643  0.00  0.00    -0.274 N 
ATOM      9  H   UNL     1       0.079  -5.791   6.387  0.00  0.00    +0.173 HD
ATOM     10  C   UNL     1       0.032  -3.864   5.807  0.00  0.00    +0.266 A 
ATOM     11  O   UNL     1      -0.506  -4.068   4.735  0.00  0.00    -0.267 OA
ATOM     12  C   UNL     1       1.884  -3.267   9.550  0.00  0.00    +0.155 C 
BRANCH   4  13
ATOM     13  N   UNL     1       1.369  -1.093   7.901  0.00  0.00    -0.344 N 
ATOM     14  H   UNL     1       1.539  -0.385   7.260  0.00  0.00    +0.144 HD
ATOM     15  H   UNL     1       1.454  -0.917   8.851  0.00  0.00    +0.144 HD
ENDBRANCH   4  13
ENDBRANCH   1   3
BRANCH   1  16
ATOM     16  C   UNL     1      -0.401  -1.614   3.986  0.00  0.00    +0.157 C 
BRANCH  16  17
ATOM     17  S   UNL     1      -0.631  -0.012   3.167  0.00  0.00    -0.080 S 
BRANCH  17  23
ATOM     18  C   UNL     1      -1.484   1.911   0.661  0.00  0.00    +0.151 C 
ATOM     19  N   UNL     1      -1.582   0.451   0.591  0.00  0.00    -0.322 N 
ATOM     20  C   UNL     1      -2.021  -0.295  -0.490  0.00  0.00    +0.069 A 
ATOM     21  C   UNL     1      -1.947  -1.600  -0.117  0.00  0.00    +0.140 A 
ATOM     22  N   UNL     1      -1.483  -1.651   1.138  0.00  0.00    -0.230 NA
ATOM     23  C   UNL     1      -1.254  -0.433   1.574  0.00  0.00    +0.170 A 
BRANCH  20  24
ATOM     24  C   UNL     1      -2.481   0.226  -1.794  0.00  0.00    +0.000 A 
ATOM     25  C   UNL     1      -2.183   1.537  -2.169  0.00  0.00    +0.010 A 
ATOM     26  C   UNL     1      -2.615   2.017  -3.388  0.00  0.00    +0.001 A 
ATOM     27  C   UNL     1      -3.342   1.202  -4.238  0.00  0.00    +0.000 A 
ATOM     28  C   UNL     1      -3.640  -0.098  -3.872  0.00  0.00    +0.001 A 
ATOM     29  C   UNL     1      -3.210  -0.593  -2.659  0.00  0.00    +0.010 A 
ENDBRANCH  20  24
ENDBRANCH  17  23
ENDBRANCH  16  17
ENDBRANCH   1  16
TORSDOF 6
