REMARK  Name = ZINC37552504
REMARK  8 active torsions:
REMARK  status: ('A' for Active; 'I' for Inactive)
REMARK    1  A    between atoms: C_1  and  C_2
REMARK    2  A    between atoms: C_5  and  N_12
REMARK    3  A    between atoms: C_6  and  C_8
REMARK    4  A    between atoms: C_9  and  C_10
REMARK    5  A    between atoms: C_10  and  O_11
REMARK    6  A    between atoms: N_12  and  S_13
REMARK    7  A    between atoms: S_13  and  C_16
REMARK    8  A    between atoms: C_19  and  C_21
REMARK                            x       y       z     vdW  Elec       q    Type
REMARK                         _______ _______ _______ _____ _____    ______ ____
ROOT
ATOM      1  C   UNL     1       0.682   1.447   0.449  0.00  0.00    +0.044 C 
ATOM      2  C   UNL     1       0.517  -0.046   0.324  0.00  0.00    -0.049 A 
ATOM      3  C   UNL     1       0.425  -0.626  -0.929  0.00  0.00    +0.005 A 
ATOM      4  C   UNL     1       0.274  -1.994  -1.056  0.00  0.00    +0.026 A 
ATOM      5  C   UNL     1       0.212  -2.794   0.076  0.00  0.00    +0.063 A 
ATOM      6  C   UNL     1       0.304  -2.209   1.346  0.00  0.00    +0.048 A 
ATOM      7  C   UNL     1       0.463  -0.828   1.460  0.00  0.00    +0.022 A 
ENDROOT
BRANCH   6   8
ATOM      8  C   UNL     1       0.241  -3.026   2.521  0.00  0.00    -0.062 C 
ATOM      9  C   UNL     1       0.190  -3.695   3.484  0.00  0.00    -0.069 C 
BRANCH   9  10
ATOM     10  C   UNL     1       0.125  -4.534   4.692  0.00  0.00    +0.244 C 
BRANCH  10  11
ATOM     11  O   UNL     1       0.242  -3.708   5.852  0.00  0.00    -0.383 OA
ATOM     12  H   UNL     1       0.207  -4.196   6.687  0.00  0.00    +0.211 HD
ENDBRANCH  10  11
ENDBRANCH   9  10
ENDBRANCH   6   8
BRANCH   5  13
ATOM     13  N   UNL     1       0.058  -4.174  -0.050  0.00  0.00    -0.215 N 
ATOM     14  H   UNL     1      -0.472  -4.664   0.598  0.00  0.00    +0.174 HD
BRANCH  13  15
ATOM     15  S   UNL     1       0.779  -4.976  -1.307  0.00  0.00    +0.079 S 
ATOM     16  O   UNL     1       0.554  -6.362  -1.086  0.00  0.00    -0.149 OA
ATOM     17  O   UNL     1       0.368  -4.319  -2.498  0.00  0.00    -0.149 OA
BRANCH  15  18
ATOM     18  C   UNL     1       2.516  -4.718  -1.161  0.00  0.00    +0.146 A 
ATOM     19  C   UNL     1       3.437  -5.460  -0.499  0.00  0.00    +0.037 A 
ATOM     20  C   UNL     1       4.760  -5.062  -0.523  0.00  0.00    +0.013 A 
ATOM     21  C   UNL     1       5.098  -3.942  -1.208  0.00  0.00    -0.011 A 
ATOM     22  S   UNL     1       3.520  -3.416  -1.856  0.00  0.00    -0.074 S 
ATOM     23  C   UNL     1       6.455  -3.310  -1.383  0.00  0.00    +0.051 C 
ENDBRANCH  15  18
ENDBRANCH  13  15
ENDBRANCH   5  13
TORSDOF 6
