REMARK  Name = ZINC34901516
REMARK  8 active torsions:
REMARK  status: ('A' for Active; 'I' for Inactive)
REMARK    1  A    between atoms: C_1  and  C_2
REMARK    2  A    between atoms: C_4  and  C_24
REMARK    3  A    between atoms: C_5  and  C_9
REMARK    4  A    between atoms: C_6  and  C_8
REMARK    5  A    between atoms: C_11  and  C_15
REMARK    6  A    between atoms: N_13  and  C_14
REMARK    7  A    between atoms: N_17  and  C_18
REMARK    8  A    between atoms: C_18  and  C_19
REMARK                            x       y       z     vdW  Elec       q    Type
REMARK                         _______ _______ _______ _____ _____    ______ ____
ROOT
ATOM      1  C   UNL     1       0.444  -4.277   0.426  0.00  0.00    +0.070 A 
ATOM      2  C   UNL     1       0.414  -5.220  -0.563  0.00  0.00    +0.062 A 
ATOM      3  C   UNL     1       0.272  -6.457   0.102  0.00  0.00    +0.148 A 
ATOM      4  N   UNL     1       0.226  -6.205   1.395  0.00  0.00    -0.166 NA
ATOM      5  N   UNL     1       0.329  -4.943   1.610  0.00  0.00    -0.266 N 
ATOM      6  C   UNL     1       0.322  -4.312   2.932  0.00  0.00    +0.173 C 
ENDROOT
BRANCH   1  11
ATOM      7  C   UNL     1       0.971   1.412  -0.277  0.00  0.00    +0.044 C 
ATOM      8  C   UNL     1       0.833  -0.078  -0.092  0.00  0.00    -0.050 A 
ATOM      9  C   UNL     1       1.814  -0.925  -0.576  0.00  0.00    +0.007 A 
ATOM     10  C   UNL     1       1.693  -2.290  -0.410  0.00  0.00    -0.041 A 
ATOM     11  C   UNL     1       0.580  -2.814   0.246  0.00  0.00    +0.006 A 
ATOM     12  C   UNL     1      -0.406  -1.954   0.731  0.00  0.00    -0.041 A 
ATOM     13  C   UNL     1      -0.271  -0.591   0.564  0.00  0.00    +0.007 A 
ATOM     14  C   UNL     1      -1.613  -2.512   1.440  0.00  0.00    +0.044 C 
ATOM     15  C   UNL     1       2.762  -3.212  -0.938  0.00  0.00    +0.044 C 
ENDBRANCH   1  11
BRANCH   3  16
ATOM     16  C   UNL     1       0.190  -7.789  -0.533  0.00  0.00    +0.265 C 
ATOM     17  O   UNL     1       0.245  -7.889  -1.744  0.00  0.00    -0.268 OA
ATOM     18  N   UNL     1       0.055  -8.892   0.228  0.00  0.00    -0.303 N 
ATOM     19  H   UNL     1       0.011  -8.812   1.194  0.00  0.00    +0.150 HD
BRANCH  18  20
ATOM     20  C   UNL     1      -0.027 -10.212  -0.402  0.00  0.00    +0.179 C 
BRANCH  20  21
ATOM     21  C   UNL     1      -0.174 -11.269   0.662  0.00  0.00    +0.122 A 
ATOM     22  C   UNL     1      -1.337 -11.730   1.157  0.00  0.00    +0.046 A 
ATOM     23  C   UNL     1      -1.011 -12.706   2.127  0.00  0.00    +0.041 A 
ATOM     24  C   UNL     1       0.332 -12.782   2.167  0.00  0.00    +0.195 A 
ATOM     25  O   UNL     1       0.833 -11.914   1.274  0.00  0.00    -0.466 OA
ENDBRANCH  20  21
ENDBRANCH  18  20
ENDBRANCH   3  16
TORSDOF 4
