REMARK  Name = ZINC38811798
REMARK  3 active torsions:
REMARK  status: ('A' for Active; 'I' for Inactive)
REMARK    1  A    between atoms: N_15  and  C_16
REMARK    2  A    between atoms: C_16  and  C_17
REMARK    3  A    between atoms: C_17  and  C_18
REMARK                            x       y       z     vdW  Elec       q    Type
REMARK                         _______ _______ _______ _____ _____    ______ ____
ROOT
ATOM      1  C   UNL     1      -0.017   1.378   0.010  0.00  0.00    +0.000 A 
ATOM      2  C   UNL     1       1.174   2.082   0.002  0.00  0.00    +0.002 A 
ATOM      3  C   UNL     1       2.377   1.411  -0.017  0.00  0.00    +0.023 A 
ATOM      4  C   UNL     1       2.406   0.016  -0.032  0.00  0.00    +0.033 A 
ATOM      5  C   UNL     1       1.204  -0.682  -0.015  0.00  0.00    -0.022 A 
ATOM      6  C   UNL     1       0.002  -0.004   0.002  0.00  0.00    +0.006 A 
ATOM      7  C   UNL     1       1.533  -2.150  -0.007  0.00  0.00    +0.041 C 
ATOM      8  C   UNL     1       0.641  -2.977  -0.877  0.00  0.00    +0.010 C 
ATOM      9  C   UNL     1       1.214  -3.214  -2.271  0.00  0.00    +0.001 C 
ATOM     10  C   UNL     1       2.611  -3.828  -2.101  0.00  0.00    +0.002 C 
ATOM     11  C   UNL     1       3.525  -2.765  -1.507  0.00  0.00    +0.023 C 
ATOM     12  C   UNL     1       3.027  -2.245  -0.194  0.00  0.00    +0.081 C 
ATOM     13  N   UNL     1       3.501  -0.851  -0.057  0.00  0.00    -0.326 N 
ENDROOT
BRANCH  13  14
ATOM     14  C   UNL     1       4.905  -0.442   0.040  0.00  0.00    +0.113 C 
BRANCH  14  15
ATOM     15  C   UNL     1       5.330  -0.421   1.509  0.00  0.00    +0.093 C 
BRANCH  15  16
ATOM     16  C   UNL     1       6.774  -0.001   1.608  0.00  0.00    +0.110 A 
ATOM     17  N   UNL     1       7.762  -0.577   0.988  0.00  0.00    -0.232 NA
ATOM     18  C   UNL     1       8.925   0.052   1.299  0.00  0.00    +0.089 A 
ATOM     19  C   UNL     1      10.256  -0.144   0.924  0.00  0.00    +0.030 A 
ATOM     20  C   UNL     1      11.230   0.677   1.418  0.00  0.00    +0.002 A 
ATOM     21  C   UNL     1      10.912   1.708   2.291  0.00  0.00    +0.002 A 
ATOM     22  C   UNL     1       9.605   1.920   2.675  0.00  0.00    +0.028 A 
ATOM     23  C   UNL     1       8.602   1.096   2.183  0.00  0.00    +0.066 A 
ATOM     24  N   UNL     1       7.233   1.040   2.354  0.00  0.00    -0.342 N 
ATOM     25  H   UNL     1       6.698   1.631   2.907  0.00  0.00    +0.167 HD
ENDBRANCH  15  16
ENDBRANCH  14  15
ENDBRANCH  13  14
TORSDOF 3
