REMARK  Name = ZINC58821749
REMARK  10 active torsions:
REMARK  status: ('A' for Active; 'I' for Inactive)
REMARK    1  A    between atoms: C_1  and  C_2
REMARK    2  A    between atoms: C_2  and  C_3
REMARK    3  A    between atoms: C_8  and  N_9
REMARK    4  A    between atoms: C_11  and  C_16
REMARK    5  A    between atoms: N_18  and  C_19
REMARK    6  A    between atoms: C_19  and  C_20
REMARK    7  A    between atoms: C_23  and  N_26
REMARK    8  A    between atoms: N_29  and  C_30
REMARK    9  A    between atoms: C_30  and  C_31
REMARK   10  A    between atoms: C_30  and  C_32
REMARK                            x       y       z     vdW  Elec       q    Type
REMARK                         _______ _______ _______ _____ _____    ______ ____
ROOT
ATOM      1  C   UNL     1       5.703  -0.795   1.009  0.00  0.00    +0.218 C 
ATOM      2  O   UNL     1       5.766  -1.670   0.171  0.00  0.00    -0.275 OA
ATOM      3  N   UNL     1       6.828  -0.339   1.593  0.00  0.00    -0.311 N 
ATOM      4  H   UNL     1       6.778   0.361   2.264  0.00  0.00    +0.149 HD
ENDROOT
BRANCH   1   7
ATOM      5  N   UNL     1       3.017  -0.043  -0.578  0.00  0.00    -0.270 N 
ATOM      6  C   UNL     1       3.223  -0.890   0.603  0.00  0.00    +0.127 C 
ATOM      7  C   UNL     1       4.366  -0.219   1.397  0.00  0.00    +0.101 C 
ATOM      8  C   UNL     1       4.243   1.254   0.942  0.00  0.00    +0.110 C 
ATOM      9  C   UNL     1       3.579   1.167  -0.415  0.00  0.00    +0.221 C 
ATOM     10  O   UNL     1       3.556   2.060  -1.235  0.00  0.00    -0.275 OA
BRANCH   5  16
ATOM     11  C   UNL     1       0.959  -0.232  -1.828  0.00  0.00    -0.026 A 
ATOM     12  C   UNL     1       0.283  -0.625  -2.967  0.00  0.00    +0.005 A 
ATOM     13  C   UNL     1       0.966  -1.235  -4.002  0.00  0.00    +0.000 A 
ATOM     14  C   UNL     1       2.328  -1.454  -3.902  0.00  0.00    +0.002 A 
ATOM     15  C   UNL     1       3.010  -1.063  -2.767  0.00  0.00    +0.024 A 
ATOM     16  C   UNL     1       2.327  -0.445  -1.727  0.00  0.00    +0.039 A 
BRANCH  11  18
ATOM     17  C   UNL     1       0.313   1.953  -0.849  0.00  0.00    +0.009 C 
ATOM     18  C   UNL     1       0.214   0.434  -0.700  0.00  0.00    +0.033 C 
ENDBRANCH  11  18
ENDBRANCH   5  16
ENDBRANCH   1   7
BRANCH   3  19
ATOM     19  C   UNL     1       8.129  -0.899   1.216  0.00  0.00    +0.139 C 
BRANCH  19  20
ATOM     20  C   UNL     1       9.216  -0.221   2.009  0.00  0.00    -0.030 A 
ATOM     21  C   UNL     1       9.819   0.922   1.517  0.00  0.00    +0.007 A 
ATOM     22  C   UNL     1      10.816   1.545   2.241  0.00  0.00    +0.023 A 
ATOM     23  C   UNL     1      11.214   1.022   3.465  0.00  0.00    +0.035 A 
ATOM     24  C   UNL     1      10.606  -0.126   3.957  0.00  0.00    +0.023 A 
ATOM     25  C   UNL     1       9.606  -0.741   3.230  0.00  0.00    +0.007 A 
BRANCH  23  26
ATOM     26  N   UNL     1      12.224   1.651   4.201  0.00  0.00    -0.269 N 
ATOM     27  C   UNL     1      12.357   2.991   4.156  0.00  0.00    +0.304 C 
ATOM     28  O   UNL     1      11.541   3.663   3.554  0.00  0.00    -0.253 OA
ATOM     29  N   UNL     1      13.393   3.587   4.777  0.00  0.00    -0.297 N 
ATOM     30  H   UNL     1      12.829   1.122   4.745  0.00  0.00    +0.156 HD
ATOM     31  H   UNL     1      14.044   3.052   5.258  0.00  0.00    +0.151 HD
BRANCH  29  32
ATOM     32  C   UNL     1      13.538   5.045   4.728  0.00  0.00    +0.068 C 
ATOM     33  C   UNL     1      12.697   5.678   5.838  0.00  0.00    +0.027 C 
ATOM     34  C   UNL     1      15.008   5.418   4.925  0.00  0.00    +0.027 C 
ENDBRANCH  29  32
ENDBRANCH  23  26
ENDBRANCH  19  20
ENDBRANCH   3  19
TORSDOF 7
