REMARK  Name = ZINC43390158
REMARK  6 active torsions:
REMARK  status: ('A' for Active; 'I' for Inactive)
REMARK    1  A    between atoms: C_1  and  C_2
REMARK    2  A    between atoms: N_5  and  C_11
REMARK    3  A    between atoms: C_7  and  C_10
REMARK    4  A    between atoms: C_11  and  C_12
REMARK    5  A    between atoms: C_12  and  N_13
REMARK    6  A    between atoms: N_16  and  C_17
REMARK                            x       y       z     vdW  Elec       q    Type
REMARK                         _______ _______ _______ _____ _____    ______ ____
ROOT
ATOM      1  N   UNL     1       4.909  -0.176  -3.703  0.00  0.00    -0.298 N 
ATOM      2  C   UNL     1       6.137   0.315  -3.962  0.00  0.00    +0.304 C 
ATOM      3  O   UNL     1       6.655   1.095  -3.187  0.00  0.00    -0.253 OA
ATOM      4  N   UNL     1       6.790  -0.059  -5.080  0.00  0.00    -0.269 N 
ATOM      5  H   UNL     1       4.495  -0.799  -4.322  0.00  0.00    +0.150 HD
ATOM      6  H   UNL     1       6.407  -0.732  -5.664  0.00  0.00    +0.156 HD
ENDROOT
BRANCH   4   7
ATOM      7  C   UNL     1       8.022   0.524  -5.398  0.00  0.00    +0.035 A 
ATOM      8  C   UNL     1       8.912   0.867  -4.389  0.00  0.00    +0.023 A 
ATOM      9  C   UNL     1      10.126   1.441  -4.708  0.00  0.00    +0.006 A 
ATOM     10  C   UNL     1      10.460   1.678  -6.032  0.00  0.00    -0.044 A 
ATOM     11  C   UNL     1       9.576   1.338  -7.039  0.00  0.00    -0.042 A 
ATOM     12  C   UNL     1       8.360   0.757  -6.723  0.00  0.00    +0.027 A 
ATOM     13  C   UNL     1      10.171   1.696  -8.384  0.00  0.00    +0.036 C 
ATOM     14  C   UNL     1      11.315   2.684  -8.070  0.00  0.00    +0.009 C 
ATOM     15  C   UNL     1      11.710   2.287  -6.632  0.00  0.00    +0.036 C 
ENDBRANCH   4   7
BRANCH   1  16
ATOM     16  C   UNL     1       4.199   0.230  -2.488  0.00  0.00    +0.121 C 
BRANCH  16  17
ATOM     17  C   UNL     1       2.837  -0.467  -2.436  0.00  0.00    +0.103 C 
BRANCH  17  21
ATOM     18  C   UNL     1      -0.021   1.509   0.013  0.00  0.00    +0.039 C 
ATOM     19  C   UNL     1       0.009  -0.021   0.011  0.00  0.00    +0.130 C 
ATOM     20  C   UNL     1       0.728  -0.517  -1.246  0.00  0.00    +0.115 C 
ATOM     21  N   UNL     1       2.125  -0.060  -1.218  0.00  0.00    -0.296 NA
ATOM     22  C   UNL     1       2.811  -0.556  -0.016  0.00  0.00    +0.115 C 
ATOM     23  C   UNL     1       2.071  -0.060   1.229  0.00  0.00    +0.130 C 
ATOM     24  O   UNL     1       0.706  -0.487   1.169  0.00  0.00    -0.371 OA
ATOM     25  C   UNL     1       2.732  -0.639   2.482  0.00  0.00    +0.039 C 
ENDBRANCH  17  21
ENDBRANCH  16  17
ENDBRANCH   1  16
TORSDOF 4
