REMARK  Name = ZINC31158154
REMARK  13 active torsions:
REMARK  status: ('A' for Active; 'I' for Inactive)
REMARK    1  A    between atoms: C_1  and  C_2
REMARK    2  A    between atoms: C_2  and  C_3
REMARK    3  A    between atoms: C_3  and  C_5
REMARK    4  A    between atoms: C_3  and  C_6
REMARK    5  A    between atoms: C_6  and  C_8
REMARK    6  A    between atoms: C_6  and  O_29
REMARK    7  A    between atoms: C_8  and  C_9
REMARK    8  A    between atoms: C_8  and  C_10
REMARK    9  A    between atoms: C_8  and  O_28
REMARK   10  A    between atoms: C_11  and  C_12
REMARK   11  A    between atoms: C_18  and  C_26
REMARK   12  A    between atoms: C_18  and  O_27
REMARK   13  A    between atoms: C_19  and  O_25
REMARK                            x       y       z     vdW  Elec       q    Type
REMARK                         _______ _______ _______ _____ _____    ______ ____
ROOT
ATOM      1  C   UNL     1       0.411   0.746  -4.516  0.00  0.00    +0.121 C 
ATOM      2  C   UNL     1      -0.048  -0.227  -5.378  0.00  0.00    +0.049 C 
ATOM      3  C   UNL     1      -0.625   0.136  -6.600  0.00  0.00    -0.032 C 
ATOM      4  C   UNL     1      -1.057  -0.830  -7.479  0.00  0.00    +0.053 C 
ATOM      5  C   UNL     1      -1.604  -0.495  -8.715  0.00  0.00    +0.190 C 
ATOM      6  O   UNL     1      -1.981  -1.377  -9.463  0.00  0.00    -0.290 OA
ATOM      7  C   UNL     1      -1.734   0.944  -9.139  0.00  0.00    +0.151 C 
ATOM      8  C   UNL     1      -0.640   1.774  -8.459  0.00  0.00    +0.164 C 
ATOM      9  C   UNL     1      -0.763   1.599  -6.944  0.00  0.00    +0.088 C 
ATOM     10  C   UNL     1       0.353   2.376  -6.238  0.00  0.00    +0.239 C 
ATOM     11  O   UNL     1       0.313   2.055  -4.840  0.00  0.00    -0.491 OA
ATOM     12  C   UNL     1      -1.581   1.046 -10.658  0.00  0.00    +0.052 C 
ENDROOT
BRANCH   1  14
ATOM     13  C   UNL     1       1.450   1.294  -2.394  0.00  0.00    +0.013 C 
ATOM     14  C   UNL     1       1.004   0.358  -3.233  0.00  0.00    +0.044 C 
BRANCH  13  15
ATOM     15  C   UNL     1       2.060   0.896  -1.075  0.00  0.00    +0.108 C 
ATOM     16  C   UNL     1       3.503   1.401  -1.007  0.00  0.00    +0.048 C 
BRANCH  15  17
ATOM     17  O   UNL     1       2.048  -0.528  -0.956  0.00  0.00    -0.382 OA
ATOM     18  H   UNL     1       2.581  -1.147  -1.693  0.00  0.00    +0.211 HD
ENDBRANCH  15  17
BRANCH  15  19
ATOM     19  C   UNL     1       1.250   1.510   0.068  0.00  0.00    +0.152 C 
BRANCH  19  20
ATOM     20  C   UNL     1       1.947   1.223   1.399  0.00  0.00    +0.017 C 
ATOM     21  C   UNL     1       1.919  -0.282   1.676  0.00  0.00    +0.010 C 
BRANCH  20  23
ATOM     22  C   UNL     1       1.990   1.777   3.835  0.00  0.00    +0.004 C 
ATOM     23  C   UNL     1       1.221   1.962   2.525  0.00  0.00    +0.002 C 
ENDBRANCH  20  23
ENDBRANCH  19  20
BRANCH  19  24
ATOM     24  O   UNL     1      -0.060   0.939   0.084  0.00  0.00    -0.388 OA
ATOM     25  H   UNL     1      -0.716   1.044  -0.793  0.00  0.00    +0.210 HD
ENDBRANCH  19  24
ENDBRANCH  15  19
ENDBRANCH  13  15
ENDBRANCH   1  14
BRANCH   8  26
ATOM     26  O   UNL     1      -0.800   3.153  -8.797  0.00  0.00    -0.388 OA
ATOM     27  H   UNL     1      -0.101   3.902  -8.396  0.00  0.00    +0.210 HD
ENDBRANCH   8  26
BRANCH   7  28
ATOM     28  O   UNL     1      -3.018   1.440  -8.755  0.00  0.00    -0.378 OA
ATOM     29  H   UNL     1      -3.296   2.480  -8.982  0.00  0.00    +0.211 HD
ENDBRANCH   7  28
TORSDOF 9
