REMARK  Name = ZINC62431361
REMARK  6 active torsions:
REMARK  status: ('A' for Active; 'I' for Inactive)
REMARK    1  A    between atoms: C_2  and  N_20
REMARK    2  A    between atoms: C_6  and  S_7
REMARK    3  A    between atoms: S_7  and  N_10
REMARK    4  A    between atoms: C_15  and  C_17
REMARK    5  A    between atoms: C_17  and  C_18
REMARK    6  A    between atoms: C_18  and  O_19
REMARK                            x       y       z     vdW  Elec       q    Type
REMARK                         _______ _______ _______ _____ _____    ______ ____
ROOT
ATOM      1  S   UNL     1      -1.711  -1.004   0.066  0.00  0.00    +0.063 S 
ATOM      2  O   UNL     1      -1.674  -2.340   0.548  0.00  0.00    -0.153 OA
ATOM      3  O   UNL     1      -2.546  -0.009   0.641  0.00  0.00    -0.153 OA
ENDROOT
BRANCH   1   9
ATOM      4  C   UNL     1       0.184   0.970   0.086  0.00  0.00    +0.054 A 
ATOM      5  C   UNL     1       1.504   1.409   0.161  0.00  0.00    +0.045 A 
ATOM      6  C   UNL     1       2.519   0.471   0.302  0.00  0.00    +0.133 A 
ATOM      7  N   UNL     1       2.241  -0.816   0.363  0.00  0.00    -0.259 NA
ATOM      8  C   UNL     1       1.002  -1.263   0.295  0.00  0.00    +0.139 A 
ATOM      9  C   UNL     1      -0.062  -0.391   0.155  0.00  0.00    +0.125 A 
BRANCH   5  10
ATOM     10  N   UNL     1       1.803   2.772   0.096  0.00  0.00    -0.357 N 
ATOM     11  H   UNL     1       1.089   3.421  -0.003  0.00  0.00    +0.142 HD
ATOM     12  H   UNL     1       2.725   3.070   0.149  0.00  0.00    +0.142 HD
ENDBRANCH   5  10
ENDBRANCH   1   9
BRANCH   1  13
ATOM     13  N   UNL     1      -2.115  -1.091  -1.538  0.00  0.00    -0.173 NA
ATOM     14  C   UNL     1      -2.912  -0.030  -2.168  0.00  0.00    +0.110 C 
ATOM     15  C   UNL     1      -4.126  -0.666  -2.852  0.00  0.00    +0.017 C 
ATOM     16  C   UNL     1      -3.651  -1.753  -3.819  0.00  0.00    +0.003 C 
ATOM     17  C   UNL     1      -2.910  -2.842  -3.040  0.00  0.00    +0.021 C 
ATOM     18  C   UNL     1      -1.677  -2.228  -2.359  0.00  0.00    +0.082 C 
BRANCH  18  19
ATOM     19  C   UNL     1      -1.006  -3.276  -1.469  0.00  0.00    +0.048 C 
BRANCH  19  20
ATOM     20  C   UNL     1      -0.440  -4.399  -2.341  0.00  0.00    +0.157 C 
BRANCH  20  21
ATOM     21  O   UNL     1       0.290  -5.315  -1.522  0.00  0.00    -0.395 OA
ATOM     22  H   UNL     1       0.741  -6.012  -2.018  0.00  0.00    +0.209 HD
ENDBRANCH  20  21
ENDBRANCH  19  20
ENDBRANCH  18  19
ENDBRANCH   1  13
TORSDOF 6
