REMARK  Name = ZINC17353170
REMARK  5 active torsions:
REMARK  status: ('A' for Active; 'I' for Inactive)
REMARK    1  A    between atoms: C_4  and  C_7
REMARK    2  A    between atoms: C_7  and  C_13
REMARK    3  A    between atoms: N_8  and  N_9
REMARK    4  A    between atoms: C_14  and  C_15
REMARK    5  A    between atoms: C_18  and  N_21
REMARK                            x       y       z     vdW  Elec       q    Type
REMARK                         _______ _______ _______ _____ _____    ______ ____
ROOT
ATOM      1  C   UNL     1       3.861  -0.905  -0.647  0.00  0.00    +0.089 C 
ATOM      2  N   UNL     1       4.018  -2.253  -0.734  0.00  0.00    -0.179 NA
ENDROOT
BRANCH   2   3
ATOM      3  N   UNL     1       3.224  -2.949  -1.474  0.00  0.00    -0.190 N 
ATOM      4  C   UNL     1       3.316  -4.294  -1.484  0.00  0.00    +0.317 C 
ATOM      5  O   UNL     1       2.645  -4.943  -2.261  0.00  0.00    -0.251 OA
ATOM      6  N   UNL     1       4.152  -4.918  -0.631  0.00  0.00    -0.312 N 
ATOM      7  H   UNL     1       2.560  -2.505  -2.025  0.00  0.00    +0.179 HD
ATOM      8  H   UNL     1       4.634  -4.406   0.037  0.00  0.00    +0.147 HD
ATOM      9  H   UNL     1       4.273  -5.879  -0.685  0.00  0.00    +0.147 HD
ENDBRANCH   2   3
BRANCH   1  13
ATOM     10  C   UNL     1       0.573   0.974  -2.563  0.00  0.00    +0.000 A 
ATOM     11  C   UNL     1       1.837   1.531  -2.661  0.00  0.00    +0.001 A 
ATOM     12  C   UNL     1       2.910   0.928  -2.042  0.00  0.00    +0.010 A 
ATOM     13  C   UNL     1       2.719  -0.253  -1.311  0.00  0.00    +0.002 A 
ATOM     14  C   UNL     1       1.437  -0.810  -1.217  0.00  0.00    +0.010 A 
ATOM     15  C   UNL     1       0.375  -0.193  -1.842  0.00  0.00    +0.001 A 
ENDBRANCH   1  13
BRANCH   1  16
ATOM     16  C   UNL     1       4.777  -0.142   0.070  0.00  0.00    +0.030 C 
ATOM     17  C   UNL     1       5.415  -0.686   1.193  0.00  0.00    +0.010 C 
BRANCH  17  18
ATOM     18  C   UNL     1       5.004  -1.935   1.702  0.00  0.00    -0.025 A 
ATOM     19  C   UNL     1       3.634  -2.272   1.736  0.00  0.00    +0.010 A 
ATOM     20  C   UNL     1       3.249  -3.487   2.225  0.00  0.00    +0.033 A 
ATOM     21  C   UNL     1       4.197  -4.384   2.700  0.00  0.00    +0.126 A 
ATOM     22  C   UNL     1       5.547  -4.061   2.677  0.00  0.00    +0.033 A 
ATOM     23  C   UNL     1       5.958  -2.855   2.187  0.00  0.00    +0.010 A 
BRANCH  21  24
ATOM     24  N   UNL     1       3.764  -5.696   3.234  0.00  0.00    +0.056 N 
ATOM     25  O   UNL     1       4.646  -6.508   3.779  0.00  0.00    -0.126 OA
ATOM     26  O   UNL     1       2.498  -6.050   3.164  0.00  0.00    -0.126 OA
ENDBRANCH  21  24
ENDBRANCH  17  18
ENDBRANCH   1  16
TORSDOF 5
