REMARK  Name = ZINC12920654
REMARK  4 active torsions:
REMARK  status: ('A' for Active; 'I' for Inactive)
REMARK    1  A    between atoms: C_6  and  C_7
REMARK    2  A    between atoms: C_7  and  C_9
REMARK    3  A    between atoms: C_7  and  O_20
REMARK    4  A    between atoms: C_9  and  N_10
REMARK                            x       y       z     vdW  Elec       q    Type
REMARK                         _______ _______ _______ _____ _____    ______ ____
ROOT
ATOM      1  C   UNL     1       5.420  -2.980  -0.065  0.00  0.00    +0.139 C 
ENDROOT
BRANCH   1   2
ATOM      2  N   UNL     1       3.957  -2.913  -0.050  0.00  0.00    -0.325 N 
ATOM      3  C   UNL     1       3.318  -1.678  -0.038  0.00  0.00    +0.141 A 
ATOM      4  C   UNL     1       4.084  -0.498  -0.040  0.00  0.00    +0.049 A 
ATOM      5  C   UNL     1       3.469   0.715  -0.027  0.00  0.00    +0.055 A 
ATOM      6  C   UNL     1       2.063   0.770  -0.013  0.00  0.00    +0.200 A 
ATOM      7  N   UNL     1       1.180   1.759   0.000  0.00  0.00    -0.107 NA
ATOM      8  N   UNL     1      -0.015   1.286   0.009  0.00  0.00    -0.021 NA
ATOM      9  N   UNL     1       0.002  -0.004   0.002  0.00  0.00    -0.021 NA
ATOM     10  N   UNL     1       1.347  -0.396  -0.013  0.00  0.00    -0.108 N 
ATOM     11  N   UNL     1       2.004  -1.625  -0.026  0.00  0.00    -0.131 NA
ATOM     12  H   UNL     1       3.433  -3.729  -0.050  0.00  0.00    +0.148 HD
ENDBRANCH   1   2
BRANCH   1  13
ATOM     13  C   UNL     1       5.863  -4.445  -0.076  0.00  0.00    +0.161 C 
BRANCH  13  19
ATOM     14  C   UNL     1       8.149  -4.311  -1.087  0.00  0.00    +0.007 A 
ATOM     15  C   UNL     1       9.526  -4.371  -0.986  0.00  0.00    +0.020 A 
ATOM     16  C   UNL     1      10.119  -4.648   0.233  0.00  0.00    +0.041 A 
ATOM     17  C   UNL     1       9.333  -4.858   1.352  0.00  0.00    +0.020 A 
ATOM     18  C   UNL     1       7.956  -4.792   1.251  0.00  0.00    +0.007 A 
ATOM     19  C   UNL     1       7.364  -4.516   0.033  0.00  0.00    -0.018 A 
ATOM     20 CL   UNL     1      11.848  -4.729   0.359  0.00  0.00    -0.084 Cl
ENDBRANCH  13  19
BRANCH  13  21
ATOM     21  O   UNL     1       5.444  -5.059  -1.296  0.00  0.00    -0.386 OA
ATOM     22  H   UNL     1       5.808  -4.645  -2.091  0.00  0.00    +0.210 HD
ENDBRANCH  13  21
ENDBRANCH   1  13
TORSDOF 4
