REMARK  Name = ZINC05445058
REMARK  4 active torsions:
REMARK  status: ('A' for Active; 'I' for Inactive)
REMARK    1  A    between atoms: C_4  and  C_7
REMARK    2  A    between atoms: N_9  and  N_13
REMARK    3  A    between atoms: N_13  and  C_14
REMARK    4  A    between atoms: N_13  and  C_20
REMARK                            x       y       z     vdW  Elec       q    Type
REMARK                         _______ _______ _______ _____ _____    ______ ____
ROOT
ATOM      1  C   UNL     1       3.942   1.802  -0.267  0.00  0.00    +0.106 C 
ATOM      2  C   UNL     1       6.299   2.161  -0.150  0.00  0.00    +0.246 C 
ATOM      3  N   UNL     1       6.050   3.611  -0.119  0.00  0.00    -0.207 N 
ATOM      4  C   UNL     1       4.770   4.038  -0.165  0.00  0.00    +0.157 C 
ATOM      5  S   UNL     1       4.439   5.718  -0.131  0.00  0.00    -0.017 S 
ATOM      6  N   UNL     1       3.754   3.164  -0.236  0.00  0.00    -0.282 N 
ATOM      7  H   UNL     1       2.848   3.509  -0.266  0.00  0.00    +0.155 HD
ATOM      8  N   UNL     1       5.135   1.210  -0.225  0.00  0.00    -0.355 N 
ATOM      9  H   UNL     1       5.250   0.190  -0.242  0.00  0.00    +0.162 HD
ENDROOT
BRANCH   1  13
ATOM     10  C   UNL     1       0.550  -0.748  -0.494  0.00  0.00    +0.000 A 
ATOM     11  C   UNL     1       0.379   0.625  -0.462  0.00  0.00    +0.001 A 
ATOM     12  C   UNL     1       1.476   1.458  -0.387  0.00  0.00    +0.011 A 
ATOM     13  C   UNL     1       2.760   0.913  -0.346  0.00  0.00    +0.013 A 
ATOM     14  C   UNL     1       2.926  -0.471  -0.379  0.00  0.00    +0.011 A 
ATOM     15  C   UNL     1       1.820  -1.294  -0.453  0.00  0.00    +0.001 A 
ENDBRANCH   1  13
BRANCH   3  16
ATOM     16  N   UNL     1       7.111   4.523  -0.045  0.00  0.00    -0.216 N 
BRANCH  16  17
ATOM     17  C   UNL     1       7.586   4.943   1.200  0.00  0.00    +0.053 A 
ATOM     18  C   UNL     1       7.910   4.006   2.173  0.00  0.00    +0.025 A 
ATOM     19  C   UNL     1       8.385   4.424   3.401  0.00  0.00    +0.002 A 
ATOM     20  C   UNL     1       8.527   5.774   3.666  0.00  0.00    +0.000 A 
ATOM     21  C   UNL     1       8.199   6.710   2.701  0.00  0.00    +0.002 A 
ATOM     22  C   UNL     1       7.729   6.298   1.470  0.00  0.00    +0.025 A 
ENDBRANCH  16  17
BRANCH  16  23
ATOM     23  C   UNL     1       7.695   5.013  -1.216  0.00  0.00    +0.053 A 
ATOM     24  C   UNL     1       7.122   4.729  -2.450  0.00  0.00    +0.025 A 
ATOM     25  C   UNL     1       7.698   5.220  -3.606  0.00  0.00    +0.002 A 
ATOM     26  C   UNL     1       8.850   5.982  -3.536  0.00  0.00    +0.000 A 
ATOM     27  C   UNL     1       9.426   6.261  -2.310  0.00  0.00    +0.002 A 
ATOM     28  C   UNL     1       8.852   5.779  -1.150  0.00  0.00    +0.025 A 
ENDBRANCH  16  23
ENDBRANCH   3  16
TORSDOF 4
