REMARK  Name = ZINC37908493
REMARK  7 active torsions:
REMARK  status: ('A' for Active; 'I' for Inactive)
REMARK    1  A    between atoms: C_1  and  C_2
REMARK    2  A    between atoms: C_2  and  O_3
REMARK    3  A    between atoms: O_3  and  C_4
REMARK    4  A    between atoms: C_9  and  N_10
REMARK    5  A    between atoms: N_10  and  C_11
REMARK    6  A    between atoms: C_11  and  C_13
REMARK    7  A    between atoms: C_11  and  C_14
REMARK                            x       y       z     vdW  Elec       q    Type
REMARK                         _______ _______ _______ _____ _____    ______ ____
ROOT
ATOM      1  C   UNL     1       0.777  -1.811  -1.336  0.00  0.00    +0.141 A 
ATOM      2  C   UNL     1       0.244  -2.669  -0.388  0.00  0.00    +0.049 A 
ATOM      3  C   UNL     1       0.352  -4.037  -0.554  0.00  0.00    +0.024 A 
ATOM      4  C   UNL     1       0.993  -4.554  -1.666  0.00  0.00    +0.043 A 
ATOM      5  C   UNL     1       1.528  -3.704  -2.617  0.00  0.00    +0.046 A 
ATOM      6  C   UNL     1       1.417  -2.330  -2.460  0.00  0.00    +0.071 A 
ATOM      7 CL   UNL     1       1.126  -6.273  -1.868  0.00  0.00    -0.083 Cl
ENDROOT
BRANCH   6   8
ATOM      8  N   UNL     1       1.952  -1.468  -3.424  0.00  0.00    -0.333 N 
ATOM      9  H   UNL     1       1.877  -0.508  -3.310  0.00  0.00    +0.147 HD
BRANCH   8  10
ATOM     10  C   UNL     1       2.624  -2.016  -4.604  0.00  0.00    +0.118 C 
ATOM     11  C   UNL     1       1.585  -2.337  -5.680  0.00  0.00    +0.034 C 
BRANCH  10  12
ATOM     12  C   UNL     1       3.604  -1.004  -5.139  0.00  0.00    +0.083 A 
ATOM     13  C   UNL     1       4.741  -1.288  -5.903  0.00  0.00    +0.046 A 
ATOM     14  C   UNL     1       5.356  -0.116  -6.186  0.00  0.00    +0.105 A 
ATOM     15  N   UNL     1       4.634   0.874  -5.620  0.00  0.00    -0.284 N 
ATOM     16  H   UNL     1       4.837   1.822  -5.658  0.00  0.00    +0.188 HD
ATOM     17  N   UNL     1       3.536   0.292  -4.973  0.00  0.00    -0.177 NA
ENDBRANCH  10  12
ENDBRANCH   8  10
ENDBRANCH   6   8
BRANCH   1  18
ATOM     18  O   UNL     1       0.671  -0.465  -1.174  0.00  0.00    -0.490 OA
BRANCH  18  20
ATOM     19  C   UNL     1      -0.019   1.526   0.010  0.00  0.00    +0.048 C 
ATOM     20  C   UNL     1       0.002  -0.004   0.002  0.00  0.00    +0.226 C 
ENDBRANCH  18  20
ENDBRANCH   1  18
TORSDOF 5
