REMARK  Name = ZINC67649551
REMARK  6 active torsions:
REMARK  status: ('A' for Active; 'I' for Inactive)
REMARK    1  A    between atoms: C_1  and  C_2
REMARK    2  A    between atoms: C_4  and  C_8
REMARK    3  A    between atoms: C_8  and  C_9
REMARK    4  A    between atoms: C_9  and  C_11
REMARK    5  A    between atoms: C_9  and  N_12
REMARK    6  A    between atoms: C_17  and  C_19
REMARK                            x       y       z     vdW  Elec       q    Type
REMARK                         _______ _______ _______ _____ _____    ______ ____
ROOT
ATOM      1  N   UNL     1      -2.717   4.108  -4.868  0.00  0.00    -0.326 N 
ATOM      2  C   UNL     1      -2.084   5.285  -5.236  0.00  0.00    +0.126 A 
ATOM      3  C   UNL     1      -1.228   5.315  -6.341  0.00  0.00    +0.010 A 
ATOM      4  C   UNL     1      -0.619   6.503  -6.675  0.00  0.00    +0.033 A 
ATOM      5  N   UNL     1      -0.860   7.581  -5.937  0.00  0.00    -0.234 NA
ATOM      6  C   UNL     1      -1.675   7.526  -4.894  0.00  0.00    +0.162 A 
ATOM      7  N   UNL     1      -2.286   6.402  -4.546  0.00  0.00    -0.213 NA
ATOM      8  C   UNL     1       0.307   6.613  -7.855  0.00  0.00    -0.026 C 
ATOM      9  N   UNL     1       0.783   5.287  -8.261  0.00  0.00    +0.383 N 
ATOM     10  C   UNL     1      -0.374   4.408  -8.486  0.00  0.00    -0.077 C 
ATOM     11  C   UNL     1      -0.993   4.057  -7.132  0.00  0.00    +0.021 C 
ATOM     12  H   UNL     1      -2.564   3.296  -5.377  0.00  0.00    +0.148 HD
ATOM     13  H   UNL     1       1.318   5.367  -9.113  0.00  0.00    -0.085 HD
ATOM     14  H   UNL     1       1.364   4.900  -7.532  0.00  0.00    -0.085 HD
ENDROOT
BRANCH   6  15
ATOM     15  C   UNL     1      -1.915   8.755  -4.100  0.00  0.00    +0.019 A 
ATOM     16  C   UNL     1      -1.292   9.950  -4.455  0.00  0.00    +0.011 A 
ATOM     17  C   UNL     1      -1.520  11.091  -3.712  0.00  0.00    +0.001 A 
ATOM     18  C   UNL     1      -2.364  11.050  -2.617  0.00  0.00    +0.000 A 
ATOM     19  C   UNL     1      -2.985   9.866  -2.260  0.00  0.00    +0.001 A 
ATOM     20  C   UNL     1      -2.769   8.720  -2.999  0.00  0.00    +0.011 A 
ENDBRANCH   6  15
BRANCH   1  21
ATOM     21  C   UNL     1      -3.616   4.090  -3.712  0.00  0.00    +0.074 C 
ATOM     22  C   UNL     1      -5.015   4.534  -4.147  0.00  0.00    +0.028 C 
BRANCH  21  23
ATOM     23  C   UNL     1      -3.686   2.672  -3.142  0.00  0.00    +0.079 C 
BRANCH  23  27
ATOM     24  C   UNL     1      -0.013   1.086   0.008  0.00  0.00    +0.065 C 
ATOM     25  C   UNL     1      -0.742   1.585  -1.213  0.00  0.00    +0.033 A 
ATOM     26  C   UNL     1      -2.069   1.833  -1.304  0.00  0.00    +0.047 A 
ATOM     27  C   UNL     1      -2.335   2.281  -2.602  0.00  0.00    +0.065 A 
ATOM     28  N   UNL     1      -1.208   2.300  -3.267  0.00  0.00    -0.179 NA
ATOM     29  H   UNL     1       0.753   1.789  -2.637  0.00  0.00    +0.189 HD
ATOM     30  N   UNL     1      -0.187   1.870  -2.410  0.00  0.00    -0.282 N 
ENDBRANCH  23  27
ENDBRANCH  21  23
ENDBRANCH   1  21
TORSDOF 4
