REMARK  Name = ZINC04277915
REMARK  9 active torsions:
REMARK  status: ('A' for Active; 'I' for Inactive)
REMARK    1  A    between atoms: C_1  and  C_2
REMARK    2  A    between atoms: C_2  and  C_3
REMARK    3  A    between atoms: C_2  and  N_4
REMARK    4  A    between atoms: C_12  and  C_14
REMARK    5  A    between atoms: N_16  and  C_17
REMARK    6  A    between atoms: C_17  and  C_19
REMARK    7  A    between atoms: C_17  and  C_26
REMARK    8  A    between atoms: C_19  and  C_20
REMARK    9  A    between atoms: C_29  and  C_31
REMARK                            x       y       z     vdW  Elec       q    Type
REMARK                         _______ _______ _______ _____ _____    ______ ____
ROOT
ATOM      1  N   UNL     1      -1.162   8.421   1.206  0.00  0.00    -0.297 N 
ATOM      2  C   UNL     1      -0.353   7.376   0.946  0.00  0.00    +0.303 C 
ATOM      3  O   UNL     1       0.190   6.785   1.859  0.00  0.00    -0.253 OA
ATOM      4  N   UNL     1      -0.146   6.985  -0.328  0.00  0.00    -0.271 N 
ATOM      5  C   UNL     1      -0.872   7.624  -1.434  0.00  0.00    +0.129 C 
ATOM      6  C   UNL     1      -1.597   6.537  -2.237  0.00  0.00    +0.127 C 
ATOM      7  N   UNL     1      -0.641   5.464  -2.544  0.00  0.00    -0.294 N 
ATOM      8  C   UNL     1       0.086   4.825  -1.438  0.00  0.00    +0.140 C 
ATOM      9  C   UNL     1       0.810   5.912  -0.634  0.00  0.00    +0.181 C 
ATOM     10  C   UNL     1      -0.434   5.072  -3.817  0.00  0.00    +0.247 C 
ATOM     11  O   UNL     1       0.279   4.116  -4.051  0.00  0.00    -0.270 OA
ATOM     12  H   UNL     1      -1.653   8.847   0.485  0.00  0.00    +0.150 HD
ENDROOT
BRANCH  10  13
ATOM     13  C   UNL     1      -1.075   5.806  -4.929  0.00  0.00    +0.040 A 
ATOM     14  C   UNL     1      -1.476   5.125  -6.079  0.00  0.00    +0.013 A 
ATOM     15  C   UNL     1      -2.074   5.814  -7.114  0.00  0.00    +0.004 A 
ATOM     16  C   UNL     1      -2.275   7.179  -7.015  0.00  0.00    +0.038 A 
ATOM     17  C   UNL     1      -1.879   7.863  -5.877  0.00  0.00    +0.124 A 
ATOM     18  C   UNL     1      -1.285   7.182  -4.831  0.00  0.00    +0.051 A 
ATOM     19  F   UNL     1      -2.079   9.196  -5.787  0.00  0.00    -0.205 F 
ENDBRANCH  10  13
BRANCH   9  20
ATOM     20  C   UNL     1       1.340   5.324   0.648  0.00  0.00    +0.236 C 
ATOM     21  O   UNL     1       0.597   4.716   1.389  0.00  0.00    -0.274 OA
ATOM     22  N   UNL     1       2.640   5.475   0.972  0.00  0.00    -0.302 N 
ATOM     23  H   UNL     1       3.234   5.961   0.379  0.00  0.00    +0.150 HD
BRANCH  22  24
ATOM     24  C   UNL     1       3.155   4.904   2.219  0.00  0.00    +0.159 C 
BRANCH  24  25
ATOM     25  C   UNL     1       2.910   5.868   3.352  0.00  0.00    +0.231 C 
ATOM     26  O   UNL     1       2.360   6.927   3.138  0.00  0.00    -0.274 OA
ATOM     27  N   UNL     1       3.303   5.552   4.601  0.00  0.00    -0.328 N 
ATOM     28  H   UNL     1       3.744   4.705   4.772  0.00  0.00    +0.145 HD
ATOM     29  H   UNL     1       3.146   6.172   5.330  0.00  0.00    +0.145 HD
ENDBRANCH  24  25
BRANCH  24  30
ATOM     30  C   UNL     1       4.657   4.649   2.081  0.00  0.00    +0.035 C 
BRANCH  30  31
ATOM     31  C   UNL     1       4.902   3.630   0.967  0.00  0.00    -0.009 C 
ATOM     32  C   UNL     1       6.407   3.457   0.755  0.00  0.00    +0.003 C 
ATOM     33  C   UNL     1       6.652   2.437  -0.359  0.00  0.00    +0.000 C 
ATOM     34  C   UNL     1       6.034   1.094   0.035  0.00  0.00    +0.000 C 
ATOM     35  C   UNL     1       4.529   1.267   0.246  0.00  0.00    +0.000 C 
ATOM     36  C   UNL     1       4.284   2.286   1.361  0.00  0.00    +0.003 C 
ENDBRANCH  30  31
ENDBRANCH  24  30
ENDBRANCH  22  24
ENDBRANCH   9  20
BRANCH   1  38
ATOM     37  C   UNL     1      -1.719  10.387   2.551  0.00  0.00    +0.027 C 
ATOM     38  C   UNL     1      -1.302   8.915   2.578  0.00  0.00    +0.068 C 
ATOM     39  C   UNL     1      -2.367   8.097   3.310  0.00  0.00    +0.027 C 
ENDBRANCH   1  38
TORSDOF 7
