REMARK  Name = ZINC35514502
REMARK  6 active torsions:
REMARK  status: ('A' for Active; 'I' for Inactive)
REMARK    1  A    between atoms: C_1  and  C_2
REMARK    2  A    between atoms: C_7  and  C_8
REMARK    3  A    between atoms: C_14  and  C_25
REMARK    4  A    between atoms: C_28  and  O_31
REMARK    5  A    between atoms: O_31  and  C_32
REMARK    6  A    between atoms: C_32  and  C_33
REMARK                            x       y       z     vdW  Elec       q    Type
REMARK                         _______ _______ _______ _____ _____    ______ ____
ROOT
ATOM      1  C   UNL     1      -0.018   1.503   0.010  0.00  0.00    +0.044 C 
ATOM      2  C   UNL     1       0.002  -0.004   0.002  0.00  0.00    -0.047 A 
ATOM      3  C   UNL     1       0.006  -0.685  -1.195  0.00  0.00    +0.019 A 
ATOM      4  C   UNL     1       0.024  -2.080  -1.194  0.00  0.00    +0.065 A 
ATOM      5  C   UNL     1       0.034  -2.793   0.015  0.00  0.00    +0.140 A 
ATOM      6  C   UNL     1       0.033  -2.080   1.214  0.00  0.00    +0.050 A 
ATOM      7  C   UNL     1       0.023  -0.703   1.200  0.00  0.00    -0.044 A 
ATOM      8  C   UNL     1       0.029   0.053   2.503  0.00  0.00    +0.044 C 
ATOM      9  O   UNL     1       0.038  -4.145   0.057  0.00  0.00    -0.450 OA
ATOM     10  C   UNL     1       0.274  -4.846  -1.070  0.00  0.00    +0.199 A 
ATOM     11  C   UNL     1       0.281  -4.268  -2.309  0.00  0.00    +0.072 A 
ATOM     12  C   UNL     1       0.037  -2.832  -2.474  0.00  0.00    +0.199 A 
ATOM     13  O   UNL     1      -0.140  -2.306  -3.559  0.00  0.00    -0.287 OA
ATOM     14  C   UNL     1       0.567  -5.340  -3.309  0.00  0.00    +0.151 C 
ATOM     15  N   UNL     1       0.729  -6.580  -2.533  0.00  0.00    -0.238 N 
ATOM     16  C   UNL     1       0.558  -6.282  -1.228  0.00  0.00    +0.288 C 
ATOM     17  O   UNL     1       0.628  -7.082  -0.317  0.00  0.00    -0.266 OA
ATOM     18  C   UNL     1       1.010  -7.841  -3.054  0.00  0.00    +0.129 A 
ATOM     19  C   UNL     1       1.270  -7.982  -4.413  0.00  0.00    +0.044 A 
ATOM     20  C   UNL     1       1.548  -9.240  -4.917  0.00  0.00    +0.005 A 
ATOM     21  C   UNL     1       1.556 -10.318  -4.042  0.00  0.00    +0.020 A 
ATOM     22  C   UNL     1       1.289 -10.104  -2.704  0.00  0.00    +0.113 A 
ATOM     23  N   UNL     1       1.033  -8.893  -2.250  0.00  0.00    -0.240 NA
ENDROOT
BRANCH  14  24
ATOM     24  C   UNL     1      -0.586  -5.474  -4.271  0.00  0.00    -0.022 A 
ATOM     25  C   UNL     1      -1.717  -6.176  -3.898  0.00  0.00    +0.009 A 
ATOM     26  C   UNL     1      -2.775  -6.301  -4.778  0.00  0.00    +0.046 A 
ATOM     27  C   UNL     1      -2.701  -5.721  -6.037  0.00  0.00    +0.121 A 
ATOM     28  C   UNL     1      -1.564  -5.017  -6.408  0.00  0.00    +0.046 A 
ATOM     29  C   UNL     1      -0.511  -4.891  -5.522  0.00  0.00    +0.009 A 
BRANCH  27  30
ATOM     30  O   UNL     1      -3.740  -5.842  -6.904  0.00  0.00    -0.483 OA
BRANCH  30  31
ATOM     31  C   UNL     1      -3.594  -5.220  -8.182  0.00  0.00    +0.324 C 
BRANCH  31  32
ATOM     32  C   UNL     1      -4.835  -5.459  -9.002  0.00  0.00    +0.248 C 
ATOM     33  O   UNL     1      -5.754  -6.100  -8.538  0.00  0.00    -0.272 OA
ATOM     34  N   UNL     1      -4.924  -4.961 -10.252  0.00  0.00    -0.327 N 
ATOM     35  H   UNL     1      -4.189  -4.449 -10.623  0.00  0.00    +0.145 HD
ATOM     36  H   UNL     1      -5.723  -5.115 -10.779  0.00  0.00    +0.145 HD
ENDBRANCH  31  32
ENDBRANCH  30  31
ENDBRANCH  27  30
ENDBRANCH  14  24
TORSDOF 4
