REMARK  Name = ZINC04941460
REMARK  5 active torsions:
REMARK  status: ('A' for Active; 'I' for Inactive)
REMARK    1  A    between atoms: C_1  and  C_2
REMARK    2  A    between atoms: C_7  and  N_8
REMARK    3  A    between atoms: C_9  and  C_11
REMARK    4  A    between atoms: N_13  and  C_14
REMARK    5  A    between atoms: C_14  and  C_15
REMARK                            x       y       z     vdW  Elec       q    Type
REMARK                         _______ _______ _______ _____ _____    ______ ____
ROOT
ATOM      1  C   UNL     1       1.308   3.465   0.129  0.00  0.00    +0.299 C 
ATOM      2  O   UNL     1       0.306   4.141   0.240  0.00  0.00    -0.265 OA
ATOM      3  N   UNL     1       2.521   4.052   0.121  0.00  0.00    -0.305 N 
ATOM      4  H   UNL     1       3.321   3.511   0.033  0.00  0.00    +0.149 HD
ENDROOT
BRANCH   1   6
ATOM      5  N   UNL     1      -0.017   1.393   0.010  0.00  0.00    -0.278 N 
ATOM      6  C   UNL     1       1.196   1.981   0.002  0.00  0.00    +0.303 C 
ATOM      7  O   UNL     1       2.197   1.304  -0.109  0.00  0.00    -0.265 OA
ATOM      8  H   UNL     1      -0.820   1.937   0.028  0.00  0.00    +0.155 HD
BRANCH   5  15
ATOM      9  C   UNL     1      -2.141   0.176   1.460  0.00  0.00    +0.045 C 
ATOM     10  C   UNL     1      -1.140  -0.636   0.679  0.00  0.00    -0.029 A 
ATOM     11  C   UNL     1      -1.240  -2.014   0.648  0.00  0.00    +0.005 A 
ATOM     12  C   UNL     1      -0.319  -2.760  -0.063  0.00  0.00    +0.000 A 
ATOM     13  C   UNL     1       0.703  -2.130  -0.750  0.00  0.00    +0.002 A 
ATOM     14  C   UNL     1       0.806  -0.753  -0.729  0.00  0.00    +0.023 A 
ATOM     15  C   UNL     1      -0.118  -0.000  -0.015  0.00  0.00    +0.037 A 
ENDBRANCH   5  15
ENDBRANCH   1   6
BRANCH   3  16
ATOM     16  C   UNL     1       2.630   5.508   0.246  0.00  0.00    +0.138 C 
BRANCH  16  17
ATOM     17  C   UNL     1       4.105   5.913   0.209  0.00  0.00    +0.164 C 
ATOM     18  C   UNL     1       4.261   7.434   0.461  0.00  0.00    +0.196 C 
ATOM     19  O   UNL     1       5.598   7.506   1.015  0.00  0.00    -0.346 OA
ATOM     20  C   UNL     1       5.731   6.315   1.801  0.00  0.00    +0.171 C 
ATOM     21  O   UNL     1       4.824   5.323   1.312  0.00  0.00    -0.342 OA
ATOM     22  C   UNL     1       7.178   5.794   1.724  0.00  0.00    +0.065 C 
ATOM     23  C   UNL     1       7.854   6.370   2.994  0.00  0.00    +0.005 C 
ATOM     24  C   UNL     1       6.731   6.272   4.055  0.00  0.00    +0.005 C 
ATOM     25  C   UNL     1       5.444   6.621   3.277  0.00  0.00    +0.065 C 
ENDBRANCH  16  17
ENDBRANCH   3  16
TORSDOF 4
