REMARK  Name = ZINC65434926
REMARK  3 active torsions:
REMARK  status: ('A' for Active; 'I' for Inactive)
REMARK    1  A    between atoms: C_1  and  C_2
REMARK    2  A    between atoms: C_2  and  C_3
REMARK    3  A    between atoms: C_2  and  C_4
REMARK                            x       y       z     vdW  Elec       q    Type
REMARK                         _______ _______ _______ _____ _____    ______ ____
ROOT
ATOM      1  C   UNL     1      -1.986  -0.626   0.034  0.00  0.00    +0.102 C 
ATOM      2  C   UNL     1      -1.897  -2.145   0.243  0.00  0.00    +0.074 C 
ATOM      3  C   UNL     1      -0.464  -2.649   0.036  0.00  0.00    +0.117 C 
ATOM      4  N   UNL     1      -0.358  -3.975   0.664  0.00  0.00    -0.317 N 
ATOM      5  C   UNL     1      -0.622  -4.145   2.097  0.00  0.00    +0.112 C 
ATOM      6  C   UNL     1      -2.046  -3.656   2.417  0.00  0.00    +0.072 C 
ATOM      7  C   UNL     1      -2.237  -2.323   1.716  0.00  0.00    +0.044 C 
ATOM      8  N   UNL     1      -2.579  -1.214   2.212  0.00  0.00    -0.195 NA
ATOM      9  N   UNL     1      -2.500  -0.134   1.325  0.00  0.00    -0.265 N 
ATOM     10  C   UNL     1      -0.015  -5.045  -0.085  0.00  0.00    +0.114 C 
ATOM     11  N   UNL     1      -0.042  -6.284   0.386  0.00  0.00    -0.224 NA
ATOM     12  C   UNL     1       0.287  -7.333  -0.363  0.00  0.00    +0.225 C 
ATOM     13  N   UNL     1       0.922  -7.282  -1.512  0.00  0.00    -0.220 NA
ATOM     14  C   UNL     1       1.271  -6.103  -2.021  0.00  0.00    +0.145 C 
ATOM     15  N   UNL     1       2.133  -5.550  -2.813  0.00  0.00    -0.240 NA
ATOM     16  C   UNL     1       2.310  -4.236  -2.537  0.00  0.00    +0.110 C 
ATOM     17  C   UNL     1       1.364  -3.760  -1.714  0.00  0.00    +0.011 C 
ATOM     18  C   UNL     1       0.422  -4.923  -1.524  0.00  0.00    +0.144 C 
ATOM     19  H   UNL     1      -2.742   0.784   1.525  0.00  0.00    +0.168 HD
ENDROOT
BRANCH   1  21
ATOM     20  C   UNL     1      -0.195  -0.382  -1.690  0.00  0.00    +0.009 C 
ATOM     21  C   UNL     1      -0.604  -0.038  -0.256  0.00  0.00    +0.005 C 
ATOM     22  C   UNL     1      -0.650   1.482  -0.089  0.00  0.00    +0.009 C 
ENDBRANCH   1  21
TORSDOF 1
