REMARK  Name = ZINC67561097
REMARK  9 active torsions:
REMARK  status: ('A' for Active; 'I' for Inactive)
REMARK    1  A    between atoms: C_1  and  C_2
REMARK    2  A    between atoms: C_6  and  C_29
REMARK    3  A    between atoms: C_7  and  O_8
REMARK    4  A    between atoms: O_8  and  C_9
REMARK    5  A    between atoms: C_9  and  C_10
REMARK    6  A    between atoms: C_10  and  C_12
REMARK    7  A    between atoms: C_10  and  O_28
REMARK    8  A    between atoms: C_12  and  N_13
REMARK    9  A    between atoms: N_16  and  C_17
REMARK                            x       y       z     vdW  Elec       q    Type
REMARK                         _______ _______ _______ _____ _____    ______ ____
ROOT
ATOM      1  N   UNL     1      -2.222   2.145   6.116  0.00  0.00    -0.297 N 
ATOM      2  C   UNL     1      -3.276   2.644   6.792  0.00  0.00    +0.304 C 
ATOM      3  O   UNL     1      -4.404   2.295   6.503  0.00  0.00    -0.253 OA
ATOM      4  N   UNL     1      -3.079   3.532   7.787  0.00  0.00    -0.269 N 
ATOM      5  H   UNL     1      -1.322   2.423   6.347  0.00  0.00    +0.150 HD
ATOM      6  H   UNL     1      -2.178   3.752   8.069  0.00  0.00    +0.156 HD
ENDROOT
BRANCH   4   7
ATOM      7  C   UNL     1      -4.177   4.136   8.415  0.00  0.00    +0.037 A 
ATOM      8  C   UNL     1      -4.112   4.463   9.762  0.00  0.00    +0.027 A 
ATOM      9  C   UNL     1      -5.193   5.060  10.386  0.00  0.00    +0.049 A 
ATOM     10  C   UNL     1      -6.343   5.332   9.665  0.00  0.00    +0.142 A 
ATOM     11  C   UNL     1      -6.411   5.004   8.312  0.00  0.00    +0.077 A 
ATOM     12  C   UNL     1      -5.327   4.411   7.687  0.00  0.00    +0.050 A 
ATOM     13  N   UNL     1      -7.584   5.285   7.597  0.00  0.00    -0.280 N 
ATOM     14  C   UNL     1      -8.488   6.136   8.130  0.00  0.00    +0.255 C 
ATOM     15  O   UNL     1      -9.523   6.371   7.542  0.00  0.00    -0.272 OA
ATOM     16  C   UNL     1      -8.204   6.793   9.456  0.00  0.00    +0.325 C 
ATOM     17  O   UNL     1      -7.413   5.920  10.266  0.00  0.00    -0.481 OA
ATOM     18  H   UNL     1      -7.744   4.874   6.733  0.00  0.00    +0.155 HD
ENDBRANCH   4   7
BRANCH   1  19
ATOM     19  C   UNL     1      -2.436   1.180   5.034  0.00  0.00    +0.140 C 
BRANCH  19  20
ATOM     20  C   UNL     1      -1.087   0.775   4.438  0.00  0.00    +0.169 C 
BRANCH  20  21
ATOM     21  O   UNL     1      -0.322   0.076   5.422  0.00  0.00    -0.387 OA
ATOM     22  H   UNL     1      -0.744  -0.731   5.748  0.00  0.00    +0.210 HD
ENDBRANCH  20  21
BRANCH  20  23
ATOM     23  C   UNL     1      -1.316  -0.134   3.229  0.00  0.00    +0.261 C 
BRANCH  23  24
ATOM     24  O   UNL     1      -0.063  -0.418   2.603  0.00  0.00    -0.489 OA
BRANCH  24  31
ATOM     25  C   UNL     1      -0.364   0.831   0.087  0.00  0.00    +0.047 C 
ATOM     26  C   UNL     1      -0.235  -0.663   0.243  0.00  0.00    -0.009 A 
ATOM     27  C   UNL     1      -0.256  -1.478  -0.872  0.00  0.00    +0.007 A 
ATOM     28  C   UNL     1      -0.137  -2.849  -0.730  0.00  0.00    +0.001 A 
ATOM     29  C   UNL     1       0.002  -3.406   0.528  0.00  0.00    +0.007 A 
ATOM     30  C   UNL     1       0.023  -2.595   1.646  0.00  0.00    -0.009 A 
ATOM     31  C   UNL     1      -0.090  -1.219   1.505  0.00  0.00    +0.126 A 
ATOM     32  C   UNL     1       0.175  -3.203   3.016  0.00  0.00    +0.047 C 
ENDBRANCH  24  31
ENDBRANCH  23  24
ENDBRANCH  20  23
ENDBRANCH  19  20
ENDBRANCH   1  19
TORSDOF 7
