REMARK  Name = ZINC36617105
REMARK  5 active torsions:
REMARK  status: ('A' for Active; 'I' for Inactive)
REMARK    1  A    between atoms: C_1  and  C_2
REMARK    2  A    between atoms: C_4  and  C_17
REMARK    3  A    between atoms: N_8  and  C_14
REMARK    4  A    between atoms: C_14  and  C_15
REMARK    5  A    between atoms: C_14  and  C_16
REMARK                            x       y       z     vdW  Elec       q    Type
REMARK                         _______ _______ _______ _____ _____    ______ ____
ROOT
ATOM      1  C   UNL     1      -0.756   0.951   0.001  0.00  0.00    +0.067 C 
ATOM      2  C   UNL     1      -0.479  -0.526   0.118  0.00  0.00    +0.060 A 
ATOM      3  C   UNL     1      -0.429  -1.299  -1.034  0.00  0.00    +0.077 A 
ATOM      4  C   UNL     1      -0.172  -2.669  -0.925  0.00  0.00    +0.099 A 
ATOM      5  C   UNL     1       0.025  -3.194   0.363  0.00  0.00    +0.097 A 
ATOM      6  C   UNL     1      -0.043  -2.340   1.476  0.00  0.00    +0.149 A 
ATOM      7  N   UNL     1      -0.284  -1.050   1.311  0.00  0.00    -0.232 NA
ATOM      8  N   UNL     1       0.155  -2.880   2.735  0.00  0.00    -0.303 N 
ATOM      9  C   UNL     1       0.405  -4.191   2.890  0.00  0.00    +0.162 A 
ATOM     10  N   UNL     1       0.480  -5.047   1.859  0.00  0.00    -0.302 N 
ATOM     11  C   UNL     1       0.302  -4.624   0.588  0.00  0.00    +0.262 A 
ATOM     12  O   UNL     1       0.370  -5.401  -0.345  0.00  0.00    -0.267 OA
ATOM     13  S   UNL     1       0.641  -4.796   4.474  0.00  0.00    -0.013 S 
ATOM     14 CL   UNL     1      -0.683  -0.574  -2.590  0.00  0.00    -0.081 Cl
ATOM     15  H   UNL     1       0.665  -5.984   2.029  0.00  0.00    +0.171 HD
ENDROOT
BRANCH   8  16
ATOM     16  C   UNL     1       0.090  -2.012   3.913  0.00  0.00    +0.085 C 
ATOM     17  C   UNL     1       1.159  -0.923   3.804  0.00  0.00    +0.030 C 
ATOM     18  C   UNL     1      -1.293  -1.362   3.992  0.00  0.00    +0.030 C 
ENDBRANCH   8  16
BRANCH   4  19
ATOM     19  C   UNL     1      -0.109  -3.534  -2.123  0.00  0.00    +0.389 C 
ATOM     20  O   UNL     1       0.939  -3.647  -2.742  0.00  0.00    -0.241 OA
ATOM     21  O   UNL     1      -1.106  -4.137  -2.494  0.00  0.00    -0.241 OA
ENDBRANCH   4  19
TORSDOF 2
