REMARK  Name = ZINC12156087
REMARK  6 active torsions:
REMARK  status: ('A' for Active; 'I' for Inactive)
REMARK    1  A    between atoms: C_1  and  C_2
REMARK    2  A    between atoms: C_5  and  C_11
REMARK    3  A    between atoms: C_20  and  C_22
REMARK    4  A    between atoms: N_24  and  C_25
REMARK    5  A    between atoms: C_25  and  C_26
REMARK    6  A    between atoms: C_26  and  C_31
REMARK                            x       y       z     vdW  Elec       q    Type
REMARK                         _______ _______ _______ _____ _____    ______ ____
ROOT
ATOM      1  C   UNL     1      -5.345  -3.705   7.060  0.00  0.00    +0.236 C 
ATOM      2  O   UNL     1      -4.993  -4.778   7.503  0.00  0.00    -0.274 OA
ATOM      3  N   UNL     1      -5.234  -3.452   5.741  0.00  0.00    -0.300 N 
ATOM      4  C   UNL     1      -4.688  -4.469   4.833  0.00  0.00    +0.108 C 
ATOM      5  C   UNL     1      -3.482  -3.877   4.094  0.00  0.00    +0.026 C 
ATOM      6  C   UNL     1      -3.893  -2.536   3.476  0.00  0.00    -0.015 C 
ATOM      7  C   UNL     1      -4.471  -1.517   4.463  0.00  0.00    +0.026 C 
ATOM      8  C   UNL     1      -5.657  -2.156   5.194  0.00  0.00    +0.108 C 
ATOM      9  C   UNL     1      -4.462  -2.553   2.057  0.00  0.00    +0.021 C 
ATOM     10  C   UNL     1      -3.057  -2.004   2.313  0.00  0.00    +0.082 C 
ENDROOT
BRANCH   1  14
ATOM     11  C   UNL     1      -2.659  -1.317   9.546  0.00  0.00    +0.028 C 
ATOM     12  C   UNL     1      -3.704  -2.341   9.100  0.00  0.00    +0.071 C 
ATOM     13  C   UNL     1      -4.816  -1.632   8.318  0.00  0.00    +0.053 C 
ATOM     14  C   UNL     1      -5.906  -2.655   7.984  0.00  0.00    +0.160 C 
ATOM     15  N   UNL     1      -6.367  -3.288   9.221  0.00  0.00    -0.315 N 
ATOM     16  C   UNL     1      -5.553  -3.426  10.278  0.00  0.00    +0.131 C 
ATOM     17  S   UNL     1      -6.158  -4.190  11.686  0.00  0.00    -0.019 S 
ATOM     18  N   UNL     1      -4.285  -2.991  10.276  0.00  0.00    -0.324 N 
ATOM     19  H   UNL     1      -7.279  -3.613   9.277  0.00  0.00    +0.148 HD
ATOM     20  H   UNL     1      -3.741  -3.109  11.071  0.00  0.00    +0.148 HD
ENDBRANCH   1  14
BRANCH  10  21
ATOM     21  C   UNL     1      -2.864  -0.513   2.219  0.00  0.00    +0.217 C 
ATOM     22  O   UNL     1      -3.701   0.173   1.671  0.00  0.00    -0.275 OA
ATOM     23  N   UNL     1      -1.763   0.059   2.745  0.00  0.00    -0.314 N 
ATOM     24  H   UNL     1      -1.094  -0.489   3.183  0.00  0.00    +0.149 HD
BRANCH  23  25
ATOM     25  C   UNL     1      -1.576   1.510   2.654  0.00  0.00    +0.115 C 
BRANCH  25  26
ATOM     26  C   UNL     1      -0.224   1.889   3.260  0.00  0.00    +0.011 C 
ATOM     27  C   UNL     1       0.907   1.106   2.561  0.00  0.00    +0.013 C 
ATOM     28  C   UNL     1       1.428   2.082   1.475  0.00  0.00    +0.001 C 
ATOM     29  C   UNL     1       1.356   3.456   2.186  0.00  0.00    +0.001 C 
ATOM     30  C   UNL     1       0.061   3.382   3.022  0.00  0.00    +0.013 C 
BRANCH  26  31
ATOM     31  C   UNL     1      -0.220   1.592   4.738  0.00  0.00    -0.040 A 
ATOM     32  C   UNL     1      -1.381   1.179   5.363  0.00  0.00    +0.004 A 
ATOM     33  C   UNL     1      -1.379   0.913   6.719  0.00  0.00    +0.000 A 
ATOM     34  C   UNL     1      -0.215   1.059   7.451  0.00  0.00    +0.000 A 
ATOM     35  C   UNL     1       0.946   1.472   6.825  0.00  0.00    +0.000 A 
ATOM     36  C   UNL     1       0.944   1.738   5.469  0.00  0.00    +0.004 A 
ENDBRANCH  26  31
ENDBRANCH  25  26
ENDBRANCH  23  25
ENDBRANCH  10  21
TORSDOF 5
