REMARK  Name = ZINC06428328
REMARK  11 active torsions:
REMARK  status: ('A' for Active; 'I' for Inactive)
REMARK    1  A    between atoms: C_1  and  C_2
REMARK    2  A    between atoms: C_5  and  C_7
REMARK    3  A    between atoms: C_10  and  C_11
REMARK    4  A    between atoms: C_10  and  O_22
REMARK    5  A    between atoms: C_18  and  C_21
REMARK    6  A    between atoms: N_27  and  C_28
REMARK    7  A    between atoms: C_28  and  C_29
REMARK    8  A    between atoms: C_29  and  C_30
REMARK    9  A    between atoms: C_30  and  N_59
REMARK   10  A    between atoms: C_31  and  N_59
REMARK   11  A    between atoms: C_32  and  N_59
REMARK                            x       y       z     vdW  Elec       q    Type
REMARK                         _______ _______ _______ _____ _____    ______ ____
ROOT
ATOM      1  C   UNL     1      -0.566   2.887  -4.308  0.00  0.00    +0.180 C 
ATOM      2  C   UNL     1      -1.363   2.877  -5.592  0.00  0.00    +0.074 C 
ATOM      3  C   UNL     1      -1.563   3.939  -6.453  0.00  0.00    +0.133 C 
ATOM      4  C   UNL     1      -1.858   1.572  -5.734  0.00  0.00    +0.249 C 
ATOM      5  O   UNL     1      -2.550   1.167  -6.650  0.00  0.00    -0.282 OA
ATOM      6  C   UNL     1      -1.385   0.768  -4.575  0.00  0.00    +0.288 C 
ATOM      7  O   UNL     1      -1.634  -0.407  -4.396  0.00  0.00    -0.266 OA
ATOM      8  N   UNL     1      -0.646   1.532  -3.754  0.00  0.00    -0.281 N 
ENDROOT
BRANCH   3   9
ATOM      9  C   UNL     1      -2.488   3.801  -7.588  0.00  0.00    +0.017 A 
ATOM     10  C   UNL     1      -3.786   3.316  -7.386  0.00  0.00    +0.015 A 
ATOM     11  C   UNL     1      -4.647   3.184  -8.448  0.00  0.00    +0.046 A 
ATOM     12  C   UNL     1      -4.239   3.532  -9.738  0.00  0.00    +0.124 A 
ATOM     13  C   UNL     1      -2.950   4.022  -9.933  0.00  0.00    -0.002 A 
ATOM     14  C   UNL     1      -2.081   4.160  -8.880  0.00  0.00    +0.019 A 
ATOM     15  C   UNL     1      -2.811   4.330 -11.411  0.00  0.00    +0.083 C 
ATOM     16  C   UNL     1      -4.285   4.317 -11.880  0.00  0.00    +0.175 C 
ATOM     17  O   UNL     1      -4.920   3.463 -10.913  0.00  0.00    -0.488 OA
ATOM     18  C   UNL     1      -4.401   3.729 -13.288  0.00  0.00    +0.052 C 
ENDBRANCH   3   9
BRANCH   1  23
ATOM     19  C   UNL     1      -3.641   4.960  -0.889  0.00  0.00    +0.086 C 
ATOM     20  C   UNL     1      -2.497   4.778  -1.852  0.00  0.00    +0.102 A 
ATOM     21  C   UNL     1      -1.534   5.682  -2.109  0.00  0.00    +0.045 A 
ATOM     22  C   UNL     1      -0.669   5.099  -3.063  0.00  0.00    +0.047 A 
ATOM     23  C   UNL     1      -1.159   3.877  -3.339  0.00  0.00    +0.130 A 
ATOM     24  O   UNL     1      -2.265   3.687  -2.600  0.00  0.00    -0.463 OA
ENDBRANCH   1  23
BRANCH   3  25
ATOM     25  O   UNL     1      -0.909   5.103  -6.253  0.00  0.00    -0.506 OA
ATOM     26  H   UNL     1      -1.168   5.758  -6.963  0.00  0.00    +0.292 HD
ENDBRANCH   3  25
BRANCH   8  27
ATOM     27  C   UNL     1      -0.017   1.083  -2.509  0.00  0.00    +0.107 C 
BRANCH  27  28
ATOM     28  C   UNL     1      -0.984   1.297  -1.343  0.00  0.00    +0.000 C 
BRANCH  28  29
ATOM     29  C   UNL     1      -0.327   0.828  -0.043  0.00  0.00    -0.078 C 
BRANCH  29  32
ATOM     30  C   UNL     1      -2.435   0.167   0.948  0.00  0.00    -0.097 C 
ATOM     31  C   UNL     1      -0.583   0.820   2.365  0.00  0.00    -0.097 C 
ATOM     32  N   UNL     1      -1.265   1.061   1.076  0.00  0.00    +0.376 N 
ATOM     33  H   UNL     1      -1.585   2.036   1.045  0.00  0.00    -0.083 HD
ENDBRANCH  29  32
ENDBRANCH  28  29
ENDBRANCH  27  28
ENDBRANCH   8  27
TORSDOF 7
