REMARK  Name = ZINC40766561
REMARK  7 active torsions:
REMARK  status: ('A' for Active; 'I' for Inactive)
REMARK    1  A    between atoms: C_1  and  C_2
REMARK    2  A    between atoms: C_5  and  N_18
REMARK    3  A    between atoms: C_6  and  O_8
REMARK    4  A    between atoms: O_8  and  C_9
REMARK    5  A    between atoms: C_11  and  C_15
REMARK    6  A    between atoms: C_15  and  C_16
REMARK    7  A    between atoms: C_15  and  C_17
REMARK                            x       y       z     vdW  Elec       q    Type
REMARK                         _______ _______ _______ _____ _____    ______ ____
ROOT
ATOM      1  C   UNL     1      -2.675  -0.772  -1.154  0.00  0.00    +0.044 C 
ATOM      2  C   UNL     1      -1.331  -1.090  -0.551  0.00  0.00    -0.047 A 
ATOM      3  C   UNL     1      -0.175  -0.680  -1.190  0.00  0.00    +0.005 A 
ATOM      4  C   UNL     1       1.060  -0.969  -0.641  0.00  0.00    +0.027 A 
ATOM      5  C   UNL     1       1.142  -1.671   0.552  0.00  0.00    +0.068 A 
ATOM      6  C   UNL     1      -0.023  -2.083   1.195  0.00  0.00    +0.151 A 
ATOM      7  C   UNL     1      -1.258  -1.785   0.642  0.00  0.00    +0.051 A 
ENDROOT
BRANCH   5   8
ATOM      8  N   UNL     1       2.392  -1.965   1.109  0.00  0.00    -0.355 N 
ATOM      9  H   UNL     1       3.203  -1.677   0.660  0.00  0.00    +0.142 HD
ATOM     10  H   UNL     1       2.448  -2.455   1.944  0.00  0.00    +0.142 HD
ENDBRANCH   5   8
BRANCH   6  11
ATOM     11  O   UNL     1       0.051  -2.771   2.366  0.00  0.00    -0.436 OA
BRANCH  11  12
ATOM     12  C   UNL     1       0.151  -2.061   3.516  0.00  0.00    +0.224 A 
ATOM     13  C   UNL     1       0.282  -2.713   4.742  0.00  0.00    +0.091 A 
ATOM     14  C   UNL     1       0.381  -1.946   5.886  0.00  0.00    +0.051 A 
ATOM     15  N   UNL     1       0.350  -0.625   5.783  0.00  0.00    -0.240 NA
ATOM     16  C   UNL     1       0.226  -0.039   4.609  0.00  0.00    +0.225 A 
ATOM     17  N   UNL     1       0.133  -0.733   3.493  0.00  0.00    -0.201 NA
BRANCH  14  18
ATOM     18  C   UNL     1       0.523  -2.602   7.235  0.00  0.00    +0.032 C 
ATOM     19  C   UNL     1      -0.862  -2.960   7.777  0.00  0.00    +0.014 C 
ATOM     20  C   UNL     1       1.361  -3.875   7.097  0.00  0.00    +0.014 C 
ENDBRANCH  14  18
ENDBRANCH  11  12
ENDBRANCH   6  11
TORSDOF 4
