REMARK  Name = ZINC16853107
REMARK  7 active torsions:
REMARK  status: ('A' for Active; 'I' for Inactive)
REMARK    1  A    between atoms: C_1  and  C_2
REMARK    2  A    between atoms: C_4  and  C_20
REMARK    3  A    between atoms: C_5  and  C_9
REMARK    4  A    between atoms: C_9  and  C_11
REMARK    5  A    between atoms: C_9  and  C_17
REMARK    6  A    between atoms: C_21  and  C_22
REMARK    7  A    between atoms: C_31  and  O_32
REMARK                            x       y       z     vdW  Elec       q    Type
REMARK                         _______ _______ _______ _____ _____    ______ ____
ROOT
ATOM      1  C   UNL     1      -3.005  -0.512   3.126  0.00  0.00    +0.086 C 
ATOM      2  C   UNL     1      -2.277  -1.434   2.183  0.00  0.00    +0.107 A 
ATOM      3  N   UNL     1      -2.112  -1.071   0.942  0.00  0.00    -0.234 NA
ATOM      4  C   UNL     1      -1.467  -1.862   0.062  0.00  0.00    +0.075 A 
ATOM      5  C   UNL     1      -0.967  -3.091   0.484  0.00  0.00    +0.060 A 
ATOM      6  C   UNL     1      -1.155  -3.463   1.823  0.00  0.00    +0.256 A 
ATOM      7  N   UNL     1      -1.806  -2.616   2.648  0.00  0.00    -0.311 N 
ATOM      8  O   UNL     1      -0.733  -4.531   2.237  0.00  0.00    -0.267 OA
ATOM      9  H   UNL     1      -1.941  -2.857   3.578  0.00  0.00    +0.170 HD
ENDROOT
BRANCH   4  10
ATOM     10  C   UNL     1      -1.294  -1.433  -1.330  0.00  0.00    +0.029 C 
ATOM     11  C   UNL     1      -1.883  -0.298  -1.765  0.00  0.00    +0.014 C 
BRANCH  11  12
ATOM     12  C   UNL     1      -1.848   0.046  -3.189  0.00  0.00    +0.024 A 
ATOM     13  C   UNL     1      -3.059   0.490  -3.881  0.00  0.00    -0.007 A 
ATOM     14  C   UNL     1      -4.283   0.600  -3.212  0.00  0.00    +0.009 A 
ATOM     15  C   UNL     1      -5.388   1.018  -3.894  0.00  0.00    +0.001 A 
ATOM     16  C   UNL     1      -5.315   1.336  -5.247  0.00  0.00    +0.001 A 
ATOM     17  C   UNL     1      -4.139   1.240  -5.928  0.00  0.00    +0.008 A 
ATOM     18  C   UNL     1      -2.981   0.813  -5.257  0.00  0.00    -0.017 A 
ATOM     19  C   UNL     1      -1.749   0.703  -5.927  0.00  0.00    +0.012 A 
ATOM     20  C   UNL     1      -0.633   0.290  -5.270  0.00  0.00    +0.046 A 
ATOM     21  C   UNL     1      -0.657  -0.035  -3.914  0.00  0.00    +0.125 A 
BRANCH  21  22
ATOM     22  O   UNL     1       0.482  -0.438  -3.297  0.00  0.00    -0.506 OA
ATOM     23  H   UNL     1       0.643  -1.390  -3.351  0.00  0.00    +0.292 HD
ENDBRANCH  21  22
ENDBRANCH  11  12
ENDBRANCH   4  10
BRANCH   5  24
ATOM     24  C   UNL     1      -0.241  -3.999  -0.474  0.00  0.00    +0.169 C 
BRANCH  24  25
ATOM     25  C   UNL     1       1.224  -4.034  -0.122  0.00  0.00    -0.029 A 
ATOM     26  C   UNL     1       1.653  -3.551   1.100  0.00  0.00    +0.005 A 
ATOM     27  C   UNL     1       2.996  -3.583   1.423  0.00  0.00    +0.000 A 
ATOM     28  C   UNL     1       3.911  -4.098   0.524  0.00  0.00    +0.000 A 
ATOM     29  C   UNL     1       3.482  -4.582  -0.697  0.00  0.00    +0.000 A 
ATOM     30  C   UNL     1       2.138  -4.554  -1.019  0.00  0.00    +0.005 A 
ENDBRANCH  24  25
BRANCH  24  31
ATOM     31  C   UNL     1      -0.814  -5.390  -0.380  0.00  0.00    +0.368 C 
ATOM     32  O   UNL     1      -1.920  -5.626  -0.835  0.00  0.00    -0.245 OA
ATOM     33  O   UNL     1      -0.171  -6.279   0.152  0.00  0.00    -0.245 OA
ENDBRANCH  24  31
ENDBRANCH   5  24
TORSDOF 6
