REMARK  Name = ZINC01107292
REMARK  7 active torsions:
REMARK  status: ('A' for Active; 'I' for Inactive)
REMARK    1  A    between atoms: C_1  and  C_2
REMARK    2  A    between atoms: C_2  and  C_31
REMARK    3  A    between atoms: C_6  and  C_14
REMARK    4  A    between atoms: C_8  and  C_12
REMARK    5  A    between atoms: C_9  and  N_11
REMARK    6  A    between atoms: C_17  and  C_19
REMARK    7  A    between atoms: C_23  and  N_25
REMARK                            x       y       z     vdW  Elec       q    Type
REMARK                         _______ _______ _______ _____ _____    ______ ____
ROOT
ATOM      1  C   UNL     1      -1.017   5.205  -3.464  0.00  0.00    +0.012 C 
ATOM      2  C   UNL     1       0.068   6.275  -3.603  0.00  0.00    -0.021 C 
ATOM      3  C   UNL     1       0.068   7.172  -2.364  0.00  0.00    +0.081 C 
ATOM      4  C   UNL     1       0.369   6.343  -1.137  0.00  0.00    +0.115 C 
ATOM      5  C   UNL     1       1.162   5.262  -1.217  0.00  0.00    +0.049 C 
ATOM      6  C   UNL     1       1.480   4.445   0.012  0.00  0.00    +0.137 C 
ATOM      7  C   UNL     1       1.186   5.245   1.251  0.00  0.00    +0.101 C 
ATOM      8  C   UNL     1       0.381   6.333   1.189  0.00  0.00    +0.198 C 
ATOM      9  O   UNL     1      -0.177   6.725   0.033  0.00  0.00    -0.445 OA
ATOM     10  C   UNL     1       1.723   4.853  -2.445  0.00  0.00    +0.164 C 
ATOM     11  O   UNL     1       2.446   3.877  -2.476  0.00  0.00    -0.292 OA
ATOM     12  C   UNL     1       1.441   5.604  -3.718  0.00  0.00    +0.086 C 
ATOM     13  C   UNL     1      -0.201   7.120  -4.850  0.00  0.00    +0.012 C 
ENDROOT
BRANCH   6  14
ATOM     14  C   UNL     1       0.638   3.195   0.013  0.00  0.00    +0.118 A 
ATOM     15  C   UNL     1       1.107   1.932   0.002  0.00  0.00    +0.046 A 
ATOM     16  C   UNL     1      -0.013   1.076   0.008  0.00  0.00    +0.050 A 
ATOM     17  C   UNL     1      -1.115   1.872   0.017  0.00  0.00    +0.135 A 
ATOM     18  O   UNL     1      -0.705   3.155   0.026  0.00  0.00    -0.459 OA
BRANCH  17  19
ATOM     19  C   UNL     1      -2.518   1.410   0.020  0.00  0.00    +0.019 A 
ATOM     20  C   UNL     1      -2.807   0.044   0.008  0.00  0.00    +0.012 A 
ATOM     21  C   UNL     1      -4.119  -0.380   0.017  0.00  0.00    +0.003 A 
ATOM     22  C   UNL     1      -5.149   0.544   0.026  0.00  0.00    +0.033 A 
ATOM     23  C   UNL     1      -4.870   1.899   0.032  0.00  0.00    +0.127 A 
ATOM     24  C   UNL     1      -3.561   2.337   0.029  0.00  0.00    +0.044 A 
BRANCH  23  25
ATOM     25  N   UNL     1      -5.977   2.881   0.042  0.00  0.00    +0.056 N 
ATOM     26  O   UNL     1      -5.733   4.074   0.047  0.00  0.00    -0.126 OA
ATOM     27  O   UNL     1      -7.133   2.496   0.044  0.00  0.00    -0.126 OA
ENDBRANCH  23  25
ENDBRANCH  17  19
ENDBRANCH   6  14
BRANCH   8  28
ATOM     28  N   UNL     1       0.131   7.050   2.332  0.00  0.00    -0.328 N 
ATOM     29  H   UNL     1       0.529   6.776   3.173  0.00  0.00    +0.145 HD
ATOM     30  H   UNL     1      -0.444   7.831   2.300  0.00  0.00    +0.145 HD
ENDBRANCH   8  28
BRANCH   7  31
ATOM     31  C   UNL     1       1.759   4.854   2.503  0.00  0.00    +0.101 C 
ATOM     32  N   UNL     1       2.215   4.544   3.497  0.00  0.00    -0.191 NA
ENDBRANCH   7  31
TORSDOF 5
