REMARK  Name = ZINC00091262
REMARK  5 active torsions:
REMARK  status: ('A' for Active; 'I' for Inactive)
REMARK    1  A    between atoms: C_3  and  C_8
REMARK    2  A    between atoms: C_5  and  O_7
REMARK    3  A    between atoms: C_11  and  C_22
REMARK    4  A    between atoms: C_17  and  N_21
REMARK    5  A    between atoms: C_18  and  C_19
REMARK                            x       y       z     vdW  Elec       q    Type
REMARK                         _______ _______ _______ _____ _____    ______ ____
ROOT
ATOM      1  C   UNL     1       3.671   2.190  -0.021  0.00  0.00    +0.102 C 
ATOM      2  C   UNL     1       3.724   3.078  -1.238  0.00  0.00    +0.055 A 
ATOM      3  C   UNL     1       3.913   2.729  -2.580  0.00  0.00    +0.107 A 
ATOM      4  N   UNL     1       3.885   3.840  -3.295  0.00  0.00    -0.170 NA
ATOM      5  N   UNL     1       3.677   4.921  -2.424  0.00  0.00    -0.246 N 
ATOM      6  H   UNL     1       3.612   5.854  -2.679  0.00  0.00    +0.192 HD
ATOM      7  C   UNL     1       3.582   4.433  -1.169  0.00  0.00    +0.223 A 
ATOM      8  O   UNL     1       3.384   5.090   0.001  0.00  0.00    -0.423 OA
ATOM      9  C   UNL     1       3.602   4.409   1.145  0.00  0.00    +0.200 C 
ATOM     10  C   UNL     1       3.747   3.066   1.205  0.00  0.00    +0.098 C 
ENDROOT
BRANCH   1  13
ATOM     11  C   UNL     1      -0.017   1.377   0.010  0.00  0.00    +0.004 A 
ATOM     12  C   UNL     1       1.171   2.086   0.002  0.00  0.00    +0.005 A 
ATOM     13  C   UNL     1       2.379   1.415  -0.013  0.00  0.00    -0.031 A 
ATOM     14  C   UNL     1       2.403   0.033  -0.021  0.00  0.00    +0.050 A 
ATOM     15  C   UNL     1       1.214  -0.680  -0.013  0.00  0.00    +0.117 A 
ATOM     16  C   UNL     1       0.002  -0.004   0.002  0.00  0.00    +0.045 A 
BRANCH  15  17
ATOM     17  O   UNL     1       1.235  -2.039  -0.021  0.00  0.00    -0.507 OA
ATOM     18  H   UNL     1       1.249  -2.437   0.860  0.00  0.00    +0.292 HD
ENDBRANCH  15  17
ENDBRANCH   1  13
BRANCH   3  19
ATOM     19  C   UNL     1       4.111   1.361  -3.105  0.00  0.00    +0.040 A 
ATOM     20  C   UNL     1       3.689   0.823  -4.291  0.00  0.00    +0.018 A 
ATOM     21  C   UNL     1       3.995  -0.492  -4.568  0.00  0.00    +0.008 A 
ATOM     22  C   UNL     1       4.702  -1.212  -3.660  0.00  0.00    +0.046 A 
ATOM     23  S   UNL     1       4.968  -0.017  -2.361  0.00  0.00    -0.095 S 
ENDBRANCH   3  19
BRANCH   9  24
ATOM     24  N   UNL     1       3.682   5.120   2.316  0.00  0.00    -0.328 N 
ATOM     25  H   UNL     1       3.583   6.085   2.305  0.00  0.00    +0.145 HD
ATOM     26  H   UNL     1       3.838   4.658   3.154  0.00  0.00    +0.145 HD
ENDBRANCH   9  24
BRANCH  10  27
ATOM     27  C   UNL     1       3.980   2.452   2.478  0.00  0.00    +0.101 C 
ATOM     28  N   UNL     1       4.165   1.965   3.487  0.00  0.00    -0.191 NA
ENDBRANCH  10  27
TORSDOF 5
