REMARK  Name = ZINC13153632
REMARK  5 active torsions:
REMARK  status: ('A' for Active; 'I' for Inactive)
REMARK    1  A    between atoms: C_1  and  C_2
REMARK    2  A    between atoms: C_2  and  C_3
REMARK    3  A    between atoms: C_3  and  C_5
REMARK    4  A    between atoms: C_3  and  N_6
REMARK    5  A    between atoms: N_15  and  C_18
REMARK                            x       y       z     vdW  Elec       q    Type
REMARK                         _______ _______ _______ _____ _____    ______ ____
ROOT
ATOM      1  N   UNL     1      -1.163   1.962   0.018  0.00  0.00    -0.261 N 
ATOM      2  C   UNL     1      -0.755   3.266  -0.263  0.00  0.00    +0.205 C 
ATOM      3  C   UNL     1       0.681   3.325   0.375  0.00  0.00    +0.204 C 
ATOM      4  N   UNL     1       1.139   4.509  -0.336  0.00  0.00    -0.278 N 
ATOM      5  C   UNL     1       0.035   5.312  -0.455  0.00  0.00    +0.303 C 
ATOM      6  O   UNL     1       0.084   6.503  -0.696  0.00  0.00    -0.253 OA
ATOM      7  N   UNL     1      -1.131   4.612  -0.271  0.00  0.00    -0.278 N 
ATOM      8  N   UNL     1       1.109   1.989   0.002  0.00  0.00    -0.267 N 
ATOM      9  C   UNL     1      -0.014   1.212   0.009  0.00  0.00    +0.308 C 
ATOM     10  O   UNL     1       0.002  -0.004   0.002  0.00  0.00    -0.252 OA
ATOM     11  C   UNL     1       2.472   1.560  -0.317  0.00  0.00    +0.135 C 
ATOM     12  H   UNL     1       2.035   4.692  -0.658  0.00  0.00    +0.152 HD
ATOM     13  H   UNL     1      -2.025   4.975  -0.167  0.00  0.00    +0.152 HD
ENDROOT
BRANCH   1  14
ATOM     14  C   UNL     1      -2.528   1.493   0.271  0.00  0.00    +0.076 C 
ATOM     15  C   UNL     1      -2.605   0.877   1.669  0.00  0.00    +0.028 C 
BRANCH  14  17
ATOM     16  C   UNL     1      -2.952   1.088  -2.158  0.00  0.00    +0.006 C 
ATOM     17  C   UNL     1      -2.908   0.441  -0.772  0.00  0.00    +0.019 C 
ENDBRANCH  14  17
ENDBRANCH   1  14
TORSDOF 2
