REMARK  Name = ZINC40348076
REMARK  6 active torsions:
REMARK  status: ('A' for Active; 'I' for Inactive)
REMARK    1  A    between atoms: C_3  and  N_21
REMARK    2  A    between atoms: C_6  and  C_7
REMARK    3  A    between atoms: C_7  and  S_8
REMARK    4  A    between atoms: S_8  and  N_11
REMARK    5  A    between atoms: N_14  and  S_17
REMARK    6  A    between atoms: S_17  and  N_20
REMARK                            x       y       z     vdW  Elec       q    Type
REMARK                         _______ _______ _______ _____ _____    ______ ____
ROOT
ATOM      1  S   UNL     1      -1.830  -1.073  -1.696  0.00  0.00    +0.036 S 
ATOM      2  O   UNL     1      -2.198   0.152  -2.316  0.00  0.00    -0.158 OA
ATOM      3  O   UNL     1      -0.937  -1.971  -2.340  0.00  0.00    -0.158 OA
ENDROOT
BRANCH   1   4
ATOM      4  N   UNL     1      -3.248  -1.917  -1.554  0.00  0.00    -0.178 NA
ATOM      5  C   UNL     1      -3.243  -3.385  -1.496  0.00  0.00    +0.126 C 
ATOM      6  C   UNL     1      -3.976  -3.828  -0.224  0.00  0.00    +0.127 C 
ATOM      7  N   UNL     1      -5.263  -3.122  -0.154  0.00  0.00    -0.164 NA
ATOM      8  C   UNL     1      -5.268  -1.653  -0.211  0.00  0.00    +0.127 C 
ATOM      9  C   UNL     1      -4.535  -1.210  -1.478  0.00  0.00    +0.126 C 
BRANCH   7  10
ATOM     10  S   UNL     1      -6.681  -3.966  -0.012  0.00  0.00    +0.095 S 
ATOM     11  O   UNL     1      -7.707  -3.123  -0.519  0.00  0.00    -0.141 OA
ATOM     12  O   UNL     1      -6.434  -5.265  -0.532  0.00  0.00    -0.141 OA
BRANCH  10  13
ATOM     13  N   UNL     1      -6.979  -4.153   1.606  0.00  0.00    -0.193 NA
ATOM     14  H   UNL     1      -6.361  -3.789   2.259  0.00  0.00    +0.145 HD
ATOM     15  H   UNL     1      -7.773  -4.626   1.901  0.00  0.00    +0.145 HD
ENDBRANCH  10  13
ENDBRANCH   7  10
ENDBRANCH   1   4
BRANCH   1  16
ATOM     16  C   UNL     1      -1.294  -0.774   0.011  0.00  0.00    +0.220 C 
BRANCH  16  22
ATOM     17  C   UNL     1      -0.017   1.379   0.010  0.00  0.00    +0.007 A 
ATOM     18  C   UNL     1       1.169   2.087   0.002  0.00  0.00    +0.023 A 
ATOM     19  C   UNL     1       2.381   1.409  -0.013  0.00  0.00    +0.025 A 
ATOM     20  C   UNL     1       2.396   0.020  -0.021  0.00  0.00    +0.023 A 
ATOM     21  C   UNL     1       1.207  -0.682  -0.013  0.00  0.00    +0.007 A 
ATOM     22  C   UNL     1       0.002  -0.004   0.002  0.00  0.00    -0.025 A 
BRANCH  19  23
ATOM     23  N   UNL     1       3.582   2.122  -0.021  0.00  0.00    -0.358 N 
ATOM     24  H   UNL     1       3.570   3.092  -0.016  0.00  0.00    +0.142 HD
ATOM     25  H   UNL     1       4.428   1.647  -0.032  0.00  0.00    +0.142 HD
ENDBRANCH  19  23
ENDBRANCH  16  22
ENDBRANCH   1  16
TORSDOF 6
