REMARK  Name = ZINC10055656
REMARK  10 active torsions:
REMARK  status: ('A' for Active; 'I' for Inactive)
REMARK    1  A    between atoms: C_1  and  C_2
REMARK    2  A    between atoms: N_10  and  C_14
REMARK    3  A    between atoms: C_14  and  C_15
REMARK    4  A    between atoms: C_15  and  O_17
REMARK    5  A    between atoms: O_17  and  C_18
REMARK    6  A    between atoms: C_18  and  C_19
REMARK    7  A    between atoms: N_21  and  C_22
REMARK    8  A    between atoms: N_21  and  C_26
REMARK    9  A    between atoms: C_22  and  C_23
REMARK   10  A    between atoms: C_23  and  C_24
REMARK                            x       y       z     vdW  Elec       q    Type
REMARK                         _______ _______ _______ _____ _____    ______ ____
ROOT
ATOM      1  C   UNL     1       0.028   1.228   0.613  0.00  0.00    +0.326 C 
ATOM      2  O   UNL     1       0.008   0.039   0.402  0.00  0.00    -0.249 OA
ENDROOT
BRANCH   1   3
ATOM      3  C   UNL     1      -1.252   1.958   0.928  0.00  0.00    +0.238 C 
BRANCH   3  13
ATOM      4  C   UNL     1      -7.261  -3.299   1.436  0.00  0.00    +0.007 C 
ATOM      5  C   UNL     1      -6.090  -2.458   1.946  0.00  0.00    -0.014 C 
ATOM      6  C   UNL     1      -4.821  -2.830   1.176  0.00  0.00    +0.006 C 
ATOM      7  C   UNL     1      -3.647  -1.997   1.696  0.00  0.00    +0.035 C 
ATOM      8  C   UNL     1      -3.954  -0.514   1.517  0.00  0.00    +0.113 C 
ATOM      9  C   UNL     1      -5.230  -0.133   2.259  0.00  0.00    +0.035 C 
ATOM     10  C   UNL     1      -6.398  -0.974   1.736  0.00  0.00    +0.006 C 
ATOM     11  C   UNL     1      -2.793   0.326   1.999  0.00  0.00    +0.247 C 
ATOM     12  O   UNL     1      -2.338   0.373   3.122  0.00  0.00    -0.273 OA
ATOM     13  N   UNL     1      -2.370   1.012   0.917  0.00  0.00    -0.213 N 
ATOM     14  C   UNL     1      -3.102   0.724  -0.166  0.00  0.00    +0.310 C 
ATOM     15  O   UNL     1      -2.916   1.220  -1.260  0.00  0.00    -0.252 OA
ATOM     16  N   UNL     1      -4.067  -0.180   0.091  0.00  0.00    -0.285 N 
ATOM     17  H   UNL     1      -4.712  -0.537  -0.539  0.00  0.00    +0.151 HD
ENDBRANCH   3  13
ENDBRANCH   1   3
BRANCH   1  18
ATOM     18  O   UNL     1       1.189   1.900   0.562  0.00  0.00    -0.454 OA
BRANCH  18  19
ATOM     19  C   UNL     1       2.381   1.133   0.247  0.00  0.00    +0.328 C 
BRANCH  19  20
ATOM     20  C   UNL     1       3.578   2.048   0.235  0.00  0.00    +0.258 C 
ATOM     21  O   UNL     1       3.440   3.230   0.468  0.00  0.00    -0.272 OA
ATOM     22  N   UNL     1       4.802   1.553  -0.035  0.00  0.00    -0.268 N 
BRANCH  22  23
ATOM     23  C   UNL     1       5.897   2.417  -0.147  0.00  0.00    +0.036 A 
ATOM     24  C   UNL     1       5.976   3.307  -1.209  0.00  0.00    +0.023 A 
ATOM     25  C   UNL     1       7.055   4.163  -1.313  0.00  0.00    +0.002 A 
ATOM     26  C   UNL     1       8.063   4.125  -0.367  0.00  0.00    +0.000 A 
ATOM     27  C   UNL     1       7.991   3.234   0.689  0.00  0.00    +0.002 A 
ATOM     28  C   UNL     1       6.911   2.381   0.801  0.00  0.00    +0.023 A 
ENDBRANCH  22  23
BRANCH  22  29
ATOM     29  C   UNL     1       4.986   0.110  -0.213  0.00  0.00    +0.128 C 
BRANCH  29  30
ATOM     30  C   UNL     1       4.795  -0.251  -1.687  0.00  0.00    +0.138 C 
BRANCH  30  31
ATOM     31  C   UNL     1       4.979  -1.700  -1.865  0.00  0.00    +0.064 C 
ATOM     32  N   UNL     1       5.122  -2.819  -2.003  0.00  0.00    -0.197 NA
ENDBRANCH  30  31
ENDBRANCH  29  30
ENDBRANCH  22  29
ENDBRANCH  19  20
ENDBRANCH  18  19
ENDBRANCH   1  18
TORSDOF 9
