REMARK  Name = ZINC32882074
REMARK  6 active torsions:
REMARK  status: ('A' for Active; 'I' for Inactive)
REMARK    1  A    between atoms: C_1  and  O_2
REMARK    2  A    between atoms: O_2  and  C_3
REMARK    3  A    between atoms: C_3  and  C_5
REMARK    4  A    between atoms: C_5  and  C_7
REMARK    5  A    between atoms: C_5  and  N_14
REMARK    6  A    between atoms: C_20  and  C_22
REMARK                            x       y       z     vdW  Elec       q    Type
REMARK                         _______ _______ _______ _____ _____    ______ ____
ROOT
ATOM      1  N   UNL     1       2.282  -0.282   2.837  0.00  0.00    +0.393 N 
ATOM      2  C   UNL     1       1.274  -1.339   3.001  0.00  0.00    -0.058 C 
ATOM      3  C   UNL     1      -0.027  -0.910   2.315  0.00  0.00    +0.089 C 
ATOM      4  N   UNL     1      -0.418   0.408   2.837  0.00  0.00    -0.300 N 
ATOM      5  C   UNL     1       0.585   1.484   2.833  0.00  0.00    +0.089 C 
ATOM      6  C   UNL     1       1.863   0.961   3.498  0.00  0.00    -0.058 C 
ATOM      7  C   UNL     1      -1.664   0.626   3.301  0.00  0.00    +0.267 C 
ATOM      8  O   UNL     1      -1.938   1.684   3.835  0.00  0.00    -0.268 OA
ATOM      9  H   UNL     1       2.376  -0.074   1.761  0.00  0.00    -0.080 HD
ENDROOT
BRANCH   7  10
ATOM     10  C   UNL     1      -2.697  -0.419   3.163  0.00  0.00    +0.153 A 
ATOM     11  C   UNL     1      -4.001  -0.271   3.830  0.00  0.00    +0.020 A 
ATOM     12  C   UNL     1      -4.331   0.838   4.601  0.00  0.00    +0.011 A 
ATOM     13  C   UNL     1      -5.576   0.907   5.190  0.00  0.00    +0.001 A 
ATOM     14  C   UNL     1      -6.501  -0.114   5.017  0.00  0.00    +0.001 A 
ATOM     15  C   UNL     1      -6.196  -1.220   4.253  0.00  0.00    +0.014 A 
ATOM     16  C   UNL     1      -4.945  -1.308   3.651  0.00  0.00    +0.050 A 
ATOM     17  C   UNL     1      -4.537  -2.451   2.821  0.00  0.00    +0.272 A 
ATOM     18  O   UNL     1      -5.297  -3.382   2.627  0.00  0.00    -0.266 OA
ATOM     19  N   UNL     1      -3.302  -2.443   2.280  0.00  0.00    -0.242 N 
ATOM     20  H   UNL     1      -2.970  -3.286   1.655  0.00  0.00    +0.192 HD
ATOM     21  N   UNL     1      -2.462  -1.493   2.449  0.00  0.00    -0.166 NA
ENDBRANCH   7  10
BRANCH   1  22
ATOM     22  C   UNL     1       3.593  -0.724   3.330  0.00  0.00    +0.075 C 
BRANCH  22  23
ATOM     23  C   UNL     1       4.076  -1.886   2.501  0.00  0.00    -0.032 A 
ATOM     24  C   UNL     1       3.622  -2.046   1.205  0.00  0.00    +0.004 A 
ATOM     25  C   UNL     1       4.068  -3.109   0.443  0.00  0.00    +0.000 A 
ATOM     26  C   UNL     1       4.962  -4.018   0.978  0.00  0.00    +0.001 A 
ATOM     27  C   UNL     1       5.413  -3.861   2.275  0.00  0.00    +0.020 A 
ATOM     28  C   UNL     1       4.971  -2.795   3.037  0.00  0.00    +0.043 A 
ATOM     29 CL   UNL     1       5.536  -2.597   4.667  0.00  0.00    -0.083 Cl
ENDBRANCH  22  23
BRANCH  22  30
ATOM     30  C   UNL     1       4.578   0.412   3.226  0.00  0.00    +0.297 C 
ATOM     31  O   UNL     1       4.446   1.248   2.364  0.00  0.00    -0.252 OA
BRANCH  30  33
ATOM     32  C   UNL     1       6.511   1.615   3.930  0.00  0.00    +0.280 C 
ATOM     33  O   UNL     1       5.602   0.494   4.090  0.00  0.00    -0.469 OA
ENDBRANCH  30  33
ENDBRANCH  22  30
ENDBRANCH   1  22
TORSDOF 5
