REMARK  Name = ZINC50252071
REMARK  8 active torsions:
REMARK  status: ('A' for Active; 'I' for Inactive)
REMARK    1  A    between atoms: C_1  and  C_2
REMARK    2  A    between atoms: C_4  and  S_8
REMARK    3  A    between atoms: N_6  and  C_7
REMARK    4  A    between atoms: S_8  and  N_11
REMARK    5  A    between atoms: N_11  and  C_12
REMARK    6  A    between atoms: C_12  and  C_19
REMARK    7  A    between atoms: C_15  and  C_18
REMARK    8  A    between atoms: C_19  and  N_20
REMARK                            x       y       z     vdW  Elec       q    Type
REMARK                         _______ _______ _______ _____ _____    ______ ____
ROOT
ATOM      1  N   UNL     1      -0.649  -3.034  -2.927  0.00  0.00    -0.184 NA
ATOM      2  H   UNL     1      -0.449  -3.004  -1.978  0.00  0.00    +0.149 HD
ENDROOT
BRANCH   1   3
ATOM      3  C   UNL     1      -0.181  -1.960  -3.808  0.00  0.00    +0.025 C 
ATOM      4  C   UNL     1       0.046  -0.689  -2.987  0.00  0.00    +0.022 C 
ATOM      5  C   UNL     1      -1.268  -0.269  -2.324  0.00  0.00    +0.005 C 
ATOM      6  C   UNL     1      -2.320   0.001  -3.401  0.00  0.00    -0.014 C 
ATOM      7  C   UNL     1      -2.547  -1.271  -4.222  0.00  0.00    +0.005 C 
ATOM      8  C   UNL     1      -1.234  -1.691  -4.886  0.00  0.00    +0.022 C 
ATOM      9  C   UNL     1      -3.633   0.421  -2.738  0.00  0.00    +0.007 C 
BRANCH   3  10
ATOM     10  C   UNL     1       1.132  -2.381  -4.471  0.00  0.00    -0.062 C 
BRANCH  10  11
ATOM     11  N   UNL     1       2.092  -2.793  -3.439  0.00  0.00    +0.379 N 
ATOM     12  H   UNL     1       2.982  -2.997  -3.869  0.00  0.00    -0.090 HD
ATOM     13  H   UNL     1       2.205  -2.048  -2.768  0.00  0.00    -0.090 HD
ATOM     14  H   UNL     1       1.748  -3.619  -2.971  0.00  0.00    -0.090 HD
ENDBRANCH  10  11
ENDBRANCH   3  10
ENDBRANCH   1   3
BRANCH   1  15
ATOM     15  S   UNL     1      -1.518  -4.297  -3.551  0.00  0.00    +0.077 S 
ATOM     16  O   UNL     1      -2.300  -3.768  -4.612  0.00  0.00    -0.152 OA
ATOM     17  O   UNL     1      -2.096  -4.978  -2.445  0.00  0.00    -0.152 OA
BRANCH  15  21
ATOM     18  C   UNL     1       2.743  -6.210  -5.953  0.00  0.00    +0.086 C 
ATOM     19  C   UNL     1       1.400  -6.159  -5.271  0.00  0.00    +0.109 A 
ATOM     20  N   UNL     1       0.813  -5.081  -4.829  0.00  0.00    -0.213 NA
ATOM     21  C   UNL     1      -0.366  -5.412  -4.282  0.00  0.00    +0.211 A 
ATOM     22  C   UNL     1      -0.515  -6.746  -4.389  0.00  0.00    +0.135 A 
ATOM     23  N   UNL     1       0.603  -7.220  -5.021  0.00  0.00    -0.336 N 
ATOM     24  C   UNL     1       0.884  -8.617  -5.361  0.00  0.00    +0.150 C 
ENDBRANCH  15  21
ENDBRANCH   1  15
TORSDOF 5
