REMARK  Name = ZINC57315940
REMARK  4 active torsions:
REMARK  status: ('A' for Active; 'I' for Inactive)
REMARK    1  A    between atoms: C_1  and  C_2
REMARK    2  A    between atoms: N_11  and  C_12
REMARK    3  A    between atoms: C_12  and  N_14
REMARK    4  A    between atoms: C_15  and  C_17
REMARK                            x       y       z     vdW  Elec       q    Type
REMARK                         _______ _______ _______ _____ _____    ______ ____
ROOT
ATOM      1  C   UNL     1       0.056  -7.045   0.763  0.00  0.00    +0.163 C 
ATOM      2  S   UNL     1       0.074  -6.685  -0.911  0.00  0.00    -0.016 S 
ENDROOT
BRANCH   1  13
ATOM      3  C   UNL     1      -5.663  -0.928   2.304  0.00  0.00    +0.044 C 
ATOM      4  C   UNL     1      -4.718  -2.037   1.921  0.00  0.00    -0.049 A 
ATOM      5  C   UNL     1      -4.999  -2.856   0.840  0.00  0.00    +0.005 A 
ATOM      6  C   UNL     1      -4.149  -3.872   0.475  0.00  0.00    +0.027 A 
ATOM      7  C   UNL     1      -2.963  -4.113   1.191  0.00  0.00    +0.055 A 
ATOM      8  C   UNL     1      -2.707  -3.267   2.279  0.00  0.00    +0.039 A 
ATOM      9  C   UNL     1      -3.555  -2.247   2.640  0.00  0.00    +0.020 A 
ATOM     10  S   UNL     1      -1.160  -3.869   2.912  0.00  0.00    -0.052 S 
ATOM     11  C   UNL     1      -0.911  -5.191   1.740  0.00  0.00    +0.163 A 
ATOM     12  N   UNL     1      -2.015  -5.091   0.946  0.00  0.00    -0.335 N 
ATOM     13  N   UNL     1       0.094  -6.054   1.660  0.00  0.00    -0.169 NA
ATOM     14  H   UNL     1      -2.137  -5.707   0.207  0.00  0.00    +0.168 HD
ENDBRANCH   1  13
BRANCH   1  15
ATOM     15  N   UNL     1       0.002  -8.327   1.176  0.00  0.00    -0.262 N 
ATOM     16  C   UNL     1      -0.037  -9.325   0.272  0.00  0.00    +0.250 C 
ATOM     17  O   UNL     1      -0.024  -9.070  -0.917  0.00  0.00    -0.270 OA
ATOM     18  H   UNL     1      -0.009  -8.531   2.124  0.00  0.00    +0.157 HD
BRANCH  16  19
ATOM     19  C   UNL     1      -0.096 -10.729   0.724  0.00  0.00    +0.039 A 
ATOM     20  C   UNL     1      -0.117 -11.013   2.103  0.00  0.00    +0.015 A 
ATOM     21  C   UNL     1      -0.170 -12.282   2.558  0.00  0.00    +0.031 A 
ATOM     22  C   UNL     1      -0.207 -13.375   1.647  0.00  0.00    +0.100 A 
ATOM     23  C   UNL     1      -0.186 -13.094   0.215  0.00  0.00    +0.101 A 
ATOM     24  C   UNL     1      -0.136 -11.743  -0.210  0.00  0.00    +0.043 A 
ATOM     25  N   UNL     1      -0.224 -14.197  -0.536  0.00  0.00    -0.191 NA
ATOM     26  S   UNL     1      -0.279 -15.426   0.501  0.00  0.00    +0.116 S 
ATOM     27  N   UNL     1      -0.259 -14.678   1.924  0.00  0.00    -0.191 NA
ENDBRANCH  16  19
ENDBRANCH   1  15
TORSDOF 3
