REMARK  Name = ZINC32862360
REMARK  10 active torsions:
REMARK  status: ('A' for Active; 'I' for Inactive)
REMARK    1  A    between atoms: C_1  and  O_2
REMARK    2  A    between atoms: O_2  and  C_3
REMARK    3  A    between atoms: C_3  and  C_4
REMARK    4  A    between atoms: C_4  and  C_5
REMARK    5  A    between atoms: C_5  and  N_6
REMARK    6  A    between atoms: C_12  and  S_13
REMARK    7  A    between atoms: S_13  and  C_14
REMARK    8  A    between atoms: C_14  and  C_15
REMARK    9  A    between atoms: C_18  and  C_28
REMARK   10  A    between atoms: C_21  and  C_23
REMARK                            x       y       z     vdW  Elec       q    Type
REMARK                         _______ _______ _______ _____ _____    ______ ____
ROOT
ATOM      1  C   UNL     1      -3.318  -5.646  -4.649  0.00  0.00    +0.246 C 
ATOM      2  O   UNL     1      -3.598  -4.492  -4.896  0.00  0.00    -0.273 OA
ATOM      3  N   UNL     1      -4.144  -6.638  -5.039  0.00  0.00    -0.184 N 
ATOM      4  C   UNL     1      -5.407  -6.461  -5.773  0.00  0.00    +0.144 C 
ATOM      5  C   UNL     1      -5.927  -7.901  -5.953  0.00  0.00    +0.090 C 
ATOM      6  C   UNL     1      -4.874  -8.755  -5.284  0.00  0.00    +0.104 C 
ATOM      7  N   UNL     1      -3.938  -7.998  -4.818  0.00  0.00    -0.178 NA
ENDROOT
BRANCH   6   8
ATOM      8  C   UNL     1      -4.909 -10.217  -5.184  0.00  0.00    +0.150 A 
ATOM      9  C   UNL     1      -3.970 -11.002  -4.579  0.00  0.00    +0.051 A 
ATOM     10  C   UNL     1      -4.404 -12.333  -4.721  0.00  0.00    +0.042 A 
ATOM     11  C   UNL     1      -5.571 -12.300  -5.396  0.00  0.00    +0.196 A 
ATOM     12  O   UNL     1      -5.876 -11.021  -5.669  0.00  0.00    -0.462 OA
ENDBRANCH   6   8
BRANCH   4  13
ATOM     13  C   UNL     1      -5.156  -5.813  -7.111  0.00  0.00    +0.013 A 
ATOM     14  C   UNL     1      -5.893  -4.878  -7.758  0.00  0.00    +0.013 A 
ATOM     15  C   UNL     1      -5.465  -4.422  -8.991  0.00  0.00    +0.008 A 
ATOM     16  C   UNL     1      -4.321  -4.925  -9.517  0.00  0.00    +0.045 A 
ATOM     17  S   UNL     1      -3.807  -6.074  -8.251  0.00  0.00    -0.100 S 
ENDBRANCH   4  13
BRANCH   1  18
ATOM     18  C   UNL     1      -2.049  -5.972  -3.906  0.00  0.00    +0.175 C 
BRANCH  18  19
ATOM     19  S   UNL     1      -1.161  -4.436  -3.523  0.00  0.00    -0.077 S 
BRANCH  19  26
ATOM     20  N   UNL     1       1.272  -4.165  -2.169  0.00  0.00    -0.271 N 
ATOM     21  C   UNL     1       2.200  -4.941  -1.576  0.00  0.00    +0.345 A 
ATOM     22  O   UNL     1       3.216  -4.556  -1.024  0.00  0.00    -0.245 OA
ATOM     23  N   UNL     1       1.801  -6.224  -1.705  0.00  0.00    -0.226 N 
ATOM     24  H   UNL     1       2.269  -7.007  -1.376  0.00  0.00    +0.194 HD
ATOM     25  N   UNL     1       0.585  -6.216  -2.402  0.00  0.00    -0.145 NA
ATOM     26  C   UNL     1       0.280  -4.979  -2.667  0.00  0.00    +0.192 A 
BRANCH  20  27
ATOM     27  C   UNL     1       1.309  -2.703  -2.261  0.00  0.00    +0.131 C 
BRANCH  27  28
ATOM     28  C   UNL     1       0.613  -2.097  -1.041  0.00  0.00    +0.050 C 
BRANCH  28  29
ATOM     29  C   UNL     1       0.652  -0.570  -1.138  0.00  0.00    +0.161 C 
BRANCH  29  31
ATOM     30  C   UNL     1      -0.017   1.425   0.010  0.00  0.00    +0.193 C 
ATOM     31  O   UNL     1       0.002  -0.004   0.002  0.00  0.00    -0.383 OA
ENDBRANCH  29  31
ENDBRANCH  28  29
ENDBRANCH  27  28
ENDBRANCH  20  27
ENDBRANCH  19  26
ENDBRANCH  18  19
ENDBRANCH   1  18
TORSDOF 9
