REMARK  Name = ZINC22834810
REMARK  6 active torsions:
REMARK  status: ('A' for Active; 'I' for Inactive)
REMARK    1  A    between atoms: C_1  and  C_2
REMARK    2  A    between atoms: C_9  and  C_16
REMARK    3  A    between atoms: C_11  and  O_12
REMARK    4  A    between atoms: C_16  and  S_17
REMARK    5  A    between atoms: S_17  and  C_18
REMARK    6  A    between atoms: C_21  and  C_24
REMARK                            x       y       z     vdW  Elec       q    Type
REMARK                         _______ _______ _______ _____ _____    ______ ____
ROOT
ATOM      1  C   UNL     1      -0.617   1.507  -2.165  0.00  0.00    +0.109 C 
ATOM      2  C   UNL     1      -0.606  -0.000  -2.168  0.00  0.00    +0.214 C 
ATOM      3  O   UNL     1      -1.141  -0.609  -3.070  0.00  0.00    -0.276 OA
ATOM      4  N   UNL     1       0.000  -0.672  -1.169  0.00  0.00    -0.286 N 
ATOM      5  C   UNL     1      -0.071  -2.064  -1.121  0.00  0.00    +0.037 A 
ATOM      6  C   UNL     1      -0.140  -2.712   0.113  0.00  0.00    +0.024 A 
ATOM      7  C   UNL     1      -0.216  -4.072   0.175  0.00  0.00    +0.013 A 
ATOM      8  C   UNL     1      -0.211  -4.825  -1.005  0.00  0.00    +0.022 A 
ATOM      9  C   UNL     1      -0.286  -6.287  -0.967  0.00  0.00    -0.020 A 
ATOM     10  C   UNL     1      -0.279  -6.961  -2.147  0.00  0.00    +0.092 A 
ATOM     11  C   UNL     1      -0.200  -6.248  -3.361  0.00  0.00    +0.285 A 
ATOM     12  O   UNL     1      -0.132  -4.908  -3.389  0.00  0.00    -0.425 OA
ATOM     13  C   UNL     1      -0.136  -4.178  -2.253  0.00  0.00    +0.141 A 
ATOM     14  C   UNL     1      -0.065  -2.794  -2.300  0.00  0.00    +0.070 A 
ATOM     15  H   UNL     1       0.550  -0.122  -0.391  0.00  0.00    +0.155 HD
ENDROOT
BRANCH  11  16
ATOM     16  O   UNL     1      -0.194  -6.865  -4.412  0.00  0.00    -0.480 OA
ATOM     17  H   UNL     1      -0.133  -6.323  -5.367  0.00  0.00    +0.295 HD
ENDBRANCH  11  16
BRANCH   9  18
ATOM     18  C   UNL     1      -0.369  -7.024   0.344  0.00  0.00    +0.113 C 
BRANCH  18  19
ATOM     19  S   UNL     1       1.302  -7.404   0.929  0.00  0.00    -0.082 S 
BRANCH  19  20
ATOM     20  C   UNL     1       0.917  -8.239   2.432  0.00  0.00    +0.185 A 
ATOM     21  N   UNL     1       1.813  -8.771   3.316  0.00  0.00    -0.201 NA
ATOM     22  H   UNL     1      -1.271  -8.203   2.501  0.00  0.00    +0.191 HD
ATOM     23  C   UNL     1       1.057  -9.313   4.329  0.00  0.00    +0.185 A 
ATOM     24  N   UNL     1      -0.203  -9.095   4.030  0.00  0.00    -0.151 NA
ATOM     25  N   UNL     1      -0.285  -8.467   2.912  0.00  0.00    -0.253 N 
BRANCH  23  26
ATOM     26  C   UNL     1       1.567 -10.010   5.529  0.00  0.00    +0.056 A 
ATOM     27  C   UNL     1       0.676 -10.522   6.474  0.00  0.00    +0.014 A 
ATOM     28  C   UNL     1       1.158 -11.171   7.592  0.00  0.00    +0.001 A 
ATOM     29  C   UNL     1       2.521 -11.316   7.778  0.00  0.00    +0.003 A 
ATOM     30  C   UNL     1       3.411 -10.812   6.848  0.00  0.00    +0.039 A 
ATOM     31  C   UNL     1       2.942 -10.164   5.720  0.00  0.00    +0.134 A 
ATOM     32  F   UNL     1       3.812  -9.677   4.808  0.00  0.00    -0.205 F 
ENDBRANCH  23  26
ENDBRANCH  19  20
ENDBRANCH  18  19
ENDBRANCH   9  18
TORSDOF 5
