REMARK  Name = ZINC09366053
REMARK  7 active torsions:
REMARK  status: ('A' for Active; 'I' for Inactive)
REMARK    1  A    between atoms: C_1  and  C_2
REMARK    2  A    between atoms: C_3  and  N_9
REMARK    3  A    between atoms: C_4  and  C_8
REMARK    4  A    between atoms: N_5  and  C_7
REMARK    5  A    between atoms: N_9  and  C_10
REMARK    6  A    between atoms: C_18  and  O_21
REMARK    7  A    between atoms: O_21  and  C_22
REMARK                            x       y       z     vdW  Elec       q    Type
REMARK                         _______ _______ _______ _____ _____    ______ ____
ROOT
ATOM      1  C   UNL     1       7.032   7.080   1.837  0.00  0.00    +0.035 A 
ATOM      2  C   UNL     1       6.729   7.694   3.054  0.00  0.00    +0.024 A 
ATOM      3  C   UNL     1       6.345   6.945   4.128  0.00  0.00    +0.017 A 
ATOM      4  C   UNL     1       6.253   5.557   4.008  0.00  0.00    +0.068 A 
ATOM      5  C   UNL     1       6.556   4.928   2.786  0.00  0.00    +0.140 A 
ATOM      6  C   UNL     1       6.946   5.702   1.703  0.00  0.00    +0.070 A 
ATOM      7  O   UNL     1       6.464   3.587   2.683  0.00  0.00    -0.459 OA
ATOM      8  C   UNL     1       6.095   2.811   3.711  0.00  0.00    +0.245 A 
ATOM      9  C   UNL     1       5.778   3.309   4.922  0.00  0.00    +0.210 A 
ATOM     10  C   UNL     1       5.841   4.715   5.143  0.00  0.00    +0.234 A 
ATOM     11  O   UNL     1       5.565   5.201   6.227  0.00  0.00    -0.283 OA
ENDROOT
BRANCH   1  12
ATOM     12  N   UNL     1       7.424   7.856   0.751  0.00  0.00    -0.312 N 
ATOM     13  H   UNL     1       7.593   7.438  -0.108  0.00  0.00    +0.152 HD
BRANCH  12  16
ATOM     14  C   UNL     1       5.234   9.954   0.043  0.00  0.00    +0.069 C 
ATOM     15  C   UNL     1       6.613  10.220   0.591  0.00  0.00    +0.081 A 
ATOM     16  C   UNL     1       7.575   9.247   0.898  0.00  0.00    +0.075 A 
ATOM     17  C   UNL     1       8.681   9.887   1.358  0.00  0.00    +0.057 A 
ATOM     18  N   UNL     1       8.418  11.220   1.345  0.00  0.00    -0.270 N 
ATOM     19  N   UNL     1       7.115  11.397   0.863  0.00  0.00    -0.175 NA
ATOM     20  C   UNL     1       9.336  12.284   1.760  0.00  0.00    +0.172 C 
ATOM     21  C   UNL     1       9.966   9.236   1.802  0.00  0.00    +0.067 C 
ENDBRANCH  12  16
ENDBRANCH   1  12
BRANCH   9  22
ATOM     22  O   UNL     1       5.405   2.474   5.930  0.00  0.00    -0.449 OA
BRANCH  22  23
ATOM     23  C   UNL     1       5.252   1.155   5.641  0.00  0.00    +0.129 A 
ATOM     24  C   UNL     1       6.237   0.246   6.001  0.00  0.00    +0.048 A 
ATOM     25  C   UNL     1       6.078  -1.095   5.707  0.00  0.00    +0.023 A 
ATOM     26  C   UNL     1       4.939  -1.531   5.054  0.00  0.00    +0.041 A 
ATOM     27  C   UNL     1       3.956  -0.626   4.695  0.00  0.00    +0.023 A 
ATOM     28  C   UNL     1       4.110   0.715   4.987  0.00  0.00    +0.048 A 
ATOM     29 CL   UNL     1       4.743  -3.216   4.685  0.00  0.00    -0.084 Cl
ENDBRANCH  22  23
ENDBRANCH   9  22
TORSDOF 4
