REMARK  Name = ZINC06667965
REMARK  8 active torsions:
REMARK  status: ('A' for Active; 'I' for Inactive)
REMARK    1  A    between atoms: C_1  and  C_2
REMARK    2  A    between atoms: C_2  and  O_3
REMARK    3  A    between atoms: O_3  and  C_4
REMARK    4  A    between atoms: C_4  and  C_6
REMARK    5  A    between atoms: C_8  and  C_21
REMARK    6  A    between atoms: C_15  and  O_16
REMARK    7  A    between atoms: C_18  and  C_19
REMARK    8  A    between atoms: C_18  and  O_20
REMARK                            x       y       z     vdW  Elec       q    Type
REMARK                         _______ _______ _______ _____ _____    ______ ____
ROOT
ATOM      1  C   UNL     1      -1.020  -0.783   0.229  0.00  0.00    +0.141 C 
ATOM      2  C   UNL     1      -0.995  -2.273  -0.133  0.00  0.00    +0.072 C 
ATOM      3  C   UNL     1      -0.500  -3.041   1.068  0.00  0.00    +0.044 A 
ATOM      4  C   UNL     1      -0.455  -2.510   2.367  0.00  0.00    +0.046 A 
ATOM      5  N   UNL     1       0.021  -3.422   3.164  0.00  0.00    -0.278 N 
ATOM      6  N   UNL     1       0.296  -4.569   2.406  0.00  0.00    -0.136 NA
ATOM      7  H   UNL     1       0.166  -3.321   4.149  0.00  0.00    +0.189 HD
ATOM      8  C   UNL     1      -0.034  -4.309   1.119  0.00  0.00    +0.235 A 
ATOM      9  C   UNL     1      -0.905  -1.111   2.711  0.00  0.00    +0.090 C 
ATOM     10  C   UNL     1      -1.762  -0.585   1.552  0.00  0.00    +0.082 C 
ATOM     11  C   UNL     1      -3.087  -1.349   1.512  0.00  0.00    +0.042 C 
ENDROOT
BRANCH   2  12
ATOM     12  C   UNL     1      -0.067  -2.498  -1.298  0.00  0.00    -0.039 A 
ATOM     13  C   UNL     1      -0.580  -2.622  -2.576  0.00  0.00    +0.006 A 
ATOM     14  C   UNL     1       0.272  -2.822  -3.647  0.00  0.00    +0.020 A 
ATOM     15  C   UNL     1       1.637  -2.911  -3.437  0.00  0.00    +0.041 A 
ATOM     16  C   UNL     1       2.149  -2.793  -2.157  0.00  0.00    +0.020 A 
ATOM     17  C   UNL     1       1.297  -2.587  -1.089  0.00  0.00    +0.006 A 
ATOM     18 CL   UNL     1       2.706  -3.171  -4.780  0.00  0.00    -0.084 Cl
ENDBRANCH   2  12
BRANCH   1  19
ATOM     19  C   UNL     1       0.393  -0.276   0.366  0.00  0.00    +0.314 C 
ATOM     20  O   UNL     1       1.163  -0.830   1.114  0.00  0.00    -0.250 OA
BRANCH  19  21
ATOM     21  O   UNL     1       0.795   0.790  -0.344  0.00  0.00    -0.465 OA
BRANCH  21  23
ATOM     22  C   UNL     1       2.442   2.441  -1.046  0.00  0.00    +0.048 C 
ATOM     23  C   UNL     1       2.169   1.222  -0.162  0.00  0.00    +0.229 C 
ENDBRANCH  21  23
ENDBRANCH  19  21
ENDBRANCH   1  19
BRANCH   8  24
ATOM     24  O   UNL     1       0.082  -5.165   0.071  0.00  0.00    -0.491 OA
ATOM     25  H   UNL     1       0.455  -6.035   0.392  0.00  0.00    +0.294 HD
ENDBRANCH   8  24
BRANCH  10  26
ATOM     26  O   UNL     1      -2.023   0.806   1.748  0.00  0.00    -0.388 OA
ATOM     27  H   UNL     1      -2.493   1.007   2.569  0.00  0.00    +0.210 HD
ENDBRANCH  10  26
TORSDOF 6
