REMARK  Name = ZINC63407854
REMARK  6 active torsions:
REMARK  status: ('A' for Active; 'I' for Inactive)
REMARK    1  A    between atoms: C_3  and  C_10
REMARK    2  A    between atoms: C_5  and  N_7
REMARK    3  A    between atoms: N_12  and  N_13
REMARK    4  A    between atoms: N_16  and  C_17
REMARK    5  A    between atoms: N_20  and  C_23
REMARK    6  A    between atoms: C_23  and  C_24
REMARK                            x       y       z     vdW  Elec       q    Type
REMARK                         _______ _______ _______ _____ _____    ______ ____
ROOT
ATOM      1  N   UNL     1       5.345   4.399   0.109  0.00  0.00    -0.218 N 
ATOM      2  C   UNL     1       5.247   5.743   0.114  0.00  0.00    +0.316 C 
ATOM      3  O   UNL     1       6.252   6.426   0.156  0.00  0.00    -0.251 OA
ATOM      4  N   UNL     1       4.034   6.330   0.072  0.00  0.00    -0.296 N 
ATOM      5  H   UNL     1       6.218   3.977   0.139  0.00  0.00    +0.174 HD
ATOM      6  H   UNL     1       3.232   5.785   0.038  0.00  0.00    +0.151 HD
ENDROOT
BRANCH   4   7
ATOM      7  C   UNL     1       3.927   7.791   0.077  0.00  0.00    +0.071 C 
ATOM      8  C   UNL     1       3.951   8.301   1.521  0.00  0.00    +0.004 C 
ATOM      9  C   UNL     1       3.758   9.819   1.523  0.00  0.00    -0.077 C 
ATOM     10  N   UNL     1       2.469  10.153   0.906  0.00  0.00    +0.380 N 
ATOM     11  C   UNL     1       2.466   9.731  -0.500  0.00  0.00    -0.077 C 
ATOM     12  C   UNL     1       2.608   8.210  -0.580  0.00  0.00    +0.004 C 
ATOM     13  H   UNL     1       1.728   9.680   1.400  0.00  0.00    -0.082 HD
BRANCH  10  14
ATOM     14  C   UNL     1       2.254  11.605   0.980  0.00  0.00    -0.075 C 
BRANCH  14  15
ATOM     15  C   UNL     1       2.095  12.022   2.443  0.00  0.00    -0.028 C 
ATOM     16  C   UNL     1       0.792  11.432   3.022  0.00  0.00    +0.002 C 
ATOM     17  C   UNL     1       0.256  12.543   3.959  0.00  0.00    +0.000 C 
ATOM     18  C   UNL     1       0.591  13.839   3.180  0.00  0.00    +0.000 C 
ATOM     19  C   UNL     1       1.967  13.552   2.544  0.00  0.00    +0.002 C 
ENDBRANCH  14  15
ENDBRANCH  10  14
ENDBRANCH   4   7
BRANCH   1  22
ATOM     20  C   UNL     1       4.286   2.267   0.056  0.00  0.00    +0.260 C 
ATOM     21  O   UNL     1       5.380   1.738   0.093  0.00  0.00    -0.269 OA
ATOM     22  N   UNL     1       4.188   3.612   0.060  0.00  0.00    -0.229 N 
ATOM     23  H   UNL     1       3.315   4.034   0.030  0.00  0.00    +0.173 HD
BRANCH  20  26
ATOM     24  C   UNL     1       0.671   1.260  -0.087  0.00  0.00    +0.003 A 
ATOM     25  C   UNL     1       1.807   2.041  -0.039  0.00  0.00    +0.013 A 
ATOM     26  C   UNL     1       3.064   1.437   0.004  0.00  0.00    +0.040 A 
ATOM     27  C   UNL     1       3.163   0.044  -0.001  0.00  0.00    +0.045 A 
ATOM     28  C   UNL     1       2.019  -0.725  -0.050  0.00  0.00    +0.127 A 
ATOM     29  C   UNL     1       0.776  -0.119  -0.093  0.00  0.00    +0.033 A 
BRANCH  28  30
ATOM     30  N   UNL     1       2.122  -2.202  -0.056  0.00  0.00    +0.056 N 
ATOM     31  O   UNL     1       3.208  -2.732  -0.019  0.00  0.00    -0.126 OA
ATOM     32  O   UNL     1       1.121  -2.877  -0.099  0.00  0.00    -0.126 OA
ENDBRANCH  28  30
ENDBRANCH  20  26
ENDBRANCH   1  22
TORSDOF 6
