REMARK  Name = ZINC63791338
REMARK  7 active torsions:
REMARK  status: ('A' for Active; 'I' for Inactive)
REMARK    1  A    between atoms: C_1  and  N_2
REMARK    2  A    between atoms: C_11  and  C_14
REMARK    3  A    between atoms: N_16  and  N_17
REMARK    4  A    between atoms: C_18  and  C_20
REMARK    5  A    between atoms: C_20  and  C_21
REMARK    6  A    between atoms: C_21  and  C_22
REMARK    7  A    between atoms: C_22  and  C_23
REMARK                            x       y       z     vdW  Elec       q    Type
REMARK                         _______ _______ _______ _____ _____    ______ ____
ROOT
ATOM      1  C   UNL     1       0.697  -2.612   2.471  0.00  0.00    +0.252 C 
ATOM      2  O   UNL     1      -0.320  -2.464   3.115  0.00  0.00    -0.272 OA
ATOM      3  N   UNL     1       1.647  -3.467   2.901  0.00  0.00    -0.233 N 
ATOM      4  H   UNL     1       2.461  -3.586   2.386  0.00  0.00    +0.173 HD
ENDROOT
BRANCH   1  15
ATOM      5  C   UNL     1      -0.018   1.461   0.010  0.00  0.00    +0.153 C 
ATOM      6  N   UNL     1       0.002  -0.004   0.002  0.00  0.00    -0.235 N 
ATOM      7  C   UNL     1       0.005  -0.655  -1.181  0.00  0.00    +0.260 C 
ATOM      8  O   UNL     1      -0.095  -0.047  -2.229  0.00  0.00    -0.269 OA
ATOM      9  C   UNL     1       0.135  -2.129  -1.165  0.00  0.00    +0.043 A 
ATOM     10  C   UNL     1      -0.170  -2.910  -2.273  0.00  0.00    +0.013 A 
ATOM     11  C   UNL     1      -0.029  -4.283  -2.194  0.00  0.00    +0.001 A 
ATOM     12  C   UNL     1       0.411  -4.872  -1.022  0.00  0.00    +0.000 A 
ATOM     13  C   UNL     1       0.717  -4.096   0.084  0.00  0.00    +0.006 A 
ATOM     14  C   UNL     1       0.580  -2.729   0.018  0.00  0.00    -0.008 A 
ATOM     15  C   UNL     1       0.899  -1.842   1.192  0.00  0.00    +0.191 C 
ATOM     16  N   UNL     1       0.022  -0.672   1.185  0.00  0.00    -0.222 NA
ATOM     17  H   UNL     1      -0.911  -0.922   1.475  0.00  0.00    +0.146 HD
ENDBRANCH   1  15
BRANCH   3  18
ATOM     18  N   UNL     1       1.459  -4.183   4.090  0.00  0.00    -0.234 N 
ATOM     19  C   UNL     1       2.409  -5.037   4.519  0.00  0.00    +0.229 C 
ATOM     20  O   UNL     1       3.426  -5.186   3.876  0.00  0.00    -0.274 OA
ATOM     21  H   UNL     1       0.645  -4.064   4.604  0.00  0.00    +0.173 HD
BRANCH  19  22
ATOM     22  C   UNL     1       2.207  -5.808   5.799  0.00  0.00    +0.097 C 
BRANCH  22  23
ATOM     23  C   UNL     1       3.424  -6.699   6.055  0.00  0.00    +0.014 C 
BRANCH  23  24
ATOM     24  C   UNL     1       3.219  -7.481   7.354  0.00  0.00    +0.033 C 
BRANCH  24  25
ATOM     25  C   UNL     1       4.417  -8.359   7.607  0.00  0.00    -0.042 C 
ATOM     26  C   UNL     1       5.488  -8.069   8.380  0.00  0.00    -0.001 A 
ATOM     27  C   UNL     1       5.845  -6.895   9.186  0.00  0.00    +0.010 A 
ATOM     28  C   UNL     1       7.013  -6.897   9.867  0.00  0.00    +0.001 A 
ATOM     29  C   UNL     1       7.890  -7.990   9.823  0.00  0.00    +0.002 A 
ATOM     30  C   UNL     1       7.633  -9.103   9.105  0.00  0.00    +0.026 A 
ATOM     31  C   UNL     1       6.432  -9.210   8.350  0.00  0.00    +0.043 A 
ATOM     32  N   UNL     1       5.962 -10.167   7.587  0.00  0.00    -0.380 N 
ATOM     33  C   UNL     1       4.663  -9.744   7.052  0.00  0.00    +0.144 C 
ATOM     34  H   UNL     1       6.399 -11.015   7.410  0.00  0.00    +0.160 HD
ENDBRANCH  24  25
ENDBRANCH  23  24
ENDBRANCH  22  23
ENDBRANCH  19  22
ENDBRANCH   3  18
TORSDOF 6
