REMARK  Name = ZINC02583009
REMARK  9 active torsions:
REMARK  status: ('A' for Active; 'I' for Inactive)
REMARK    1  A    between atoms: C_1  and  C_2
REMARK    2  A    between atoms: C_5  and  C_9
REMARK    3  A    between atoms: C_6  and  O_8
REMARK    4  A    between atoms: C_9  and  CA_10
REMARK    5  A    between atoms: CA_10  and  C_12
REMARK    6  A    between atoms: CA_10  and  N_15
REMARK    7  A    between atoms: C_16  and  O_18
REMARK    8  A    between atoms: O_18  and  C_19
REMARK    9  A    between atoms: C_19  and  C_20
REMARK                            x       y       z     vdW  Elec       q    Type
REMARK                         _______ _______ _______ _____ _____    ______ ____
ROOT
ATOM      1  N   UNL     1      -1.913  -4.439   1.405  0.00  0.00    -0.267 N 
ATOM      2  C   UNL     1      -3.246  -4.330   1.577  0.00  0.00    +0.401 C 
ATOM      3  O   UNL     1      -3.997  -4.540   0.645  0.00  0.00    -0.226 OA
ATOM      4  H   UNL     1      -1.313  -4.272   2.149  0.00  0.00    +0.153 HD
ENDROOT
BRANCH   1   5
ATOM      5  CA  UNL     1      -1.371  -4.808   0.095  0.00  0.00    +0.193 C 
BRANCH   5   6
ATOM      6  C   UNL     1      -1.365  -6.309  -0.041  0.00  0.00    +0.376 C 
ATOM      7  O   UNL     1      -1.600  -7.010   0.929  0.00  0.00    -0.244 OA
ATOM      8  OXT UNL     1      -1.125  -6.823  -1.120  0.00  0.00    -0.244 OA
ENDBRANCH   5   6
BRANCH   5   9
ATOM      9  C   UNL     1       0.059  -4.279  -0.033  0.00  0.00    +0.072 C 
BRANCH   9  14
ATOM     10  C   UNL     1      -0.018   1.503   0.010  0.00  0.00    +0.044 C 
ATOM     11  C   UNL     1       0.002  -0.004   0.002  0.00  0.00    -0.047 A 
ATOM     12  C   UNL     1       0.006  -0.688  -1.200  0.00  0.00    +0.004 A 
ATOM     13  C   UNL     1       0.024  -2.071  -1.211  0.00  0.00    +0.007 A 
ATOM     14  C   UNL     1       0.039  -2.772  -0.020  0.00  0.00    -0.004 A 
ATOM     15  C   UNL     1       0.035  -2.088   1.186  0.00  0.00    +0.120 A 
ATOM     16  C   UNL     1       0.023  -0.700   1.195  0.00  0.00    +0.049 A 
BRANCH  15  17
ATOM     17  O   UNL     1       0.050  -2.776   2.358  0.00  0.00    -0.506 OA
ATOM     18  H   UNL     1       0.938  -2.963   2.694  0.00  0.00    +0.292 HD
ENDBRANCH  15  17
ENDBRANCH   9  14
ENDBRANCH   5   9
ENDBRANCH   1   5
BRANCH   2  19
ATOM     19  O   UNL     1      -3.744  -3.991   2.781  0.00  0.00    -0.449 OA
BRANCH  19  20
ATOM     20  C   UNL     1      -5.165  -3.895   2.891  0.00  0.00    +0.246 C 
BRANCH  20  21
ATOM     21  C   UNL     1      -5.540  -3.501   4.321  0.00  0.00    +0.088 C 
ATOM     22  C   UNL     1      -5.223  -4.630   5.271  0.00  0.00    -0.029 A 
ATOM     23  C   UNL     1      -4.041  -5.262   5.595  0.00  0.00    +0.005 A 
ATOM     24  C   UNL     1      -4.037  -6.291   6.520  0.00  0.00    +0.000 A 
ATOM     25  C   UNL     1      -5.218  -6.689   7.120  0.00  0.00    +0.001 A 
ATOM     26  C   UNL     1      -6.405  -6.063   6.801  0.00  0.00    +0.009 A 
ATOM     27  C   UNL     1      -6.417  -5.023   5.869  0.00  0.00    -0.014 A 
ATOM     28  C   UNL     1      -7.528  -4.190   5.348  0.00  0.00    -0.014 A 
ATOM     29  C   UNL     1      -7.029  -3.276   4.424  0.00  0.00    -0.029 A 
ATOM     30  C   UNL     1      -7.876  -2.386   3.798  0.00  0.00    +0.005 A 
ATOM     31  C   UNL     1      -9.229  -2.398   4.087  0.00  0.00    +0.000 A 
ATOM     32  C   UNL     1      -9.735  -3.302   5.004  0.00  0.00    +0.001 A 
ATOM     33  C   UNL     1      -8.895  -4.196   5.635  0.00  0.00    +0.009 A 
ENDBRANCH  20  21
ENDBRANCH  19  20
ENDBRANCH   2  19
TORSDOF 8
