REMARK  Name = ZINC66382480
REMARK  8 active torsions:
REMARK  status: ('A' for Active; 'I' for Inactive)
REMARK    1  A    between atoms: C_1  and  C_2
REMARK    2  A    between atoms: C_2  and  C_3
REMARK    3  A    between atoms: C_3  and  C_5
REMARK    4  A    between atoms: C_3  and  N_8
REMARK    5  A    between atoms: C_5  and  C_6
REMARK    6  A    between atoms: C_5  and  C_7
REMARK    7  A    between atoms: C_14  and  C_17
REMARK    8  A    between atoms: C_17  and  C_18
REMARK                            x       y       z     vdW  Elec       q    Type
REMARK                         _______ _______ _______ _____ _____    ______ ____
ROOT
ATOM      1  N   UNL     1       1.888  -0.183  -3.732  0.00  0.00    -0.296 N 
ATOM      2  C   UNL     1       0.561   0.028  -3.631  0.00  0.00    +0.302 C 
ATOM      3  O   UNL     1      -0.010  -0.188  -2.580  0.00  0.00    -0.253 OA
ATOM      4  N   UNL     1      -0.133   0.478  -4.695  0.00  0.00    -0.286 N 
ATOM      5  C   UNL     1      -1.556   0.823  -4.570  0.00  0.00    +0.109 C 
ATOM      6  C   UNL     1      -1.765   2.250  -5.086  0.00  0.00    +0.023 C 
ATOM      7  C   UNL     1      -1.215   2.359  -6.510  0.00  0.00    +0.001 C 
ATOM      8  C   UNL     1       0.287   2.063  -6.503  0.00  0.00    +0.023 C 
ATOM      9  C   UNL     1       0.520   0.639  -6.001  0.00  0.00    +0.109 C 
ATOM     10  H   UNL     1       2.332  -0.081  -4.589  0.00  0.00    +0.151 HD
ENDROOT
BRANCH   1  11
ATOM     11  C   UNL     1       2.662  -0.565  -2.548  0.00  0.00    +0.077 C 
BRANCH  11  12
ATOM     12  C   UNL     1       3.068   0.693  -1.777  0.00  0.00    +0.003 C 
ATOM     13  C   UNL     1       3.876   0.294  -0.540  0.00  0.00    +0.009 C 
ATOM     14  C   UNL     1       3.922   1.589  -2.676  0.00  0.00    +0.009 C 
ENDBRANCH  11  12
BRANCH  11  16
ATOM     15  C   UNL     1       3.511  -2.644  -3.643  0.00  0.00    +0.006 C 
ATOM     16  C   UNL     1       3.917  -1.325  -2.982  0.00  0.00    +0.019 C 
ENDBRANCH  11  16
ENDBRANCH   1  11
BRANCH   7  17
ATOM     17  C   UNL     1      -1.453   3.773  -7.041  0.00  0.00    +0.099 C 
BRANCH  17  18
ATOM     18  C   UNL     1      -1.024   3.847  -8.484  0.00  0.00    +0.216 C 
ATOM     19  O   UNL     1      -0.572   2.864  -9.033  0.00  0.00    -0.276 OA
ATOM     20  N   UNL     1      -1.142   5.004  -9.164  0.00  0.00    -0.301 N 
ATOM     21  C   UNL     1      -1.665   6.267  -8.622  0.00  0.00    +0.108 C 
ATOM     22  C   UNL     1      -1.635   7.303  -9.765  0.00  0.00    +0.020 C 
ATOM     23  C   UNL     1      -1.627   6.416 -11.038  0.00  0.00    +0.020 C 
ATOM     24  C   UNL     1      -0.762   5.216 -10.573  0.00  0.00    +0.108 C 
ENDBRANCH  17  18
ENDBRANCH   7  17
TORSDOF 5
