REMARK  Name = ZINC34923627
REMARK  11 active torsions:
REMARK  status: ('A' for Active; 'I' for Inactive)
REMARK    1  A    between atoms: C_1  and  C_2
REMARK    2  A    between atoms: C_3  and  C_32
REMARK    3  A    between atoms: C_4  and  C_25
REMARK    4  A    between atoms: C_7  and  C_12
REMARK    5  A    between atoms: C_13  and  N_15
REMARK    6  A    between atoms: N_18  and  C_21
REMARK    7  A    between atoms: C_21  and  C_22
REMARK    8  A    between atoms: C_22  and  O_23
REMARK    9  A    between atoms: O_23  and  C_24
REMARK   10  A    between atoms: C_32  and  O_34
REMARK   11  A    between atoms: O_34  and  C_35
REMARK                            x       y       z     vdW  Elec       q    Type
REMARK                         _______ _______ _______ _____ _____    ______ ____
ROOT
ATOM      1  C   UNL     1      -0.048   1.627   0.888  0.00  0.00    +0.066 C 
ATOM      2  C   UNL     1      -0.088   0.138   0.660  0.00  0.00    +0.053 C 
ATOM      3  C   UNL     1      -1.305  -0.512   0.589  0.00  0.00    +0.082 C 
ATOM      4  C   UNL     1      -1.293  -2.007   0.358  0.00  0.00    +0.150 C 
ATOM      5  N   UNL     1       0.036  -2.661   0.226  0.00  0.00    -0.267 N 
ATOM      6  C   UNL     1       0.285  -4.002   0.013  0.00  0.00    +0.048 C 
ATOM      7  C   UNL     1       1.575  -4.393  -0.078  0.00  0.00    +0.072 C 
ATOM      8  S   UNL     1       2.444  -2.853   0.139  0.00  0.00    -0.060 S 
ATOM      9  C   UNL     1       1.122  -1.836   0.327  0.00  0.00    +0.166 C 
ATOM     10  N   UNL     1       1.042  -0.536   0.524  0.00  0.00    -0.230 NA
ENDROOT
BRANCH   4  11
ATOM     11  C   UNL     1      -2.075  -2.289  -0.899  0.00  0.00    -0.022 A 
ATOM     12  C   UNL     1      -1.533  -1.982  -2.133  0.00  0.00    +0.007 A 
ATOM     13  C   UNL     1      -2.250  -2.240  -3.286  0.00  0.00    +0.020 A 
ATOM     14  C   UNL     1      -3.510  -2.806  -3.205  0.00  0.00    +0.041 A 
ATOM     15  C   UNL     1      -4.052  -3.113  -1.970  0.00  0.00    +0.020 A 
ATOM     16  C   UNL     1      -3.332  -2.859  -0.818  0.00  0.00    +0.007 A 
ATOM     17 CL   UNL     1      -4.411  -3.130  -4.653  0.00  0.00    -0.084 Cl
ENDBRANCH   4  11
BRANCH   6  18
ATOM     18  C   UNL     1      -0.814  -4.970  -0.110  0.00  0.00    +0.091 C 
ATOM     19  C   UNL     1      -0.547  -6.289  -0.162  0.00  0.00    +0.241 C 
ATOM     20  O   UNL     1       0.720  -6.732   0.026  0.00  0.00    -0.271 OA
BRANCH  19  21
ATOM     21  N   UNL     1      -1.567  -7.193  -0.407  0.00  0.00    -0.296 N 
ATOM     22  C   UNL     1      -2.739  -6.809  -1.210  0.00  0.00    +0.123 C 
ATOM     23  C   UNL     1      -2.944  -7.860  -2.306  0.00  0.00    +0.103 C 
ATOM     24  N   UNL     1      -3.020  -9.193  -1.693  0.00  0.00    -0.297 NA
ATOM     25  C   UNL     1      -1.762  -9.544  -1.022  0.00  0.00    +0.103 C 
ATOM     26  C   UNL     1      -1.505  -8.564   0.122  0.00  0.00    +0.123 C 
BRANCH  24  27
ATOM     27  C   UNL     1      -3.388 -10.209  -2.688  0.00  0.00    +0.112 C 
BRANCH  27  28
ATOM     28  C   UNL     1      -3.700 -11.528  -1.978  0.00  0.00    +0.174 C 
BRANCH  28  29
ATOM     29  O   UNL     1      -4.860 -11.365  -1.159  0.00  0.00    -0.382 OA
ATOM     30  C   UNL     1      -5.240 -12.545  -0.448  0.00  0.00    +0.194 C 
ENDBRANCH  28  29
ENDBRANCH  27  28
ENDBRANCH  24  27
ENDBRANCH  19  21
ENDBRANCH   6  18
BRANCH   3  31
ATOM     31  C   UNL     1      -2.509   0.189   0.726  0.00  0.00    +0.339 C 
ATOM     32  O   UNL     1      -2.495   1.393   0.911  0.00  0.00    -0.245 OA
BRANCH  31  33
ATOM     33  O   UNL     1      -3.687  -0.470   0.652  0.00  0.00    -0.465 OA
ATOM     34  C   UNL     1      -4.876   0.308   0.801  0.00  0.00    +0.280 C 
ENDBRANCH  31  33
ENDBRANCH   3  31
TORSDOF 8
