REMARK  Name = ZINC62365009
REMARK  3 active torsions:
REMARK  status: ('A' for Active; 'I' for Inactive)
REMARK    1  A    between atoms: C_10  and  O_12
REMARK    2  A    between atoms: O_12  and  C_13
REMARK    3  A    between atoms: C_14  and  N_20
REMARK                            x       y       z     vdW  Elec       q    Type
REMARK                         _______ _______ _______ _____ _____    ______ ____
ROOT
ATOM      1  O   UNL     1       4.609   0.011  -0.924  0.00  0.00    -0.467 OA
ENDROOT
BRANCH   1  11
ATOM      2  C   UNL     1      -0.017   1.375   0.010  0.00  0.00    +0.000 A 
ATOM      3  C   UNL     1       1.174   2.078   0.002  0.00  0.00    +0.000 A 
ATOM      4  C   UNL     1       2.372   1.395  -0.010  0.00  0.00    +0.007 A 
ATOM      5  C   UNL     1       2.393   0.006  -0.017  0.00  0.00    -0.004 A 
ATOM      6  C   UNL     1       1.208  -0.694  -0.015  0.00  0.00    -0.041 A 
ATOM      7  C   UNL     1       0.002  -0.004   0.002  0.00  0.00    +0.004 A 
ATOM      8  C   UNL     1       1.155  -2.199  -0.038  0.00  0.00    +0.035 C 
ATOM      9  C   UNL     1       2.501  -2.790   0.375  0.00  0.00    +0.009 C 
ATOM     10  C   UNL     1       3.599  -2.130  -0.467  0.00  0.00    +0.050 C 
ATOM     11  C   UNL     1       3.737  -0.675  -0.023  0.00  0.00    +0.206 C 
ENDBRANCH   1  11
BRANCH   1  12
ATOM     12  C   UNL     1       5.352   1.023  -0.410  0.00  0.00    +0.241 A 
ATOM     13  C   UNL     1       6.226   1.748  -1.226  0.00  0.00    +0.124 A 
ATOM     14  C   UNL     1       6.964   2.775  -0.650  0.00  0.00    +0.157 A 
ATOM     15  N   UNL     1       6.814   3.029   0.643  0.00  0.00    -0.222 NA
ATOM     16  C   UNL     1       5.981   2.324   1.381  0.00  0.00    +0.226 A 
ATOM     17  N   UNL     1       5.257   1.344   0.874  0.00  0.00    -0.200 NA
ATOM     18 CL   UNL     1       8.066   3.713  -1.609  0.00  0.00    -0.060 Cl
BRANCH  13  19
ATOM     19  N   UNL     1       6.355   1.448  -2.588  0.00  0.00    -0.352 N 
ATOM     20  H   UNL     1       5.834   0.728  -2.977  0.00  0.00    +0.143 HD
ATOM     21  H   UNL     1       6.965   1.959  -3.143  0.00  0.00    +0.143 HD
ENDBRANCH  13  19
ENDBRANCH   1  12
TORSDOF 3
