REMARK  Name = ZINC25530141
REMARK  12 active torsions:
REMARK  status: ('A' for Active; 'I' for Inactive)
REMARK    1  A    between atoms: C_1  and  C_2
REMARK    2  A    between atoms: C_2  and  C_3
REMARK    3  A    between atoms: C_3  and  C_4
REMARK    4  A    between atoms: C_4  and  C_6
REMARK    5  A    between atoms: C_4  and  N_22
REMARK    6  A    between atoms: N_8  and  N_9
REMARK    7  A    between atoms: C_10  and  C_12
REMARK    8  A    between atoms: C_12  and  O_13
REMARK    9  A    between atoms: O_13  and  C_14
REMARK   10  A    between atoms: C_18  and  C_20
REMARK   11  A    between atoms: N_25  and  C_26
REMARK   12  A    between atoms: C_26  and  C_27
REMARK                            x       y       z     vdW  Elec       q    Type
REMARK                         _______ _______ _______ _____ _____    ______ ____
ROOT
ATOM      1  C   UNL     1      -0.729   1.579   1.267  0.00  0.00    +0.162 C 
ENDROOT
BRANCH   1   2
ATOM      2  N   UNL     1      -2.062   0.977   1.338  0.00  0.00    -0.288 N 
ATOM      3  C   UNL     1      -3.095   1.545   0.684  0.00  0.00    +0.300 C 
ATOM      4  O   UNL     1      -2.919   2.558   0.035  0.00  0.00    -0.253 OA
ATOM      5  N   UNL     1      -4.321   0.991   0.750  0.00  0.00    -0.295 N 
ATOM      6  H   UNL     1      -2.221   0.060   1.925  0.00  0.00    +0.151 HD
ATOM      7  H   UNL     1      -4.480   0.074   1.337  0.00  0.00    +0.151 HD
BRANCH   5   8
ATOM      8  C   UNL     1      -5.443   1.609   0.039  0.00  0.00    +0.141 C 
BRANCH   8   9
ATOM      9  C   UNL     1      -6.693   0.800   0.273  0.00  0.00    -0.030 A 
ATOM     10  C   UNL     1      -7.021  -0.229  -0.590  0.00  0.00    +0.008 A 
ATOM     11  C   UNL     1      -8.164  -0.975  -0.373  0.00  0.00    +0.038 A 
ATOM     12  C   UNL     1      -8.987  -0.684   0.702  0.00  0.00    +0.123 A 
ATOM     13  C   UNL     1      -8.660   0.350   1.562  0.00  0.00    +0.038 A 
ATOM     14  C   UNL     1      -7.513   1.091   1.347  0.00  0.00    +0.008 A 
ATOM     15  F   UNL     1     -10.107  -1.410   0.912  0.00  0.00    -0.205 F 
ENDBRANCH   8   9
ENDBRANCH   5   8
ENDBRANCH   1   2
BRANCH   1  16
ATOM     16  C   UNL     1       0.067   1.185   2.485  0.00  0.00    +0.249 C 
ATOM     17  O   UNL     1      -0.431   0.470   3.329  0.00  0.00    -0.272 OA
ATOM     18  N   UNL     1       1.331   1.625   2.635  0.00  0.00    -0.233 N 
ATOM     19  H   UNL     1       1.783   2.273   1.870  0.00  0.00    +0.173 HD
BRANCH  18  20
ATOM     20  N   UNL     1       2.071   1.259   3.768  0.00  0.00    -0.232 N 
ATOM     21  C   UNL     1       3.335   1.700   3.918  0.00  0.00    +0.267 C 
ATOM     22  O   UNL     1       3.833   2.414   3.074  0.00  0.00    -0.271 OA
ATOM     23  H   UNL     1       1.619   0.611   4.533  0.00  0.00    +0.173 HD
BRANCH  21  24
ATOM     24  C   UNL     1       4.130   1.305   5.136  0.00  0.00    +0.326 C 
BRANCH  24  25
ATOM     25  O   UNL     1       5.431   1.893   5.067  0.00  0.00    -0.483 OA
BRANCH  25  26
ATOM     26  C   UNL     1       6.281   1.634   6.095  0.00  0.00    +0.122 A 
ATOM     27  C   UNL     1       5.869   0.836   7.153  0.00  0.00    +0.047 A 
ATOM     28  C   UNL     1       6.736   0.570   8.195  0.00  0.00    +0.024 A 
ATOM     29  C   UNL     1       8.011   1.108   8.190  0.00  0.00    +0.044 A 
ATOM     30  C   UNL     1       8.421   1.909   7.139  0.00  0.00    -0.029 A 
ATOM     31  C   UNL     1       7.559   2.173   6.092  0.00  0.00    +0.050 A 
ATOM     32  C   UNL     1       9.810   2.494   7.136  0.00  0.00    +0.045 C 
ATOM     33 CL   UNL     1       9.096   0.778   9.504  0.00  0.00    -0.083 Cl
ENDBRANCH  25  26
ENDBRANCH  24  25
ENDBRANCH  21  24
ENDBRANCH  18  20
ENDBRANCH   1  16
BRANCH   1  34
ATOM     34  C   UNL     1      -0.013   1.086   0.008  0.00  0.00    +0.031 C 
BRANCH  34  36
ATOM     35  C   UNL     1      -0.037   1.099  -2.490  0.00  0.00    +0.004 C 
ATOM     36  C   UNL     1      -0.753   1.593  -1.232  0.00  0.00    -0.001 C 
ENDBRANCH  34  36
ENDBRANCH   1  34
TORSDOF 10
