REMARK  Name = ZINC40962763
REMARK  7 active torsions:
REMARK  status: ('A' for Active; 'I' for Inactive)
REMARK    1  A    between atoms: C_1  and  C_2
REMARK    2  A    between atoms: C_5  and  S_9
REMARK    3  A    between atoms: C_6  and  C_8
REMARK    4  A    between atoms: S_9  and  C_11
REMARK    5  A    between atoms: C_11  and  C_12
REMARK    6  A    between atoms: C_15  and  C_19
REMARK    7  A    between atoms: C_17  and  N_18
REMARK                            x       y       z     vdW  Elec       q    Type
REMARK                         _______ _______ _______ _____ _____    ______ ____
ROOT
ATOM      1  C   UNL     1       1.168  -6.692   0.047  0.00  0.00    -0.014 A 
ATOM      2  C   UNL     1       1.026  -7.390   1.232  0.00  0.00    +0.007 A 
ATOM      3  C   UNL     1       0.957  -8.768   1.222  0.00  0.00    +0.013 A 
ATOM      4  C   UNL     1       1.031  -9.462   0.013  0.00  0.00    +0.038 A 
ATOM      5  C   UNL     1       1.175  -8.758  -1.183  0.00  0.00    +0.036 A 
ATOM      6  C   UNL     1       1.238  -7.373  -1.163  0.00  0.00    +0.029 A 
ENDROOT
BRANCH   4   7
ATOM      7  C   UNL     1       0.958 -10.939  -0.000  0.00  0.00    +0.242 C 
ATOM      8  O   UNL     1       1.023 -11.541  -1.054  0.00  0.00    -0.270 OA
ATOM      9  N   UNL     1       0.820 -11.617   1.156  0.00  0.00    -0.325 N 
ATOM     10  H   UNL     1       0.768 -11.136   1.997  0.00  0.00    +0.145 HD
ATOM     11  H   UNL     1       0.772 -12.586   1.147  0.00  0.00    +0.145 HD
ENDBRANCH   4   7
BRANCH   6  12
ATOM     12  N   UNL     1       1.376  -6.663  -2.358  0.00  0.00    -0.358 N 
ATOM     13  H   UNL     1       1.423  -5.694  -2.343  0.00  0.00    +0.142 HD
ATOM     14  H   UNL     1       1.424  -7.138  -3.202  0.00  0.00    +0.142 HD
ENDBRANCH   6  12
BRANCH   1  15
ATOM     15  C   UNL     1       1.242  -5.187   0.066  0.00  0.00    +0.146 C 
BRANCH  15  16
ATOM     16  S   UNL     1      -0.430  -4.497  -0.072  0.00  0.00    +0.058 S 
ATOM     17  O   UNL     1      -1.153  -4.765   1.122  0.00  0.00    -0.252 OA
BRANCH  16  22
ATOM     18  C   UNL     1       0.441   1.472   0.056  0.00  0.00    +0.044 C 
ATOM     19  C   UNL     1       0.223  -0.019   0.024  0.00  0.00    -0.050 A 
ATOM     20  C   UNL     1      -0.074  -0.699   1.190  0.00  0.00    +0.004 A 
ATOM     21  C   UNL     1      -0.274  -2.067   1.161  0.00  0.00    +0.018 A 
ATOM     22  C   UNL     1      -0.177  -2.754  -0.035  0.00  0.00    +0.042 A 
ATOM     23  C   UNL     1       0.120  -2.074  -1.201  0.00  0.00    -0.034 A 
ATOM     24  C   UNL     1       0.316  -0.705  -1.172  0.00  0.00    +0.008 A 
ATOM     25  C   UNL     1       0.227  -2.823  -2.504  0.00  0.00    +0.045 C 
ENDBRANCH  16  22
ENDBRANCH  15  16
ENDBRANCH   1  15
TORSDOF 5
