REMARK  Name = ZINC59249114
REMARK  5 active torsions:
REMARK  status: ('A' for Active; 'I' for Inactive)
REMARK    1  A    between atoms: C_1  and  C_2
REMARK    2  A    between atoms: C_4  and  C_30
REMARK    3  A    between atoms: C_6  and  N_8
REMARK    4  A    between atoms: C_12  and  C_13
REMARK    5  A    between atoms: N_17  and  C_18
REMARK                            x       y       z     vdW  Elec       q    Type
REMARK                         _______ _______ _______ _____ _____    ______ ____
ROOT
ATOM      1  N   UNL     1       0.696  -2.728   2.398  0.00  0.00    -0.216 N 
ATOM      2  C   UNL     1       0.337  -2.126   3.553  0.00  0.00    +0.262 C 
ATOM      3  O   UNL     1      -0.189  -1.028   3.553  0.00  0.00    -0.269 OA
ATOM      4  C   UNL     1       0.603  -2.843   4.813  0.00  0.00    +0.103 C 
ATOM      5  C   UNL     1       0.264  -2.293   6.048  0.00  0.00    +0.044 C 
ATOM      6  C   UNL     1       1.241  -4.161   4.709  0.00  0.00    +0.274 C 
ATOM      7  O   UNL     1       1.518  -4.884   5.816  0.00  0.00    -0.268 OA
ATOM      8  N   UNL     1       1.537  -4.626   3.506  0.00  0.00    -0.153 NA
ATOM      9  C   UNL     1       1.270  -3.940   2.399  0.00  0.00    +0.171 C 
ATOM     10  S   UNL     1       1.688  -4.638   0.893  0.00  0.00    -0.016 S 
ENDROOT
BRANCH   1  16
ATOM     11  C   UNL     1       1.952   0.720  -0.876  0.00  0.00    +0.044 C 
ATOM     12  C   UNL     1       1.052  -0.404  -0.430  0.00  0.00    -0.048 A 
ATOM     13  C   UNL     1      -0.010  -0.795  -1.226  0.00  0.00    +0.006 A 
ATOM     14  C   UNL     1      -0.838  -1.825  -0.821  0.00  0.00    -0.048 A 
ATOM     15  C   UNL     1      -0.607  -2.468   0.380  0.00  0.00    +0.027 A 
ATOM     16  C   UNL     1       0.459  -2.078   1.180  0.00  0.00    +0.044 A 
ATOM     17  C   UNL     1       1.292  -1.046   0.769  0.00  0.00    +0.027 A 
ATOM     18  C   UNL     1      -1.994  -2.247  -1.690  0.00  0.00    +0.044 C 
ENDBRANCH   1  16
BRANCH   5  19
ATOM     19  C   UNL     1       0.373  -3.067   7.213  0.00  0.00    +0.047 A 
ATOM     20  C   UNL     1       1.107  -2.745   8.351  0.00  0.00    +0.027 A 
ATOM     21  C   UNL     1       0.934  -3.789   9.257  0.00  0.00    +0.020 A 
ATOM     22  C   UNL     1       0.119  -4.714   8.684  0.00  0.00    +0.092 A 
ATOM     23  N   UNL     1      -0.233  -4.287   7.446  0.00  0.00    -0.316 N 
BRANCH  23  24
ATOM     24  C   UNL     1      -1.068  -4.970   6.552  0.00  0.00    +0.047 A 
ATOM     25  C   UNL     1      -2.190  -4.340   6.029  0.00  0.00    +0.027 A 
ATOM     26  C   UNL     1      -3.011  -5.015   5.148  0.00  0.00    +0.017 A 
ATOM     27  C   UNL     1      -2.718  -6.318   4.786  0.00  0.00    +0.018 A 
ATOM     28  C   UNL     1      -1.601  -6.948   5.306  0.00  0.00    +0.017 A 
ATOM     29  C   UNL     1      -0.773  -6.275   6.183  0.00  0.00    +0.027 A 
ATOM     30 BR   UNL     1      -3.846  -7.239   3.580  0.00  0.00    -0.050 Br
ENDBRANCH  23  24
ENDBRANCH   5  19
TORSDOF 3
