REMARK  Name = ZINC22608275
REMARK  7 active torsions:
REMARK  status: ('A' for Active; 'I' for Inactive)
REMARK    1  A    between atoms: C_1  and  C_2
REMARK    2  A    between atoms: C_7  and  C_19
REMARK    3  A    between atoms: C_12  and  C_14
REMARK    4  A    between atoms: C_22  and  O_27
REMARK    5  A    between atoms: C_24  and  O_25
REMARK    6  A    between atoms: O_25  and  C_26
REMARK    7  A    between atoms: O_27  and  C_28
REMARK                            x       y       z     vdW  Elec       q    Type
REMARK                         _______ _______ _______ _____ _____    ______ ____
ROOT
ATOM      1  C   UNL     1      -1.430  -0.539   0.055  0.00  0.00    +0.008 C 
ATOM      2  C   UNL     1       0.002  -0.004   0.002  0.00  0.00    -0.001 C 
ATOM      3  C   UNL     1      -0.019   1.526   0.010  0.00  0.00    +0.055 C 
ATOM      4  C   UNL     1       1.397   2.053  -0.000  0.00  0.00    +0.020 C 
ATOM      5  C   UNL     1       2.398   1.363   0.588  0.00  0.00    +0.041 C 
ATOM      6  C   UNL     1       3.821   1.877   0.616  0.00  0.00    +0.179 C 
ATOM      7  N   UNL     1       3.974   2.972  -0.333  0.00  0.00    -0.220 N 
ATOM      8  C   UNL     1       2.927   3.613  -0.909  0.00  0.00    +0.219 A 
ATOM      9  N   UNL     1       3.404   4.538  -1.696  0.00  0.00    -0.189 NA
ATOM     10  C   UNL     1       4.739   4.517  -1.652  0.00  0.00    +0.256 A 
ATOM     11  N   UNL     1       5.129   3.573  -0.831  0.00  0.00    -0.143 NA
ATOM     12  N   UNL     1       1.618   3.252  -0.634  0.00  0.00    -0.287 N 
ATOM     13  C   UNL     1       2.152   0.127   1.213  0.00  0.00    +0.163 C 
ATOM     14  O   UNL     1       3.071  -0.461   1.748  0.00  0.00    -0.292 OA
ATOM     15  C   UNL     1       0.778  -0.483   1.234  0.00  0.00    +0.083 C 
ATOM     16  H   UNL     1       0.768   3.895  -0.907  0.00  0.00    +0.155 HD
ENDROOT
BRANCH   6  17
ATOM     17  C   UNL     1       4.147   2.369   2.002  0.00  0.00    +0.023 A 
ATOM     18  C   UNL     1       3.410   3.395   2.562  0.00  0.00    +0.013 A 
ATOM     19  C   UNL     1       3.707   3.849   3.833  0.00  0.00    +0.046 A 
ATOM     20  C   UNL     1       4.748   3.276   4.549  0.00  0.00    +0.124 A 
ATOM     21  C   UNL     1       5.490   2.247   3.990  0.00  0.00    +0.091 A 
ATOM     22  C   UNL     1       5.186   1.789   2.717  0.00  0.00    +0.129 A 
BRANCH  22  23
ATOM     23  O   UNL     1       5.907   0.777   2.168  0.00  0.00    -0.495 OA
ATOM     24  C   UNL     1       6.961   0.227   2.961  0.00  0.00    +0.277 C 
ENDBRANCH  22  23
BRANCH  20  25
ATOM     25  O   UNL     1       5.040   3.723   5.799  0.00  0.00    -0.495 OA
ATOM     26  C   UNL     1       4.235   4.785   6.313  0.00  0.00    +0.277 C 
ENDBRANCH  20  25
ENDBRANCH   6  17
BRANCH  10  27
ATOM     27  C   UNL     1       5.653   5.434  -2.424  0.00  0.00    +0.454 C 
ATOM     28  F   UNL     1       4.917   6.516  -2.920  0.00  0.00    -0.163 F 
ATOM     29  F   UNL     1       6.663   5.906  -1.579  0.00  0.00    -0.163 F 
ATOM     30  F   UNL     1       6.226   4.733  -3.490  0.00  0.00    -0.163 F 
ENDBRANCH  10  27
TORSDOF 4
