REMARK  Name = ZINC66952361
REMARK  10 active torsions:
REMARK  status: ('A' for Active; 'I' for Inactive)
REMARK    1  A    between atoms: C_1  and  C_2
REMARK    2  A    between atoms: C_2  and  N_3
REMARK    3  A    between atoms: N_3  and  C_4
REMARK    4  A    between atoms: N_3  and  C_6
REMARK    5  A    between atoms: C_4  and  C_5
REMARK    6  A    between atoms: C_6  and  C_7
REMARK    7  A    between atoms: C_12  and  N_13
REMARK    8  A    between atoms: N_16  and  C_17
REMARK    9  A    between atoms: C_17  and  C_18
REMARK   10  A    between atoms: C_18  and  O_28
REMARK                            x       y       z     vdW  Elec       q    Type
REMARK                         _______ _______ _______ _____ _____    ______ ____
ROOT
ATOM      1  N   UNL     1       3.003  -2.609  -1.688  0.00  0.00    -0.269 N 
ATOM      2  C   UNL     1       4.350  -2.596  -1.643  0.00  0.00    +0.304 C 
ATOM      3  O   UNL     1       4.993  -2.758  -2.662  0.00  0.00    -0.253 OA
ATOM      4  N   UNL     1       4.984  -2.404  -0.469  0.00  0.00    -0.296 N 
ATOM      5  H   UNL     1       2.489  -2.412  -0.889  0.00  0.00    +0.156 HD
ATOM      6  H   UNL     1       4.470  -2.275   0.343  0.00  0.00    +0.150 HD
ENDROOT
BRANCH   1  12
ATOM      7  C   UNL     1       1.070  -3.457  -2.862  0.00  0.00    -0.043 A 
ATOM      8  C   UNL     1       0.422  -3.746  -4.048  0.00  0.00    +0.003 A 
ATOM      9  C   UNL     1       1.043  -3.494  -5.257  0.00  0.00    +0.000 A 
ATOM     10  C   UNL     1       2.315  -2.952  -5.284  0.00  0.00    +0.002 A 
ATOM     11  C   UNL     1       2.969  -2.662  -4.103  0.00  0.00    +0.023 A 
ATOM     12  C   UNL     1       2.345  -2.908  -2.887  0.00  0.00    +0.036 A 
BRANCH   7  13
ATOM     13  C   UNL     1       0.392  -3.732  -1.545  0.00  0.00    -0.041 C 
BRANCH  13  14
ATOM     14  N   UNL     1      -0.085  -2.469  -0.967  0.00  0.00    +0.382 N 
ATOM     15  H   UNL     1       0.688  -1.826  -0.880  0.00  0.00    -0.081 HD
BRANCH  14  17
ATOM     16  C   UNL     1      -1.518  -0.513  -1.305  0.00  0.00    -0.017 C 
ATOM     17  C   UNL     1      -1.111  -1.887  -1.841  0.00  0.00    -0.082 C 
ENDBRANCH  14  17
BRANCH  14  18
ATOM     18  C   UNL     1      -0.660  -2.725   0.361  0.00  0.00    -0.082 C 
ATOM     19  C   UNL     1       0.439  -3.207   1.309  0.00  0.00    -0.017 C 
ENDBRANCH  14  18
ENDBRANCH  13  14
ENDBRANCH   7  13
ENDBRANCH   1  12
BRANCH   4  20
ATOM     20  C   UNL     1       6.448  -2.389  -0.421  0.00  0.00    +0.145 C 
BRANCH  20  21
ATOM     21  C   UNL     1       6.909  -2.280   1.034  0.00  0.00    +0.107 C 
ATOM     22  C   UNL     1       6.375  -3.475   1.822  0.00  0.00    +0.041 C 
ATOM     23  C   UNL     1       7.022  -3.465   3.212  0.00  0.00    +0.008 C 
ATOM     24  C   UNL     1       8.500  -3.818   3.058  0.00  0.00    +0.035 C 
ATOM     25  C   UNL     1       9.145  -2.950   2.008  0.00  0.00    -0.041 A 
ATOM     26  C   UNL     1       8.414  -2.247   1.077  0.00  0.00    -0.011 A 
ATOM     27  C   UNL     1       9.071  -1.471   0.131  0.00  0.00    +0.007 A 
ATOM     28  C   UNL     1      10.449  -1.395   0.121  0.00  0.00    +0.000 A 
ATOM     29  C   UNL     1      11.182  -2.097   1.058  0.00  0.00    +0.000 A 
ATOM     30  C   UNL     1      10.531  -2.871   1.997  0.00  0.00    +0.004 A 
BRANCH  21  31
ATOM     31  O   UNL     1       6.395  -1.074   1.602  0.00  0.00    -0.382 OA
ATOM     32  H   UNL     1       6.684  -0.271   1.147  0.00  0.00    +0.211 HD
ENDBRANCH  21  31
ENDBRANCH  20  21
ENDBRANCH   4  20
TORSDOF 8
