REMARK  Name = ZINC19079790
REMARK  4 active torsions:
REMARK  status: ('A' for Active; 'I' for Inactive)
REMARK    1  A    between atoms: C_1  and  C_2
REMARK    2  A    between atoms: C_2  and  C_4
REMARK    3  A    between atoms: C_2  and  N_8
REMARK    4  A    between atoms: N_6  and  C_7
REMARK                            x       y       z     vdW  Elec       q    Type
REMARK                         _______ _______ _______ _____ _____    ______ ____
ROOT
ATOM      1  N   UNL     1       1.131   1.890   0.001  0.00  0.00    -0.290 N 
ATOM      2  C   UNL     1       1.118   3.362   0.006  0.00  0.00    +0.112 C 
ATOM      3  C   UNL     1       0.679   3.845   1.387  0.00  0.00    +0.064 C 
ATOM      4  C   UNL     1      -0.837   3.933   1.483  0.00  0.00    +0.101 C 
ATOM      5  C   UNL     1      -1.526   2.578   1.405  0.00  0.00    +0.055 C 
ATOM      6  C   UNL     1      -1.337   1.947   0.019  0.00  0.00    +0.100 C 
ATOM      7  C   UNL     1      -0.014   1.209   0.009  0.00  0.00    +0.216 C 
ATOM      8  O   UNL     1       0.002  -0.004   0.002  0.00  0.00    -0.276 OA
ATOM      9  N   UNL     1      -1.326   4.771   0.369  0.00  0.00    -0.323 N 
ATOM     10  C   UNL     1      -1.048   6.132   0.412  0.00  0.00    +0.041 A 
ATOM     11  C   UNL     1      -0.827   6.877  -0.733  0.00  0.00    +0.024 A 
ATOM     12  C   UNL     1      -0.546   8.226  -0.625  0.00  0.00    +0.002 A 
ATOM     13  C   UNL     1      -0.483   8.836   0.618  0.00  0.00    +0.001 A 
ATOM     14  C   UNL     1      -0.704   8.108   1.769  0.00  0.00    +0.015 A 
ATOM     15  C   UNL     1      -0.993   6.750   1.674  0.00  0.00    +0.058 A 
ATOM     16  C   UNL     1      -1.256   5.920   2.864  0.00  0.00    +0.247 C 
ATOM     17  O   UNL     1      -1.524   6.439   3.930  0.00  0.00    -0.270 OA
ATOM     18  N   UNL     1      -1.194   4.577   2.755  0.00  0.00    -0.290 N 
ATOM     19  H   UNL     1      -1.824   4.384  -0.368  0.00  0.00    +0.148 HD
ATOM     20  H   UNL     1      -1.389   4.026   3.530  0.00  0.00    +0.151 HD
ENDROOT
BRANCH   1  22
ATOM     21  C   UNL     1       2.509   0.289   1.234  0.00  0.00    +0.038 C 
ATOM     22  C   UNL     1       2.408   1.171  -0.011  0.00  0.00    +0.159 C 
BRANCH  22  23
ATOM     23  C   UNL     1       2.487   0.310  -1.245  0.00  0.00    +0.233 C 
ATOM     24  O   UNL     1       1.568   0.297  -2.036  0.00  0.00    -0.274 OA
ATOM     25  N   UNL     1       3.580  -0.446  -1.470  0.00  0.00    -0.317 N 
ATOM     26  C   UNL     1       3.657  -1.284  -2.669  0.00  0.00    +0.128 C 
ATOM     27  H   UNL     1       4.315  -0.436  -0.837  0.00  0.00    +0.148 HD
ENDBRANCH  22  23
ENDBRANCH   1  22
TORSDOF 2
