REMARK  Name = ZINC20561439
REMARK  16 active torsions:
REMARK  status: ('A' for Active; 'I' for Inactive)
REMARK    1  A    between atoms: C_1  and  C_2
REMARK    2  A    between atoms: C_2  and  C_3
REMARK    3  A    between atoms: C_3  and  O_4
REMARK    4  A    between atoms: O_4  and  C_5
REMARK    5  A    between atoms: C_5  and  C_7
REMARK    6  A    between atoms: C_8  and  C_37
REMARK    7  A    between atoms: C_12  and  C_14
REMARK    8  A    between atoms: C_16  and  O_23
REMARK    9  A    between atoms: C_17  and  O_22
REMARK   10  A    between atoms: C_18  and  O_20
REMARK   11  A    between atoms: O_20  and  C_21
REMARK   12  A    between atoms: O_23  and  C_24
REMARK   13  A    between atoms: C_27  and  C_33
REMARK   14  A    between atoms: C_29  and  C_32
REMARK   15  A    between atoms: C_33  and  O_35
REMARK   16  A    between atoms: O_35  and  C_36
REMARK                            x       y       z     vdW  Elec       q    Type
REMARK                         _______ _______ _______ _____ _____    ______ ____
ROOT
ATOM      1  C   UNL     1       0.085   1.016   4.814  0.00  0.00    +0.065 C 
ATOM      2  C   UNL     1      -0.361   1.463   6.000  0.00  0.00    +0.016 C 
ATOM      3  N   UNL     1       0.241   1.064   7.162  0.00  0.00    -0.321 N 
ATOM      4  C   UNL     1       1.512   0.557   7.149  0.00  0.00    +0.016 C 
ATOM      5  C   UNL     1       2.047   0.077   6.006  0.00  0.00    +0.025 C 
ATOM      6  C   UNL     1       1.252   0.076   4.725  0.00  0.00    +0.092 C 
ATOM      7  C   UNL     1       3.357  -0.432   5.976  0.00  0.00    +0.176 C 
ATOM      8  O   UNL     1       3.805  -0.864   4.932  0.00  0.00    -0.291 OA
ATOM      9  C   UNL     1       4.214  -0.454   7.212  0.00  0.00    +0.171 C 
ATOM     10  C   UNL     1       3.788   0.694   8.134  0.00  0.00    +0.013 C 
ATOM     11  C   UNL     1       2.296   0.545   8.438  0.00  0.00    +0.055 C 
ATOM     12  C   UNL     1       4.040   2.033   7.438  0.00  0.00    +0.009 C 
ATOM     13  C   UNL     1      -1.536   2.405   6.051  0.00  0.00    +0.061 C 
ATOM     14  H   UNL     1      -0.297   1.149   8.117  0.00  0.00    +0.152 HD
ENDROOT
BRANCH   6  15
ATOM     15  C   UNL     1       0.745  -1.319   4.460  0.00  0.00    -0.028 A 
ATOM     16  C   UNL     1      -0.106  -1.926   5.365  0.00  0.00    +0.054 A 
ATOM     17  C   UNL     1      -0.579  -3.207   5.123  0.00  0.00    +0.165 A 
ATOM     18  C   UNL     1      -0.188  -3.884   3.974  0.00  0.00    +0.201 A 
ATOM     19  C   UNL     1       0.672  -3.272   3.069  0.00  0.00    +0.165 A 
ATOM     20  C   UNL     1       1.136  -1.989   3.317  0.00  0.00    +0.054 A 
BRANCH  19  21
ATOM     21  O   UNL     1       1.057  -3.930   1.944  0.00  0.00    -0.491 OA
ATOM     22  C   UNL     1       1.942  -3.240   1.059  0.00  0.00    +0.277 C 
ENDBRANCH  19  21
BRANCH  18  23
ATOM     23  O   UNL     1      -0.646  -5.143   3.735  0.00  0.00    -0.501 OA
ATOM     24  H   UNL     1      -0.335  -5.678   2.825  0.00  0.00    +0.292 HD
ENDBRANCH  18  23
BRANCH  17  25
ATOM     25  O   UNL     1      -1.420  -3.801   6.011  0.00  0.00    -0.491 OA
ATOM     26  C   UNL     1      -1.779  -3.046   7.169  0.00  0.00    +0.277 C 
ENDBRANCH  17  25
ENDBRANCH   6  15
BRANCH   1  27
ATOM     27  C   UNL     1      -0.553   1.444   3.627  0.00  0.00    +0.338 C 
ATOM     28  O   UNL     1      -1.561   2.123   3.688  0.00  0.00    -0.245 OA
BRANCH  27  29
ATOM     29  O   UNL     1      -0.044   1.099   2.425  0.00  0.00    -0.461 OA
BRANCH  29  30
ATOM     30  C   UNL     1      -0.741   1.566   1.268  0.00  0.00    +0.232 C 
BRANCH  30  32
ATOM     31  C   UNL     1      -0.766   1.579  -1.231  0.00  0.00    +0.007 C 
ATOM     32  C   UNL     1      -0.021   1.079   0.009  0.00  0.00    +0.038 C 
ENDBRANCH  30  32
ENDBRANCH  29  30
ENDBRANCH  27  29
ENDBRANCH   1  27
BRANCH   9  33
ATOM     33  C   UNL     1       5.661  -0.282   6.829  0.00  0.00    +0.318 C 
ATOM     34  O   UNL     1       6.290   0.660   7.248  0.00  0.00    -0.250 OA
BRANCH  33  35
ATOM     35  O   UNL     1       6.252  -1.177   6.021  0.00  0.00    -0.467 OA
ATOM     36  C   UNL     1       7.648  -0.949   5.693  0.00  0.00    +0.280 C 
ENDBRANCH  33  35
ENDBRANCH   9  33
TORSDOF 10
