REMARK  Name = ZINC01300970
REMARK  6 active torsions:
REMARK  status: ('A' for Active; 'I' for Inactive)
REMARK    1  A    between atoms: C_1  and  C_2
REMARK    2  A    between atoms: C_2  and  C_3
REMARK    3  A    between atoms: C_2  and  C_4
REMARK    4  A    between atoms: C_4  and  C_6
REMARK    5  A    between atoms: C_4  and  N_8
REMARK    6  A    between atoms: C_12  and  C_13
REMARK                            x       y       z     vdW  Elec       q    Type
REMARK                         _______ _______ _______ _____ _____    ______ ____
ROOT
ATOM      1  N   UNL     1       3.913   6.077   0.347  0.00  0.00    -0.241 N 
ATOM      2  C   UNL     1       2.700   5.552   0.294  0.00  0.00    +0.259 C 
ATOM      3  O   UNL     1       1.702   6.248   0.281  0.00  0.00    -0.269 OA
ATOM      4  C   UNL     1       2.620   4.077   0.249  0.00  0.00    +0.077 C 
ATOM      5  C   UNL     1       1.530   3.272   0.191  0.00  0.00    +0.028 C 
ATOM      6  S   UNL     1       4.354   3.645   0.300  0.00  0.00    -0.061 S 
ATOM      7  C   UNL     1       5.016   5.302   0.361  0.00  0.00    +0.121 C 
ATOM      8  S   UNL     1       6.656   5.789   0.426  0.00  0.00    -0.027 S 
ENDROOT
BRANCH   5   9
ATOM      9  C   UNL     1       1.694   1.825  -0.005  0.00  0.00    -0.024 A 
ATOM     10  C   UNL     1       0.593   0.969   0.114  0.00  0.00    +0.009 A 
ATOM     11  C   UNL     1       0.756  -0.387  -0.071  0.00  0.00    +0.020 A 
ATOM     12  C   UNL     1       2.005  -0.903  -0.375  0.00  0.00    +0.041 A 
ATOM     13  C   UNL     1       3.100  -0.063  -0.495  0.00  0.00    +0.020 A 
ATOM     14  C   UNL     1       2.953   1.296  -0.312  0.00  0.00    +0.009 A 
ATOM     15 CL   UNL     1       2.200  -2.613  -0.606  0.00  0.00    -0.084 Cl
ENDBRANCH   5   9
BRANCH   1  16
ATOM     16  C   UNL     1       4.061   7.534   0.394  0.00  0.00    +0.198 C 
BRANCH  16  18
ATOM     17  C   UNL     1       4.114   7.651  -2.101  0.00  0.00    +0.009 C 
ATOM     18  C   UNL     1       4.868   8.004  -0.817  0.00  0.00    +0.015 C 
ATOM     19  C   UNL     1       5.065   9.519  -0.742  0.00  0.00    +0.009 C 
ENDBRANCH  16  18
BRANCH  16  20
ATOM     20  C   UNL     1       4.780   7.925   1.660  0.00  0.00    +0.377 C 
ATOM     21  O   UNL     1       5.133   7.075   2.442  0.00  0.00    -0.244 OA
ATOM     22  O   UNL     1       5.028   9.219   1.917  0.00  0.00    -0.244 OA
ENDBRANCH  16  20
ENDBRANCH   1  16
TORSDOF 4
