REMARK  Name = ZINC05727606
REMARK  8 active torsions:
REMARK  status: ('A' for Active; 'I' for Inactive)
REMARK    1  A    between atoms: C_1  and  C_2
REMARK    2  A    between atoms: C_2  and  C_3
REMARK    3  A    between atoms: C_3  and  C_17
REMARK    4  A    between atoms: N_4  and  N_5
REMARK    5  A    between atoms: C_6  and  C_8
REMARK    6  A    between atoms: C_10  and  O_16
REMARK    7  A    between atoms: C_11  and  O_15
REMARK    8  A    between atoms: C_12  and  O_14
REMARK                            x       y       z     vdW  Elec       q    Type
REMARK                         _______ _______ _______ _____ _____    ______ ____
ROOT
ATOM      1  N   UNL     1      -3.371  -1.194  -0.096  0.00  0.00    -0.203 N 
ATOM      2  C   UNL     1      -3.139  -2.516  -0.213  0.00  0.00    +0.263 C 
ATOM      3  O   UNL     1      -1.997  -2.934  -0.226  0.00  0.00    -0.268 OA
ATOM      4  H   UNL     1      -4.282  -0.860  -0.086  0.00  0.00    +0.178 HD
ENDROOT
BRANCH   2   5
ATOM      5  C   UNL     1      -4.270  -3.457  -0.325  0.00  0.00    +0.045 A 
ATOM      6  C   UNL     1      -5.583  -2.978  -0.304  0.00  0.00    +0.062 A 
ATOM      7  C   UNL     1      -6.641  -3.861  -0.415  0.00  0.00    +0.163 A 
ATOM      8  C   UNL     1      -6.400  -5.227  -0.535  0.00  0.00    +0.201 A 
ATOM      9  C   UNL     1      -5.093  -5.707  -0.551  0.00  0.00    +0.163 A 
ATOM     10  C   UNL     1      -4.031  -4.828  -0.447  0.00  0.00    +0.062 A 
BRANCH   9  11
ATOM     11  O   UNL     1      -4.860  -7.042  -0.669  0.00  0.00    -0.503 OA
ATOM     12  H   UNL     1      -4.812  -7.509   0.176  0.00  0.00    +0.292 HD
ENDBRANCH   9  11
BRANCH   8  13
ATOM     13  O   UNL     1      -7.442  -6.094  -0.637  0.00  0.00    -0.501 OA
ATOM     14  H   UNL     1      -7.762  -6.426   0.213  0.00  0.00    +0.292 HD
ENDBRANCH   8  13
BRANCH   7  15
ATOM     15  O   UNL     1      -7.919  -3.396  -0.400  0.00  0.00    -0.503 OA
ATOM     16  H   UNL     1      -8.307  -3.342   0.484  0.00  0.00    +0.292 HD
ENDBRANCH   7  15
ENDBRANCH   2   5
BRANCH   1  18
ATOM     17  C   UNL     1      -2.516   0.978   0.028  0.00  0.00    +0.066 C 
ATOM     18  N   UNL     1      -2.297  -0.301   0.010  0.00  0.00    -0.184 NA
BRANCH  17  19
ATOM     19  C   UNL     1      -1.382   1.921   0.012  0.00  0.00    -0.001 A 
ATOM     20  C   UNL     1      -1.614   3.299   0.037  0.00  0.00    +0.010 A 
ATOM     21  C   UNL     1      -0.549   4.175   0.014  0.00  0.00    +0.002 A 
ATOM     22  C   UNL     1       0.747   3.693  -0.027  0.00  0.00    +0.020 A 
ATOM     23  C   UNL     1       0.985   2.329  -0.045  0.00  0.00    +0.042 A 
ATOM     24  C   UNL     1      -0.071   1.441  -0.023  0.00  0.00    +0.029 A 
ATOM     25 CL   UNL     1       2.616   1.735  -0.095  0.00  0.00    -0.084 Cl
ENDBRANCH  17  19
BRANCH  17  27
ATOM     26  C   UNL     1      -4.446   1.676  -1.363  0.00  0.00    +0.010 C 
ATOM     27  C   UNL     1      -3.929   1.500   0.066  0.00  0.00    +0.054 C 
ENDBRANCH  17  27
ENDBRANCH   1  18
TORSDOF 7
