REMARK  Name = ZINC05624190
REMARK  8 active torsions:
REMARK  status: ('A' for Active; 'I' for Inactive)
REMARK    1  A    between atoms: C_1  and  C_2
REMARK    2  A    between atoms: C_2  and  C_3
REMARK    3  A    between atoms: C_2  and  C_4
REMARK    4  A    between atoms: C_4  and  C_6
REMARK    5  A    between atoms: C_4  and  S_12
REMARK    6  A    between atoms: S_12  and  C_13
REMARK    7  A    between atoms: C_16  and  C_25
REMARK    8  A    between atoms: N_17  and  C_18
REMARK                            x       y       z     vdW  Elec       q    Type
REMARK                         _______ _______ _______ _____ _____    ______ ____
ROOT
ATOM      1  C   UNL     1       2.508  -4.514   0.593  0.00  0.00    +0.197 A 
ATOM      2  N   UNL     1       1.442  -5.119   0.118  0.00  0.00    -0.122 NA
ATOM      3  N   UNL     1       1.630  -6.390   0.092  0.00  0.00    -0.128 NA
ATOM      4  C   UNL     1       2.823  -6.678   0.557  0.00  0.00    +0.169 A 
ATOM      5  N   UNL     1       3.424  -5.485   0.893  0.00  0.00    -0.270 N 
ENDROOT
BRANCH   5   6
ATOM      6  C   UNL     1       4.707  -5.303   1.431  0.00  0.00    +0.051 A 
ATOM      7  C   UNL     1       5.829  -5.571   0.658  0.00  0.00    +0.029 A 
ATOM      8  C   UNL     1       7.091  -5.386   1.187  0.00  0.00    +0.040 A 
ATOM      9  C   UNL     1       7.238  -4.945   2.491  0.00  0.00    +0.124 A 
ATOM     10  C   UNL     1       6.120  -4.683   3.266  0.00  0.00    +0.040 A 
ATOM     11  C   UNL     1       4.856  -4.861   2.738  0.00  0.00    +0.029 A 
ATOM     12  F   UNL     1       8.473  -4.770   3.009  0.00  0.00    -0.205 F 
ENDBRANCH   5   6
BRANCH   4  13
ATOM     13  C   UNL     1       3.410  -8.027   0.695  0.00  0.00    +0.020 A 
ATOM     14  C   UNL     1       2.863  -9.105  -0.003  0.00  0.00    +0.011 A 
ATOM     15  C   UNL     1       3.420 -10.361   0.126  0.00  0.00    +0.001 A 
ATOM     16  C   UNL     1       4.511 -10.556   0.954  0.00  0.00    +0.000 A 
ATOM     17  C   UNL     1       5.054  -9.493   1.653  0.00  0.00    +0.001 A 
ATOM     18  C   UNL     1       4.511  -8.231   1.529  0.00  0.00    +0.011 A 
ENDBRANCH   4  13
BRANCH   1  19
ATOM     19  S   UNL     1       2.716  -2.778   0.810  0.00  0.00    -0.073 S 
BRANCH  19  20
ATOM     20  C   UNL     1       1.182  -2.182   0.056  0.00  0.00    +0.143 C 
BRANCH  20  21
ATOM     21  C   UNL     1       1.035  -0.705   0.318  0.00  0.00    +0.234 C 
ATOM     22  O   UNL     1       2.017  -0.025   0.527  0.00  0.00    -0.274 OA
ATOM     23  N   UNL     1      -0.189  -0.140   0.320  0.00  0.00    -0.239 N 
ATOM     24  C   UNL     1      -0.321   1.181   0.554  0.00  0.00    +0.303 C 
ATOM     25  O   UNL     1       0.664   1.862   0.764  0.00  0.00    -0.253 OA
ATOM     26  N   UNL     1      -1.544   1.747   0.551  0.00  0.00    -0.313 N 
ATOM     27  H   UNL     1      -0.975  -0.684   0.153  0.00  0.00    +0.159 HD
ATOM     28  H   UNL     1      -2.329   1.204   0.380  0.00  0.00    +0.146 HD
ATOM     29  H   UNL     1      -1.639   2.697   0.719  0.00  0.00    +0.146 HD
ENDBRANCH  20  21
BRANCH  20  31
ATOM     30  C   UNL     1      -0.120  -2.048  -2.072  0.00  0.00    +0.009 C 
ATOM     31  C   UNL     1       1.226  -2.430  -1.453  0.00  0.00    +0.005 C 
ATOM     32  C   UNL     1       2.334  -1.580  -2.078  0.00  0.00    +0.009 C 
ENDBRANCH  20  31
ENDBRANCH  19  20
ENDBRANCH   1  19
TORSDOF 6
