REMARK  Name = ZINC01189518
REMARK  5 active torsions:
REMARK  status: ('A' for Active; 'I' for Inactive)
REMARK    1  A    between atoms: C_1  and  C_2
REMARK    2  A    between atoms: C_3  and  C_19
REMARK    3  A    between atoms: C_4  and  C_10
REMARK    4  A    between atoms: C_13  and  N_16
REMARK    5  A    between atoms: N_21  and  C_22
REMARK                            x       y       z     vdW  Elec       q    Type
REMARK                         _______ _______ _______ _____ _____    ______ ____
ROOT
ATOM      1  C   UNL     1      -4.611   1.891   3.501  0.00  0.00    +0.061 C 
ATOM      2  C   UNL     1      -4.302   1.682   2.041  0.00  0.00    +0.019 C 
ATOM      3  C   UNL     1      -3.232   0.939   1.689  0.00  0.00    +0.056 C 
ATOM      4  C   UNL     1      -2.957   0.753   0.210  0.00  0.00    +0.142 C 
ATOM      5  N   UNL     1      -3.887   1.404  -0.728  0.00  0.00    -0.288 N 
ATOM      6  C   UNL     1      -4.913   2.117  -0.223  0.00  0.00    +0.304 C 
ATOM      7  O   UNL     1      -5.687   2.657  -0.990  0.00  0.00    -0.252 OA
ATOM      8  N   UNL     1      -5.109   2.248   1.095  0.00  0.00    -0.273 N 
ATOM      9  H   UNL     1      -3.763   1.322  -1.687  0.00  0.00    +0.151 HD
ATOM     10  H   UNL     1      -5.867   2.774   1.395  0.00  0.00    +0.156 HD
ENDROOT
BRANCH   4  11
ATOM     11  C   UNL     1      -1.571   1.272  -0.073  0.00  0.00    -0.022 A 
ATOM     12  C   UNL     1      -0.521   0.388  -0.231  0.00  0.00    +0.008 A 
ATOM     13  C   UNL     1       0.749   0.864  -0.497  0.00  0.00    +0.033 A 
ATOM     14  C   UNL     1       0.970   2.225  -0.600  0.00  0.00    +0.126 A 
ATOM     15  C   UNL     1      -0.080   3.110  -0.437  0.00  0.00    +0.033 A 
ATOM     16  C   UNL     1      -1.350   2.633  -0.171  0.00  0.00    +0.008 A 
BRANCH  14  17
ATOM     17  N   UNL     1       2.330   2.735  -0.885  0.00  0.00    +0.056 N 
ATOM     18  O   UNL     1       3.255   1.955  -1.029  0.00  0.00    -0.126 OA
ATOM     19  O   UNL     1       2.524   3.934  -0.976  0.00  0.00    -0.126 OA
ENDBRANCH  14  17
ENDBRANCH   4  11
BRANCH   3  20
ATOM     20  C   UNL     1      -2.394   0.351   2.669  0.00  0.00    +0.248 C 
ATOM     21  O   UNL     1      -2.466  -0.843   2.894  0.00  0.00    -0.270 OA
ATOM     22  N   UNL     1      -1.518   1.114   3.351  0.00  0.00    -0.280 N 
ATOM     23  H   UNL     1      -1.433   2.058   3.145  0.00  0.00    +0.155 HD
BRANCH  22  24
ATOM     24  C   UNL     1      -0.730   0.545   4.358  0.00  0.00    +0.052 A 
ATOM     25  C   UNL     1      -0.412  -0.806   4.311  0.00  0.00    +0.025 A 
ATOM     26  C   UNL     1       0.370  -1.364   5.304  0.00  0.00    +0.002 A 
ATOM     27  C   UNL     1       0.827  -0.582   6.349  0.00  0.00    +0.002 A 
ATOM     28  C   UNL     1       0.508   0.762   6.401  0.00  0.00    +0.022 A 
ATOM     29  C   UNL     1      -0.270   1.329   5.409  0.00  0.00    +0.062 A 
ATOM     30 CL   UNL     1      -0.670   3.016   5.475  0.00  0.00    -0.082 Cl
ENDBRANCH  22  24
ENDBRANCH   3  20
TORSDOF 4
