REMARK  Name = ZINC13001678
REMARK  7 active torsions:
REMARK  status: ('A' for Active; 'I' for Inactive)
REMARK    1  A    between atoms: C_1  and  C_2
REMARK    2  A    between atoms: C_2  and  C_22
REMARK    3  A    between atoms: N_5  and  C_9
REMARK    4  A    between atoms: C_9  and  C_10
REMARK    5  A    between atoms: C_15  and  C_18
REMARK    6  A    between atoms: C_18  and  O_20
REMARK    7  A    between atoms: O_20  and  C_21
REMARK                            x       y       z     vdW  Elec       q    Type
REMARK                         _______ _______ _______ _____ _____    ______ ____
ROOT
ATOM      1  C   UNL     1      -2.932   0.635   1.450  0.00  0.00    +0.047 C 
ATOM      2  C   UNL     1      -2.514   0.978   0.019  0.00  0.00    +0.135 C 
ATOM      3  C   UNL     1      -3.604   1.764  -0.681  0.00  0.00    +0.251 C 
ATOM      4  O   UNL     1      -4.046   2.847  -0.362  0.00  0.00    -0.272 OA
ATOM      5  N   UNL     1      -3.980   1.009  -1.732  0.00  0.00    -0.215 N 
ATOM      6  C   UNL     1      -3.286  -0.133  -1.793  0.00  0.00    +0.310 C 
ATOM      7  O   UNL     1      -3.446  -0.976  -2.653  0.00  0.00    -0.252 OA
ATOM      8  N   UNL     1      -2.390  -0.243  -0.795  0.00  0.00    -0.281 N 
ATOM      9  H   UNL     1      -1.781  -0.982  -0.642  0.00  0.00    +0.152 HD
ENDROOT
BRANCH   2  10
ATOM     10  C   UNL     1      -1.220   1.750   0.017  0.00  0.00    -0.014 A 
ATOM     11  C   UNL     1      -0.013   1.076   0.008  0.00  0.00    +0.008 A 
ATOM     12  C   UNL     1       1.175   1.783   0.000  0.00  0.00    +0.022 A 
ATOM     13  C   UNL     1       1.157   3.166   0.008  0.00  0.00    +0.059 A 
ATOM     14  C   UNL     1      -0.052   3.841   0.022  0.00  0.00    +0.060 A 
ATOM     15  C   UNL     1      -1.240   3.132   0.030  0.00  0.00    +0.027 A 
ATOM     16 CL   UNL     1      -0.076   5.577   0.031  0.00  0.00    -0.082 Cl
ATOM     17 CL   UNL     1       2.648   4.054  -0.001  0.00  0.00    -0.082 Cl
ENDBRANCH   2  10
BRANCH   5  18
ATOM     18  C   UNL     1      -5.021   1.391  -2.689  0.00  0.00    +0.213 C 
BRANCH  18  19
ATOM     19  C   UNL     1      -4.400   2.161  -3.826  0.00  0.00    +0.234 C 
ATOM     20  O   UNL     1      -3.206   2.370  -3.836  0.00  0.00    -0.274 OA
ATOM     21  N   UNL     1      -5.172   2.617  -4.832  0.00  0.00    -0.300 N 
ATOM     22  C   UNL     1      -6.620   2.367  -4.838  0.00  0.00    +0.108 C 
ATOM     23  C   UNL     1      -7.007   1.715  -6.164  0.00  0.00    +0.033 C 
ATOM     24  C   UNL     1      -6.516   2.587  -7.321  0.00  0.00    +0.101 C 
ATOM     25  C   UNL     1      -4.990   2.702  -7.264  0.00  0.00    +0.033 C 
ATOM     26  C   UNL     1      -4.581   3.369  -5.948  0.00  0.00    +0.108 C 
BRANCH  24  27
ATOM     27  C   UNL     1      -6.924   1.962  -8.630  0.00  0.00    +0.310 C 
ATOM     28  O   UNL     1      -6.081   1.641  -9.435  0.00  0.00    -0.251 OA
BRANCH  27  29
ATOM     29  O   UNL     1      -8.223   1.762  -8.902  0.00  0.00    -0.468 OA
ATOM     30  C   UNL     1      -8.542   1.155 -10.182  0.00  0.00    +0.280 C 
ENDBRANCH  27  29
ENDBRANCH  24  27
ENDBRANCH  18  19
ENDBRANCH   5  18
TORSDOF 5
