REMARK  Name = ZINC64683331
REMARK  7 active torsions:
REMARK  status: ('A' for Active; 'I' for Inactive)
REMARK    1  A    between atoms: C_1  and  C_2
REMARK    2  A    between atoms: C_11  and  C_13
REMARK    3  A    between atoms: C_13  and  N_14
REMARK    4  A    between atoms: N_17  and  CA_18
REMARK    5  A    between atoms: CA_18  and  CB_20
REMARK    6  A    between atoms: CA_18  and  C_30
REMARK    7  A    between atoms: CB_20  and  CG_21
REMARK                            x       y       z     vdW  Elec       q    Type
REMARK                         _______ _______ _______ _____ _____    ______ ____
ROOT
ATOM      1  N   UNK A   0      -0.047  -4.267   4.551  0.00  0.00    -0.294 N 
ATOM      2  C   UNK A   0       0.029  -5.220   5.501  0.00  0.00    +0.301 C 
ATOM      3  O   UNK A   0       1.062  -5.379   6.122  0.00  0.00    -0.253 OA
ATOM      4  N   TRP A   1      -1.041  -5.997   5.763  0.00  0.00    -0.286 N 
ATOM      5  H   UNK A   0      -0.871  -4.140   4.055  0.00  0.00    +0.151 HD
ATOM      6  H   TRP A   1      -1.865  -5.870   5.267  0.00  0.00    +0.151 HD
ENDROOT
BRANCH   1   7
ATOM      7  C   UNK A   0       1.116  -3.423   4.266  0.00  0.00    +0.156 C 
BRANCH   7  17
ATOM      8  C   UNK A   0      -0.018   1.503   0.010  0.00  0.00    +0.061 C 
ATOM      9  C   UNK A   0       0.002  -0.004   0.002  0.00  0.00    +0.020 C 
ATOM     10  C   UNK A   0       0.005  -0.645  -1.163  0.00  0.00    +0.062 C 
ATOM     11  S   UNK A   0      -0.058  -2.369  -0.691  0.00  0.00    -0.089 S 
ATOM     12  C   UNK A   0      -0.443  -2.102   1.088  0.00  0.00    +0.230 C 
ATOM     13  N   UNK A   0       0.023  -0.683   1.205  0.00  0.00    -0.243 N 
ATOM     14  C   UNK A   0       0.425  -0.196   2.407  0.00  0.00    +0.247 C 
ATOM     15  O   UNK A   0       0.509   1.004   2.600  0.00  0.00    -0.270 OA
ATOM     16  C   UNK A   0       0.744  -1.122   3.431  0.00  0.00    +0.088 C 
ATOM     17  C   UNK A   0       0.772  -2.446   3.171  0.00  0.00    +0.028 C 
ATOM     18  N   UNK A   0       0.461  -2.921   1.908  0.00  0.00    -0.319 N 
ATOM     19  H   UNK A   0       0.843  -3.744   1.567  0.00  0.00    +0.148 HD
ENDBRANCH   7  17
ENDBRANCH   1   7
BRANCH   4  20
ATOM     20  CA  TRP A   1      -0.959  -7.032   6.795  0.00  0.00    +0.191 C 
BRANCH  20  21
ATOM     21  C   TRP A   1      -1.253  -6.423   8.142  0.00  0.00    +0.376 C 
ATOM     22  O   TRP A   1      -2.003  -5.466   8.228  0.00  0.00    -0.244 OA
ATOM     23  OXT TRP A   1      -0.741  -6.889   9.146  0.00  0.00    -0.244 OA
ENDBRANCH  20  21
BRANCH  20  24
ATOM     24  CB  TRP A   1      -1.982  -8.131   6.498  0.00  0.00    +0.067 C 
BRANCH  24  25
ATOM     25  CG  TRP A   1      -1.617  -8.822   5.210  0.00  0.00    -0.039 C 
ATOM     26  CD2 TRP A   1      -0.900  -9.961   5.073  0.00  0.00    -0.001 A 
ATOM     27  CE3 TRP A   1      -0.269 -10.862   6.046  0.00  0.00    +0.010 A 
ATOM     28  CZ3 TRP A   1       0.398 -11.949   5.596  0.00  0.00    +0.001 A 
ATOM     29  CH2 TRP A   1       0.502 -12.237   4.228  0.00  0.00    +0.002 A 
ATOM     30  CZ2 TRP A   1      -0.051 -11.457   3.275  0.00  0.00    +0.026 A 
ATOM     31  CE2 TRP A   1      -0.776 -10.287   3.635  0.00  0.00    +0.043 A 
ATOM     32  NE1 TRP A   1      -1.392  -9.385   2.910  0.00  0.00    -0.380 N 
ATOM     33  CD1 TRP A   1      -1.982  -8.387   3.809  0.00  0.00    +0.144 C 
ATOM     34  HE1 TRP A   1      -1.452  -9.381   1.942  0.00  0.00    +0.160 HD
ENDBRANCH  24  25
ENDBRANCH  20  24
ENDBRANCH   4  20
TORSDOF 6
