REMARK  Name = ZINC09728543
REMARK  8 active torsions:
REMARK  status: ('A' for Active; 'I' for Inactive)
REMARK    1  A    between atoms: C_1  and  C_2
REMARK    2  A    between atoms: C_5  and  C_7
REMARK    3  A    between atoms: C_16  and  C_18
REMARK    4  A    between atoms: C_18  and  N_61
REMARK    5  A    between atoms: C_26  and  C_33
REMARK    6  A    between atoms: C_28  and  C_30
REMARK    7  A    between atoms: C_30  and  C_31
REMARK    8  A    between atoms: C_30  and  C_32
REMARK                            x       y       z     vdW  Elec       q    Type
REMARK                         _______ _______ _______ _____ _____    ______ ____
ROOT
ATOM      1  C   UNL     1       6.647  -3.348  -1.141  0.00  0.00    -0.003 C 
ENDROOT
BRANCH   1  14
ATOM      2  C   UNL     1       4.556  -2.974   0.021  0.00  0.00    -0.059 C 
ATOM      3  C   UNL     1       3.226  -2.218  -0.042  0.00  0.00    +0.088 C 
ATOM      4  N   UNL     1       3.487  -0.772  -0.036  0.00  0.00    -0.319 N 
ATOM      5  C   UNL     1       4.322  -0.386  -1.182  0.00  0.00    +0.088 C 
ATOM      6  C   UNL     1       5.651  -1.141  -1.119  0.00  0.00    -0.059 C 
ATOM      7  C   UNL     1       2.302  -0.054  -0.020  0.00  0.00    +0.125 A 
ATOM      8  C   UNL     1       2.318   1.342  -0.013  0.00  0.00    +0.066 A 
ATOM      9  C   UNL     1       1.111   2.012   0.002  0.00  0.00    +0.044 A 
ATOM     10  N   UNL     1      -0.016   1.313   0.009  0.00  0.00    -0.237 NA
ATOM     11  C   UNL     1       0.002  -0.004   0.002  0.00  0.00    +0.134 A 
ATOM     12  N   UNL     1       1.131  -0.684  -0.012  0.00  0.00    -0.217 NA
ATOM     13  C   UNL     1       1.075   3.518   0.010  0.00  0.00    +0.066 C 
ATOM     14  N   UNL     1       5.376  -2.593  -1.148  0.00  0.00    +0.386 N 
ATOM     15  H   UNL     1       4.859  -2.818  -2.006  0.00  0.00    -0.081 HD
BRANCH  11  16
ATOM     16  C   UNL     1      -1.305  -0.754   0.010  0.00  0.00    +0.051 C 
ATOM     17  C   UNL     1      -2.095  -0.390   1.268  0.00  0.00    +0.015 C 
ATOM     18  C   UNL     1      -2.118  -0.376  -1.230  0.00  0.00    +0.015 C 
ENDBRANCH  11  16
ENDBRANCH   1  14
BRANCH   1  28
ATOM     19  C   UNL     1       9.188  -2.320  -6.140  0.00  0.00    +0.010 A 
ATOM     20  C   UNL     1       8.470  -1.476  -6.922  0.00  0.00    +0.057 A 
ATOM     21  S   UNL     1       7.035  -1.111  -5.928  0.00  0.00    -0.076 S 
ATOM     22  C   UNL     1       7.428  -2.089  -4.501  0.00  0.00    +0.116 A 
ATOM     23  C   UNL     1       8.661  -2.676  -4.827  0.00  0.00    +0.080 A 
ATOM     24  C   UNL     1       9.222  -3.535  -3.829  0.00  0.00    +0.260 A 
ATOM     25  O   UNL     1      10.290  -4.090  -4.020  0.00  0.00    -0.267 OA
ATOM     26  N   UNL     1       8.555  -3.717  -2.675  0.00  0.00    -0.312 N 
ATOM     27  H   UNL     1       8.932  -4.295  -1.993  0.00  0.00    +0.170 HD
ATOM     28  C   UNL     1       7.361  -3.111  -2.447  0.00  0.00    +0.094 A 
ATOM     29  N   UNL     1       6.824  -2.321  -3.338  0.00  0.00    -0.229 NA
BRANCH  19  34
ATOM     30  C   UNL     1      14.455  -4.108  -7.048  0.00  0.00    +0.051 C 
ATOM     31  C   UNL     1      12.998  -3.725  -7.047  0.00  0.00    -0.013 A 
ATOM     32  C   UNL     1      12.065  -3.914  -8.014  0.00  0.00    +0.011 A 
ATOM     33  C   UNL     1      10.774  -3.484  -7.795  0.00  0.00    +0.016 A 
ATOM     34  C   UNL     1      10.478  -2.868  -6.608  0.00  0.00    +0.021 A 
ATOM     35  S   UNL     1      12.055  -2.905  -5.772  0.00  0.00    -0.093 S 
ENDBRANCH  19  34
ENDBRANCH   1  28
TORSDOF 4
