REMARK  Name = ZINC22758923
REMARK  4 active torsions:
REMARK  status: ('A' for Active; 'I' for Inactive)
REMARK    1  A    between atoms: C_4  and  C_19
REMARK    2  A    between atoms: C_6  and  N_7
REMARK    3  A    between atoms: N_7  and  S_8
REMARK    4  A    between atoms: S_8  and  C_11
REMARK                            x       y       z     vdW  Elec       q    Type
REMARK                         _______ _______ _______ _____ _____    ______ ____
ROOT
ATOM      1  C   UNL     1       2.956   7.135  -0.090  0.00  0.00    +0.029 A 
ATOM      2  C   UNL     1       3.573   5.904   0.026  0.00  0.00    +0.041 A 
ATOM      3  C   UNL     1       2.817   4.747   0.052  0.00  0.00    +0.134 A 
ATOM      4  C   UNL     1       1.425   4.822  -0.038  0.00  0.00    +0.056 A 
ATOM      5  C   UNL     1       0.804   6.064  -0.160  0.00  0.00    +0.041 A 
ATOM      6  C   UNL     1       1.572   7.218  -0.180  0.00  0.00    +0.075 A 
ATOM      7  F   UNL     1       3.424   3.545   0.165  0.00  0.00    -0.205 F 
ENDROOT
BRANCH   4   8
ATOM      8  C   UNL     1       0.612   3.586  -0.009  0.00  0.00    +0.167 A 
ATOM      9  N   UNL     1       0.830   2.488  -0.702  0.00  0.00    -0.129 NA
ATOM     10  N   UNL     1      -0.070   1.611  -0.421  0.00  0.00    -0.134 NA
ATOM     11  C   UNL     1      -0.903   2.095   0.458  0.00  0.00    +0.134 A 
ATOM     12  N   UNL     1      -0.507   3.365   0.739  0.00  0.00    -0.311 N 
ATOM     13  C   UNL     1      -1.164   4.300   1.653  0.00  0.00    +0.125 C 
ATOM     14  C   UNL     1      -1.895   3.513   2.744  0.00  0.00    +0.022 C 
ATOM     15  C   UNL     1      -3.318   3.199   2.286  0.00  0.00    +0.002 C 
ATOM     16  C   UNL     1      -3.299   2.334   1.030  0.00  0.00    +0.008 C 
ATOM     17  C   UNL     1      -2.089   1.395   1.070  0.00  0.00    +0.076 C 
ENDBRANCH   4   8
BRANCH   6  18
ATOM     18  N   UNL     1       0.953   8.467  -0.298  0.00  0.00    -0.098 NA
BRANCH  18  19
ATOM     19  S   UNL     1       1.556   9.594  -1.351  0.00  0.00    +0.092 S 
ATOM     20  O   UNL     1       0.706  10.729  -1.261  0.00  0.00    -0.148 OA
ATOM     21  O   UNL     1       2.954   9.668  -1.109  0.00  0.00    -0.148 OA
BRANCH  19  22
ATOM     22  C   UNL     1       1.360   8.946  -2.977  0.00  0.00    +0.116 A 
ATOM     23  C   UNL     1       2.366   8.186  -3.544  0.00  0.00    +0.067 A 
ATOM     24  C   UNL     1       2.211   7.671  -4.820  0.00  0.00    +0.128 A 
ATOM     25  C   UNL     1       1.052   7.927  -5.532  0.00  0.00    +0.076 A 
ATOM     26  C   UNL     1       0.047   8.692  -4.966  0.00  0.00    +0.128 A 
ATOM     27  C   UNL     1       0.203   9.201  -3.688  0.00  0.00    +0.067 A 
ATOM     28  F   UNL     1      -1.084   8.942  -5.660  0.00  0.00    -0.205 F 
ATOM     29  F   UNL     1       3.193   6.925  -5.371  0.00  0.00    -0.205 F 
ENDBRANCH  19  22
ENDBRANCH  18  19
ENDBRANCH   6  18
TORSDOF 4
