REMARK  Name = ZINC36597318
REMARK  10 active torsions:
REMARK  status: ('A' for Active; 'I' for Inactive)
REMARK    1  A    between atoms: C_1  and  C_2
REMARK    2  A    between atoms: C_5  and  C_7
REMARK    3  A    between atoms: C_7  and  N_8
REMARK    4  A    between atoms: N_8  and  C_9
REMARK    5  A    between atoms: C_9  and  C_11
REMARK    6  A    between atoms: C_9  and  C_20
REMARK    7  A    between atoms: C_14  and  N_17
REMARK    8  A    between atoms: N_22  and  C_23
REMARK    9  A    between atoms: C_29  and  C_31
REMARK   10  A    between atoms: C_34  and  O_37
REMARK                            x       y       z     vdW  Elec       q    Type
REMARK                         _______ _______ _______ _____ _____    ______ ____
ROOT
ATOM      1  C   UNL     1       1.890  -2.674  -3.121  0.00  0.00    +0.193 C 
ENDROOT
BRANCH   1   2
ATOM      2  C   UNL     1       3.313  -2.339  -2.758  0.00  0.00    -0.018 A 
ATOM      3  C   UNL     1       3.694  -2.286  -1.430  0.00  0.00    +0.008 A 
ATOM      4  C   UNL     1       5.000  -1.979  -1.097  0.00  0.00    +0.033 A 
ATOM      5  C   UNL     1       5.926  -1.726  -2.092  0.00  0.00    +0.126 A 
ATOM      6  C   UNL     1       5.545  -1.780  -3.420  0.00  0.00    +0.033 A 
ATOM      7  C   UNL     1       4.240  -2.092  -3.753  0.00  0.00    +0.008 A 
BRANCH   5   8
ATOM      8  N   UNL     1       7.324  -1.396  -1.736  0.00  0.00    +0.056 N 
ATOM      9  O   UNL     1       7.657  -1.348  -0.575  0.00  0.00    -0.126 OA
ATOM     10  O   UNL     1       8.134  -1.175  -2.606  0.00  0.00    -0.126 OA
ENDBRANCH   5   8
ENDBRANCH   1   2
BRANCH   1  11
ATOM     11  C   UNL     1       1.382  -1.680  -4.133  0.00  0.00    +0.238 C 
ATOM     12  O   UNL     1       0.734  -0.722  -3.770  0.00  0.00    -0.273 OA
ATOM     13  N   UNL     1       1.649  -1.855  -5.442  0.00  0.00    -0.311 N 
ATOM     14  H   UNL     1       2.168  -2.622  -5.733  0.00  0.00    +0.149 HD
BRANCH  13  15
ATOM     15  C   UNL     1       1.156  -0.889  -6.427  0.00  0.00    +0.073 C 
ATOM     16  C   UNL     1      -0.278  -1.249  -6.821  0.00  0.00    +0.022 C 
ATOM     17  C   UNL     1      -0.793  -0.240  -7.849  0.00  0.00    +0.002 C 
ATOM     18  C   UNL     1       0.102  -0.274  -9.090  0.00  0.00    +0.000 C 
ATOM     19  C   UNL     1       1.535   0.086  -8.696  0.00  0.00    +0.002 C 
ATOM     20  C   UNL     1       2.050  -0.923  -7.668  0.00  0.00    +0.022 C 
ENDBRANCH  13  15
ENDBRANCH   1  11
BRANCH   1  21
ATOM     21  N   UNL     1       1.053  -2.617  -1.919  0.00  0.00    -0.275 N 
ATOM     22  C   UNL     1       0.390  -3.716  -1.508  0.00  0.00    +0.248 C 
ATOM     23  O   UNL     1      -0.227  -3.697  -0.460  0.00  0.00    -0.270 OA
BRANCH  22  24
ATOM     24  C   UNL     1       0.411  -4.942  -2.329  0.00  0.00    +0.037 A 
ATOM     25  C   UNL     1       1.629  -5.481  -2.751  0.00  0.00    +0.016 A 
ATOM     26  C   UNL     1       1.644  -6.626  -3.517  0.00  0.00    +0.046 A 
ATOM     27  C   UNL     1       0.450  -7.243  -3.871  0.00  0.00    +0.117 A 
ATOM     28  C   UNL     1      -0.763  -6.710  -3.454  0.00  0.00    +0.046 A 
ATOM     29  C   UNL     1      -0.787  -5.569  -2.683  0.00  0.00    +0.016 A 
BRANCH  27  30
ATOM     30  O   UNL     1       0.469  -8.370  -4.627  0.00  0.00    -0.507 OA
ATOM     31  H   UNL     1       0.512  -9.188  -4.113  0.00  0.00    +0.292 HD
ENDBRANCH  27  30
ENDBRANCH  22  24
BRANCH  21  32
ATOM     32  C   UNL     1       0.939  -1.367  -1.165  0.00  0.00    +0.183 C 
BRANCH  32  37
ATOM     33  C   UNL     1      -3.497   0.670  -2.439  0.00  0.00    +0.086 C 
ATOM     34  C   UNL     1      -2.436  -0.062  -1.658  0.00  0.00    +0.102 A 
ATOM     35  C   UNL     1      -2.601  -0.631  -0.450  0.00  0.00    +0.045 A 
ATOM     36  C   UNL     1      -1.358  -1.202  -0.093  0.00  0.00    +0.046 A 
ATOM     37  C   UNL     1      -0.508  -0.948  -1.104  0.00  0.00    +0.122 A 
ATOM     38  O   UNL     1      -1.168  -0.262  -2.051  0.00  0.00    -0.463 OA
ENDBRANCH  32  37
ENDBRANCH  21  32
ENDBRANCH   1  21
TORSDOF 9
