REMARK  Name = ZINC11880226
REMARK  14 active torsions:
REMARK  status: ('A' for Active; 'I' for Inactive)
REMARK    1  A    between atoms: C_1  and  C_2
REMARK    2  A    between atoms: C_4  and  C_36
REMARK    3  A    between atoms: C_6  and  C_8
REMARK    4  A    between atoms: N_10  and  C_11
REMARK    5  A    between atoms: C_11  and  C_13
REMARK    6  A    between atoms: C_11  and  C_17
REMARK    7  A    between atoms: C_13  and  C_14
REMARK    8  A    between atoms: C_14  and  C_15
REMARK    9  A    between atoms: C_14  and  C_16
REMARK   10  A    between atoms: C_26  and  C_27
REMARK   11  A    between atoms: C_26  and  N_73
REMARK   12  A    between atoms: C_31  and  O_34
REMARK   13  A    between atoms: C_32  and  O_33
REMARK   14  A    between atoms: O_34  and  C_35
REMARK                            x       y       z     vdW  Elec       q    Type
REMARK                         _______ _______ _______ _____ _____    ______ ____
ROOT
ATOM      1  C   UNL     1      -2.806   1.612   2.694  0.00  0.00    +0.154 A 
ATOM      2  N   UNL     1      -2.534   1.469   3.964  0.00  0.00    -0.132 NA
ATOM      3  N   UNL     1      -3.306   2.228   4.662  0.00  0.00    -0.134 NA
ATOM      4  C   UNL     1      -4.104   2.883   3.870  0.00  0.00    +0.132 A 
ATOM      5  N   UNL     1      -3.819   2.500   2.602  0.00  0.00    -0.315 N 
ATOM      6  C   UNL     1      -4.500   2.959   1.391  0.00  0.00    +0.106 C 
ATOM      7  C   UNL     1      -5.059   4.364   1.630  0.00  0.00    -0.056 C 
ATOM      8  C   UNL     1      -6.439   3.592   3.480  0.00  0.00    -0.071 C 
ATOM      9  C   UNL     1      -5.150   3.898   4.250  0.00  0.00    +0.058 C 
ATOM     10  N   UNL     1      -6.437   4.260   2.159  0.00  0.00    +0.384 N 
ATOM     11  H   UNL     1      -7.001   3.703   1.506  0.00  0.00    -0.081 HD
ENDROOT
BRANCH   1  12
ATOM     12  C   UNL     1      -2.122   0.912   1.548  0.00  0.00    +0.142 C 
BRANCH  12  15
ATOM     13  C   UNL     1      -1.860  -1.415   0.877  0.00  0.00    +0.245 C 
ATOM     14  O   UNL     1      -1.899  -1.055  -0.283  0.00  0.00    -0.270 OA
ATOM     15  N   UNL     1      -1.962  -0.508   1.868  0.00  0.00    -0.301 N 
ATOM     16  H   UNL     1      -1.931  -0.796   2.794  0.00  0.00    +0.150 HD
BRANCH  13  22
ATOM     17  C   UNL     1      -1.452  -5.058   4.263  0.00  0.00    +0.044 C 
ATOM     18  C   UNL     1      -1.502  -4.606   2.827  0.00  0.00    -0.049 A 
ATOM     19  C   UNL     1      -1.396  -5.534   1.806  0.00  0.00    +0.006 A 
ATOM     20  C   UNL     1      -1.441  -5.127   0.485  0.00  0.00    -0.049 A 
ATOM     21  C   UNL     1      -1.592  -3.791   0.176  0.00  0.00    +0.016 A 
ATOM     22  C   UNL     1      -1.699  -2.849   1.200  0.00  0.00    +0.037 A 
ATOM     23  C   UNL     1      -1.647  -3.266   2.532  0.00  0.00    +0.016 A 
ATOM     24  C   UNL     1      -1.326  -6.146  -0.620  0.00  0.00    +0.044 C 
ENDBRANCH  13  22
ENDBRANCH  12  15
BRANCH  12  25
ATOM     25  C   UNL     1      -0.747   1.540   1.315  0.00  0.00    +0.033 C 
BRANCH  25  26
ATOM     26  C   UNL     1      -0.104   0.915   0.075  0.00  0.00    -0.015 C 
ATOM     27  C   UNL     1       1.320   1.451  -0.087  0.00  0.00    +0.007 C 
ATOM     28  C   UNL     1      -0.928   1.275  -1.163  0.00  0.00    +0.007 C 
ENDBRANCH  25  26
ENDBRANCH  12  25
ENDBRANCH   1  12
BRANCH  10  29
ATOM     29  C   UNL     1      -7.033   5.603   2.278  0.00  0.00    -0.039 C 
BRANCH  29  30
ATOM     30  C   UNL     1      -8.532   5.455   2.341  0.00  0.00    -0.019 A 
ATOM     31  C   UNL     1      -9.196   5.650   3.538  0.00  0.00    +0.005 A 
ATOM     32  C   UNL     1     -10.571   5.520   3.598  0.00  0.00    +0.004 A 
ATOM     33  C   UNL     1     -11.287   5.184   2.464  0.00  0.00    +0.049 A 
ATOM     34  C   UNL     1     -10.627   4.983   1.262  0.00  0.00    +0.161 A 
ATOM     35  C   UNL     1      -9.243   5.119   1.201  0.00  0.00    +0.160 A 
BRANCH  35  36
ATOM     36  O   UNL     1      -8.590   4.923   0.024  0.00  0.00    -0.503 OA
ATOM     37  H   UNL     1      -8.309   4.009  -0.122  0.00  0.00    +0.292 HD
ENDBRANCH  35  36
BRANCH  34  38
ATOM     38  O   UNL     1     -11.329   4.654   0.146  0.00  0.00    -0.491 OA
ATOM     39  C   UNL     1     -12.746   4.531   0.283  0.00  0.00    +0.277 C 
ENDBRANCH  34  38
ENDBRANCH  29  30
ENDBRANCH  10  29
TORSDOF 9
