REMARK  Name = ZINC16602929
REMARK  5 active torsions:
REMARK  status: ('A' for Active; 'I' for Inactive)
REMARK    1  A    between atoms: C_1  and  C_2
REMARK    2  A    between atoms: C_3  and  C_8
REMARK    3  A    between atoms: C_4  and  C_7
REMARK    4  A    between atoms: N_10  and  C_11
REMARK    5  A    between atoms: C_12  and  C_22
REMARK                            x       y       z     vdW  Elec       q    Type
REMARK                         _______ _______ _______ _____ _____    ______ ____
ROOT
ATOM      1  C   UNL     1      -0.842   1.487   3.728  0.00  0.00    +0.085 A 
ATOM      2  C   UNL     1      -0.160   1.131   2.580  0.00  0.00    +0.068 A 
ATOM      3  C   UNL     1      -0.701   1.565   1.287  0.00  0.00    -0.023 A 
ATOM      4  C   UNL     1      -1.788   2.345   1.389  0.00  0.00    -0.004 A 
ATOM      5  S   UNL     1      -2.164   2.414   3.122  0.00  0.00    -0.077 S 
ATOM      6  C   UNL     1      -2.552   3.040   0.297  0.00  0.00    +0.043 C 
ATOM      7  C   UNL     1      -1.768   4.320  -0.045  0.00  0.00    +0.005 C 
ATOM      8  C   UNL     1      -0.319   3.927  -0.358  0.00  0.00    +0.000 C 
ATOM      9  C   UNL     1      -0.400   3.026  -1.571  0.00  0.00    +0.000 C 
ATOM     10  C   UNL     1      -0.723   1.577  -1.247  0.00  0.00    +0.005 C 
ATOM     11  C   UNL     1      -0.013   1.086   0.008  0.00  0.00    +0.037 C 
ENDROOT
BRANCH   2  12
ATOM     12  C   UNL     1       1.072   0.339   2.652  0.00  0.00    +0.244 C 
ATOM     13  O   UNL     1       2.150   0.897   2.743  0.00  0.00    -0.270 OA
ATOM     14  N   UNL     1       1.011  -1.007   2.618  0.00  0.00    -0.325 N 
ATOM     15  H   UNL     1       0.152  -1.452   2.546  0.00  0.00    +0.145 HD
ATOM     16  H   UNL     1       1.826  -1.531   2.666  0.00  0.00    +0.145 HD
ENDBRANCH   2  12
BRANCH   1  19
ATOM     17  C   UNL     1      -1.329   1.619   6.041  0.00  0.00    +0.254 C 
ATOM     18  O   UNL     1      -2.312   2.289   5.786  0.00  0.00    -0.270 OA
ATOM     19  N   UNL     1      -0.537   1.177   5.044  0.00  0.00    -0.275 N 
ATOM     20  H   UNL     1       0.246   0.643   5.248  0.00  0.00    +0.156 HD
BRANCH  17  23
ATOM     21  C   UNL     1      -2.321  -1.008   7.784  0.00  0.00    +0.070 C 
ATOM     22  C   UNL     1      -1.437   0.127   8.233  0.00  0.00    +0.093 A 
ATOM     23  C   UNL     1      -1.006   1.290   7.441  0.00  0.00    +0.101 A 
ATOM     24  C   UNL     1      -0.222   1.989   8.326  0.00  0.00    +0.147 A 
ATOM     25  O   UNL     1      -0.233   1.296   9.466  0.00  0.00    -0.359 OA
ATOM     26  N   UNL     1      -0.892   0.287   9.402  0.00  0.00    -0.083 NA
ATOM     27  C   UNL     1       0.504   3.284   8.062  0.00  0.00    +0.090 C 
ENDBRANCH  17  23
ENDBRANCH   1  19
TORSDOF 3
