REMARK  Name = ZINC16790816
REMARK  8 active torsions:
REMARK  status: ('A' for Active; 'I' for Inactive)
REMARK    1  A    between atoms: C_1  and  C_2
REMARK    2  A    between atoms: C_2  and  C_4
REMARK    3  A    between atoms: C_2  and  S_19
REMARK    4  A    between atoms: N_6  and  C_7
REMARK    5  A    between atoms: C_8  and  C_17
REMARK    6  A    between atoms: S_19  and  C_20
REMARK    7  A    between atoms: C_23  and  C_26
REMARK    8  A    between atoms: N_24  and  N_25
REMARK                            x       y       z     vdW  Elec       q    Type
REMARK                         _______ _______ _______ _____ _____    ______ ____
ROOT
ATOM      1  C   UNL     1       2.310   9.620   1.433  0.00  0.00    +0.029 C 
ATOM      2  C   UNL     1       2.730   9.583  -0.038  0.00  0.00    +0.137 C 
ENDROOT
BRANCH   2   3
ATOM      3  C   UNL     1       3.694  10.708  -0.314  0.00  0.00    +0.231 C 
ATOM      4  O   UNL     1       4.886  10.488  -0.357  0.00  0.00    -0.274 OA
ATOM      5  N   UNL     1       3.232  11.959  -0.512  0.00  0.00    -0.278 N 
ATOM      6  H   UNL     1       2.279  12.135  -0.477  0.00  0.00    +0.155 HD
BRANCH   5   7
ATOM      7  C   UNL     1       4.121  12.994  -0.765  0.00  0.00    +0.090 A 
ATOM      8  C   UNL     1       3.842  14.332  -0.993  0.00  0.00    +0.084 A 
ATOM      9  C   UNL     1       4.964  15.227  -1.234  0.00  0.00    -0.018 A 
ATOM     10  C   UNL     1       6.178  14.636  -1.218  0.00  0.00    -0.004 A 
ATOM     11  S   UNL     1       5.849  12.930  -0.867  0.00  0.00    -0.077 S 
ATOM     12  C   UNL     1       7.512  15.275  -1.445  0.00  0.00    +0.043 C 
ATOM     13  C   UNL     1       7.621  16.537  -0.579  0.00  0.00    +0.005 C 
ATOM     14  C   UNL     1       7.081  17.720  -1.377  0.00  0.00    +0.001 C 
ATOM     15  C   UNL     1       5.948  17.262  -2.293  0.00  0.00    +0.005 C 
ATOM     16  C   UNL     1       4.783  16.721  -1.472  0.00  0.00    +0.037 C 
BRANCH   8  17
ATOM     17  C   UNL     1       2.495  14.818  -0.989  0.00  0.00    +0.102 C 
ATOM     18  N   UNL     1       1.426  15.203  -0.987  0.00  0.00    -0.191 NA
ENDBRANCH   8  17
ENDBRANCH   5   7
ENDBRANCH   2   3
BRANCH   2  19
ATOM     19  S   UNL     1       3.530   8.000  -0.397  0.00  0.00    -0.072 S 
BRANCH  19  20
ATOM     20  C   UNL     1       2.172   6.906  -0.144  0.00  0.00    +0.209 A 
ATOM     21  N   UNL     1       0.953   7.247   0.208  0.00  0.00    -0.121 NA
ATOM     22  N   UNL     1       0.212   6.201   0.304  0.00  0.00    -0.126 NA
ATOM     23  C   UNL     1       0.914   5.126   0.019  0.00  0.00    +0.188 A 
ATOM     24  N   UNL     1       2.193   5.545  -0.272  0.00  0.00    -0.223 N 
BRANCH  23  25
ATOM     25  C   UNL     1       0.426   3.737   0.017  0.00  0.00    +0.058 A 
ATOM     26  C   UNL     1      -0.866   3.275   0.026  0.00  0.00    +0.019 A 
ATOM     27  C   UNL     1      -1.081   1.915   0.017  0.00  0.00    +0.008 A 
ATOM     28  C   UNL     1      -0.013   1.076   0.008  0.00  0.00    +0.046 A 
ATOM     29  S   UNL     1       1.361   2.216   0.001  0.00  0.00    -0.093 S 
ENDBRANCH  23  25
BRANCH  24  30
ATOM     30  N   UNL     1       3.259   4.764  -0.618  0.00  0.00    -0.295 N 
ATOM     31  H   UNL     1       3.308   4.641  -1.618  0.00  0.00    +0.163 HD
ATOM     32  H   UNL     1       4.120   5.149  -0.259  0.00  0.00    +0.163 HD
ENDBRANCH  24  30
ENDBRANCH  19  20
ENDBRANCH   2  19
TORSDOF 7
