REMARK  Name = ZINC08579810
REMARK  5 active torsions:
REMARK  status: ('A' for Active; 'I' for Inactive)
REMARK    1  A    between atoms: C_1  and  C_2
REMARK    2  A    between atoms: C_2  and  C_25
REMARK    3  A    between atoms: C_3  and  C_20
REMARK    4  A    between atoms: N_7  and  O_8
REMARK    5  A    between atoms: N_15  and  N_16
REMARK                            x       y       z     vdW  Elec       q    Type
REMARK                         _______ _______ _______ _____ _____    ______ ____
ROOT
ATOM      1  C   UNL     1      -0.028   1.595   0.104  0.00  0.00    +0.037 C 
ATOM      2  C   UNL     1       0.181   0.086   0.008  0.00  0.00    +0.088 C 
ATOM      3  C   UNL     1      -1.133  -0.644  -0.131  0.00  0.00    +0.095 C 
ATOM      4  N   UNL     1      -1.418  -1.246   0.984  0.00  0.00    -0.138 N 
ATOM      5  O   UNL     1      -2.574  -2.046   1.145  0.00  0.00    -0.167 OA
ATOM      6  C   UNL     1      -0.404  -0.958   2.010  0.00  0.00    +0.197 C 
ATOM      7  N   UNL     1       0.779  -0.460   1.251  0.00  0.00    -0.145 NA
ATOM      8  C   UNL     1      -0.910   0.243   2.858  0.00  0.00    +0.056 C 
ATOM      9  C   UNL     1      -1.657  -0.203   4.132  0.00  0.00    +0.004 C 
ATOM     10  C   UNL     1      -2.604  -1.333   3.919  0.00  0.00    +0.000 C 
ATOM     11  C   UNL     1      -1.858  -2.608   4.272  0.00  0.00    +0.006 C 
ATOM     12  C   UNL     1      -1.093  -3.203   3.174  0.00  0.00    +0.057 C 
ATOM     13  C   UNL     1      -0.027  -2.157   2.787  0.00  0.00    +0.084 C 
ATOM     14  N   UNL     1       1.183  -2.331   3.183  0.00  0.00    -0.177 NA
ATOM     15  C   UNL     1       1.088  -0.239  -1.188  0.00  0.00    +0.037 C 
ENDROOT
BRANCH  14  16
ATOM     16  N   UNL     1       1.494  -3.398   4.036  0.00  0.00    -0.258 N 
ATOM     17  C   UNL     1       2.797  -3.650   4.368  0.00  0.00    +0.156 C 
ATOM     18  N   UNL     1       3.795  -2.861   3.869  0.00  0.00    -0.338 N 
ATOM     19  S   UNL     1       3.166  -4.915   5.378  0.00  0.00    -0.015 SA
ATOM     20  H   UNL     1       3.580  -2.122   3.278  0.00  0.00    +0.144 HD
ATOM     21  H   UNL     1       4.719  -3.039   4.104  0.00  0.00    +0.144 HD
ATOM     22  H   UNL     1       0.786  -3.958   4.390  0.00  0.00    +0.191 HD
ENDBRANCH  14  16
BRANCH   3  23
ATOM     23  C   UNL     1      -1.967  -0.673  -1.337  0.00  0.00    +0.036 A 
ATOM     24  C   UNL     1      -3.179  -1.308  -1.544  0.00  0.00    +0.017 A 
ATOM     25  C   UNL     1      -3.778  -1.188  -2.775  0.00  0.00    +0.008 A 
ATOM     26  C   UNL     1      -3.167  -0.455  -3.744  0.00  0.00    +0.046 A 
ATOM     27  S   UNL     1      -1.689   0.109  -2.917  0.00  0.00    -0.095 S 
ENDBRANCH   3  23
BRANCH   7  28
ATOM     28  O   UNL     1       1.698  -1.550   0.913  0.00  0.00    -0.309 OA
ATOM     29  H   UNL     1       2.428  -1.284   0.336  0.00  0.00    +0.237 HD
ENDBRANCH   7  28
TORSDOF 3
