REMARK  Name = ZINC57267772
REMARK  6 active torsions:
REMARK  status: ('A' for Active; 'I' for Inactive)
REMARK    1  A    between atoms: C_4  and  C_11
REMARK    2  A    between atoms: C_11  and  C_12
REMARK    3  A    between atoms: C_12  and  N_13
REMARK    4  A    between atoms: C_14  and  C_16
REMARK    5  A    between atoms: C_16  and  N_17
REMARK    6  A    between atoms: N_20  and  C_21
REMARK                            x       y       z     vdW  Elec       q    Type
REMARK                         _______ _______ _______ _____ _____    ______ ____
ROOT
ATOM      1  N   UNL     1       5.369  -1.758  -1.505  0.00  0.00    -0.314 N 
ATOM      2  C   UNL     1       5.896  -2.167  -2.676  0.00  0.00    +0.230 C 
ATOM      3  O   UNL     1       5.311  -1.945  -3.715  0.00  0.00    -0.274 OA
ATOM      4  H   UNL     1       5.838  -1.936  -0.674  0.00  0.00    +0.149 HD
ENDROOT
BRANCH   1   5
ATOM      5  C   UNL     1       4.089  -1.046  -1.486  0.00  0.00    +0.109 C 
BRANCH   5   6
ATOM      6  C   UNL     1       3.720  -0.699  -0.043  0.00  0.00    +0.057 C 
BRANCH   6  10
ATOM      7  C   UNL     1      -0.017   1.378   0.010  0.00  0.00    +0.047 A 
ATOM      8  C   UNL     1       1.172   2.088   0.002  0.00  0.00    +0.124 A 
ATOM      9  C   UNL     1       2.381   1.415  -0.014  0.00  0.00    +0.045 A 
ATOM     10  C   UNL     1       2.403   0.034  -0.024  0.00  0.00    -0.001 A 
ATOM     11  C   UNL     1       1.212  -0.679  -0.017  0.00  0.00    +0.132 A 
ATOM     12  C   UNL     1       0.002  -0.004   0.002  0.00  0.00    +0.023 A 
ATOM     13  C   UNL     1      -1.298  -0.767   0.018  0.00  0.00    +0.202 C 
ATOM     14  O   UNL     1      -1.055  -2.125  -0.364  0.00  0.00    -0.339 OA
ATOM     15  C   UNL     1       0.042  -2.718   0.342  0.00  0.00    +0.394 C 
ATOM     16  O   UNL     1       1.245  -2.039  -0.030  0.00  0.00    -0.466 OA
ATOM     17  F   UNL     1       1.151   3.439   0.010  0.00  0.00    -0.205 F 
ENDBRANCH   6  10
ENDBRANCH   5   6
ENDBRANCH   1   5
BRANCH   2  18
ATOM     18  C   UNL     1       7.213  -2.899  -2.696  0.00  0.00    +0.201 C 
BRANCH  18  19
ATOM     19  N   UNL     1       7.566  -3.232  -4.078  0.00  0.00    -0.291 N 
ATOM     20  C   UNL     1       8.711  -3.894  -4.340  0.00  0.00    +0.300 C 
ATOM     21  O   UNL     1       9.451  -4.214  -3.429  0.00  0.00    -0.253 OA
ATOM     22  N   UNL     1       9.037  -4.200  -5.611  0.00  0.00    -0.297 N 
ATOM     23  H   UNL     1       6.976  -2.977  -4.804  0.00  0.00    +0.151 HD
ATOM     24  H   UNL     1       8.447  -3.945  -6.338  0.00  0.00    +0.151 HD
BRANCH  22  25
ATOM     25  C   UNL     1      10.281  -4.919  -5.896  0.00  0.00    +0.075 C 
ATOM     26  C   UNL     1      11.125  -4.429  -7.075  0.00  0.00    +0.024 C 
ATOM     27  C   UNL     1      10.343  -5.739  -7.186  0.00  0.00    +0.024 C 
ENDBRANCH  22  25
ENDBRANCH  18  19
ENDBRANCH   2  18
TORSDOF 6
