REMARK  Name = ZINC65404920
REMARK  7 active torsions:
REMARK  status: ('A' for Active; 'I' for Inactive)
REMARK    1  A    between atoms: C_1  and  C_2
REMARK    2  A    between atoms: C_10  and  C_12
REMARK    3  A    between atoms: C_12  and  N_13
REMARK    4  A    between atoms: C_21  and  C_23
REMARK    5  A    between atoms: N_25  and  C_26
REMARK    6  A    between atoms: C_26  and  C_27
REMARK    7  A    between atoms: C_27  and  O_28
REMARK                            x       y       z     vdW  Elec       q    Type
REMARK                         _______ _______ _______ _____ _____    ______ ____
ROOT
ATOM      1  N   UNL     1       1.354  -1.642   3.132  0.00  0.00    -0.297 NA
ATOM      2  C   UNL     1       0.226  -1.477   4.053  0.00  0.00    +0.101 C 
ATOM      3  C   UNL     1       0.299  -2.485   5.215  0.00  0.00    +0.121 C 
ATOM      4  N   UNL     1       1.595  -2.331   5.835  0.00  0.00    -0.220 NA
ATOM      5  C   UNL     1       2.661  -2.688   4.860  0.00  0.00    +0.115 C 
ATOM      6  C   UNL     1       2.667  -1.585   3.811  0.00  0.00    +0.109 C 
ATOM      7  C   UNL     1       3.868  -2.753   5.752  0.00  0.00    +0.024 C 
ATOM      8  C   UNL     1       3.376  -2.923   6.998  0.00  0.00    +0.101 C 
ATOM      9  N   UNL     1       1.964  -2.984   6.951  0.00  0.00    -0.273 N 
ATOM     10  H   UNL     1       1.379  -3.412   7.596  0.00  0.00    +0.167 HD
ENDROOT
BRANCH   8  11
ATOM     11  C   UNL     1       4.190  -3.030   8.224  0.00  0.00    +0.259 C 
ATOM     12  O   UNL     1       5.402  -2.965   8.157  0.00  0.00    -0.269 OA
ATOM     13  N   UNL     1       3.590  -3.199   9.419  0.00  0.00    -0.308 N 
ATOM     14  H   UNL     1       2.622  -3.250   9.473  0.00  0.00    +0.149 HD
BRANCH  13  15
ATOM     15  C   UNL     1       4.397  -3.305  10.636  0.00  0.00    +0.132 C 
BRANCH  15  16
ATOM     16  C   UNL     1       3.477  -3.490  11.845  0.00  0.00    +0.174 C 
BRANCH  16  17
ATOM     17  O   UNL     1       2.793  -4.740  11.735  0.00  0.00    -0.393 OA
ATOM     18  H   UNL     1       2.191  -4.925  12.468  0.00  0.00    +0.209 HD
ENDBRANCH  16  17
ENDBRANCH  15  16
ENDBRANCH  13  15
ENDBRANCH   8  11
BRANCH   1  19
ATOM     19  C   UNL     1       1.285  -0.666   2.036  0.00  0.00    +0.113 C 
BRANCH  19  29
ATOM     20  C   UNL     1      -0.018   1.503   0.010  0.00  0.00    +0.042 C 
ATOM     21  C   UNL     1       0.002  -0.004   0.002  0.00  0.00    -0.040 C 
ATOM     22  C   UNL     1       0.009  -0.811  -1.083  0.00  0.00    +0.002 A 
ATOM     23  C   UNL     1      -0.001  -0.538  -2.525  0.00  0.00    +0.048 A 
ATOM     24  C   UNL     1       0.009  -1.579  -3.391  0.00  0.00    +0.124 A 
ATOM     25  C   UNL     1       0.029  -2.909  -2.944  0.00  0.00    +0.040 A 
ATOM     26  C   UNL     1       0.039  -3.238  -1.635  0.00  0.00    +0.029 A 
ATOM     27  C   UNL     1       0.030  -2.223  -0.638  0.00  0.00    +0.043 A 
ATOM     28  N   UNL     1       0.036  -2.286   0.671  0.00  0.00    -0.376 N 
ATOM     29  C   UNL     1       0.026  -0.920   1.206  0.00  0.00    +0.120 C 
ATOM     30  F   UNL     1      -0.001  -1.331  -4.719  0.00  0.00    -0.205 F 
ATOM     31  H   UNL     1       0.048  -3.100   1.199  0.00  0.00    +0.160 HD
ENDBRANCH  19  29
ENDBRANCH   1  19
TORSDOF 6
