REMARK  Name = ZINC20566406
REMARK  8 active torsions:
REMARK  status: ('A' for Active; 'I' for Inactive)
REMARK    1  A    between atoms: C_1  and  C_2
REMARK    2  A    between atoms: C_2  and  C_3
REMARK    3  A    between atoms: C_3  and  C_4
REMARK    4  A    between atoms: C_4  and  N_5
REMARK    5  A    between atoms: C_10  and  C_29
REMARK    6  A    between atoms: C_21  and  C_28
REMARK    7  A    between atoms: C_22  and  C_27
REMARK    8  A    between atoms: C_29  and  C_30
REMARK                            x       y       z     vdW  Elec       q    Type
REMARK                         _______ _______ _______ _____ _____    ______ ____
ROOT
ATOM      1  N   UNL     1       1.425  -2.500  -2.470  0.00  0.00    -0.242 N 
ATOM      2  C   UNL     1       0.784  -2.738  -3.621  0.00  0.00    +0.227 C 
ATOM      3  O   UNL     1      -0.406  -2.600  -3.801  0.00  0.00    -0.275 OA
ATOM      4  C   UNL     1       1.777  -3.205  -4.661  0.00  0.00    +0.107 C 
ATOM      5  C   UNL     1       1.497  -4.683  -5.005  0.00  0.00    +0.076 C 
ATOM      6  N   UNL     1       2.266  -5.462  -3.998  0.00  0.00    -0.295 NA
ATOM      7  C   UNL     1       3.520  -4.704  -3.837  0.00  0.00    +0.136 C 
ATOM      8  C   UNL     1       3.128  -3.207  -3.893  0.00  0.00    +0.122 C 
ATOM      9  C   UNL     1       2.743  -2.723  -2.512  0.00  0.00    +0.228 C 
ATOM     10  O   UNL     1       3.510  -2.565  -1.587  0.00  0.00    -0.275 OA
ATOM     11  C   UNL     1       4.212  -5.050  -2.550  0.00  0.00    +0.004 A 
ATOM     12  C   UNL     1       3.847  -4.969  -1.224  0.00  0.00    +0.008 A 
ATOM     13  C   UNL     1       4.726  -5.378  -0.237  0.00  0.00    +0.004 A 
ATOM     14  C   UNL     1       5.972  -5.868  -0.585  0.00  0.00    -0.046 A 
ATOM     15  C   UNL     1       6.343  -5.949  -1.911  0.00  0.00    -0.026 A 
ATOM     16  C   UNL     1       5.464  -5.540  -2.911  0.00  0.00    +0.042 A 
ATOM     17  N   UNL     1       5.607  -5.524  -4.300  0.00  0.00    -0.283 N 
ATOM     18  C   UNL     1       4.509  -5.046  -4.918  0.00  0.00    +0.243 C 
ATOM     19  O   UNL     1       4.349  -4.917  -6.113  0.00  0.00    -0.273 OA
ATOM     20  C   UNL     1       7.703  -6.483  -2.278  0.00  0.00    +0.046 C 
ATOM     21  C   UNL     1       6.928  -6.315   0.490  0.00  0.00    +0.044 C 
ATOM     22  H   UNL     1       1.763  -5.520  -3.125  0.00  0.00    +0.124 HD
ATOM     23  H   UNL     1       6.404  -5.822  -4.766  0.00  0.00    +0.155 HD
ENDROOT
BRANCH   1  24
ATOM     24  C   UNL     1       0.739  -2.027  -1.265  0.00  0.00    +0.116 C 
BRANCH  24  25
ATOM     25  C   UNL     1       0.718  -0.497  -1.257  0.00  0.00    +0.019 C 
BRANCH  25  27
ATOM     26  C   UNL     1      -0.019   1.526   0.010  0.00  0.00    +0.004 C 
ATOM     27  C   UNL     1       0.002  -0.004   0.002  0.00  0.00    -0.002 C 
ENDBRANCH  25  27
ENDBRANCH  24  25
ENDBRANCH   1  24
BRANCH   5  28
ATOM     28  C   UNL     1       0.002  -4.984  -4.886  0.00  0.00    +0.115 C 
BRANCH  28  29
ATOM     29  C   UNL     1      -0.265  -6.395  -5.344  0.00  0.00    +0.212 C 
ATOM     30  O   UNL     1       0.651  -7.091  -5.728  0.00  0.00    -0.276 OA
ATOM     31  N   UNL     1      -1.521  -6.883  -5.327  0.00  0.00    -0.329 N 
ATOM     32  H   UNL     1      -2.254  -6.325  -5.020  0.00  0.00    +0.145 HD
ATOM     33  H   UNL     1      -1.693  -7.791  -5.622  0.00  0.00    +0.145 HD
ENDBRANCH  28  29
ENDBRANCH   5  28
TORSDOF 5
