REMARK  Name = ZINC13124279
REMARK  3 active torsions:
REMARK  status: ('A' for Active; 'I' for Inactive)
REMARK    1  A    between atoms: C_1  and  C_2
REMARK    2  A    between atoms: C_5  and  C_11
REMARK    3  A    between atoms: C_7  and  N_8
REMARK                            x       y       z     vdW  Elec       q    Type
REMARK                         _______ _______ _______ _____ _____    ______ ____
ROOT
ATOM      1  C   UNL     1      -0.441   1.375   0.633  0.00  0.00    +0.046 C 
ATOM      2  C   UNL     1      -0.183  -0.072   0.299  0.00  0.00    -0.020 A 
ATOM      3  C   UNL     1      -0.341  -0.518  -1.002  0.00  0.00    +0.006 A 
ATOM      4  C   UNL     1      -0.107  -1.839  -1.315  0.00  0.00    +0.008 A 
ATOM      5  C   UNL     1       0.292  -2.732  -0.313  0.00  0.00    -0.021 A 
ATOM      6  C   UNL     1       0.449  -2.273   1.000  0.00  0.00    +0.041 A 
ATOM      7  C   UNL     1       0.216  -0.947   1.295  0.00  0.00    +0.130 A 
ENDROOT
BRANCH   5   8
ATOM      8  C   UNL     1       0.543  -4.141  -0.637  0.00  0.00    +0.041 C 
ATOM      9  C   UNL     1       0.514  -4.558  -1.937  0.00  0.00    +0.129 C 
ATOM     10  C   UNL     1       0.848  -5.903  -2.448  0.00  0.00    +0.268 C 
ATOM     11  O   UNL     1       1.205  -6.870  -1.801  0.00  0.00    -0.268 OA
ATOM     12  N   UNL     1       0.671  -5.833  -3.786  0.00  0.00    -0.259 N 
ATOM     13  C   UNL     1       0.262  -4.563  -4.102  0.00  0.00    +0.172 C 
ATOM     14  S   UNL     1      -0.091  -4.007  -5.737  0.00  0.00    -0.014 SA
ATOM     15  N   UNL     1       0.164  -3.819  -3.031  0.00  0.00    -0.220 NA
ATOM     16  H   UNL     1       0.810  -6.558  -4.415  0.00  0.00    +0.157 HD
ENDBRANCH   5   8
BRANCH   7  17
ATOM     17  N   UNL     1       0.388  -0.458   2.682  0.00  0.00    +0.057 N 
ATOM     18  O   UNL     1       0.851   0.641   2.882  0.00  0.00    -0.126 OA
ATOM     19  O   UNL     1       0.065  -1.157   3.614  0.00  0.00    -0.126 OA
ENDBRANCH   7  17
TORSDOF 2
