REMARK  Name = ZINC49960874
REMARK  4 active torsions:
REMARK  status: ('A' for Active; 'I' for Inactive)
REMARK    1  A    between atoms: C_1  and  C_2
REMARK    2  A    between atoms: C_4  and  N_8
REMARK    3  A    between atoms: C_9  and  N_20
REMARK    4  A    between atoms: C_11  and  C_13
REMARK                            x       y       z     vdW  Elec       q    Type
REMARK                         _______ _______ _______ _____ _____    ______ ____
ROOT
ATOM      1  N   UNL     1       0.029  -2.835  -2.330  0.00  0.00    -0.200 N 
ATOM      2  C   UNL     1       0.507  -4.104  -2.475  0.00  0.00    +0.122 A 
ATOM      3  C   UNL     1       0.325  -4.467  -3.772  0.00  0.00    +0.073 A 
ATOM      4  C   UNL     1      -0.282  -3.386  -4.441  0.00  0.00    +0.096 A 
ATOM      5  N   UNL     1      -0.462  -2.414  -3.572  0.00  0.00    -0.163 NA
ENDROOT
BRANCH   1   9
ATOM      6  C   UNL     1      -0.018   1.503   0.010  0.00  0.00    +0.066 C 
ATOM      7  C   UNL     1       0.002  -0.004   0.002  0.00  0.00    +0.043 A 
ATOM      8  C   UNL     1       0.006  -0.698  -1.194  0.00  0.00    +0.071 A 
ATOM      9  C   UNL     1       0.025  -2.091  -1.152  0.00  0.00    +0.159 A 
ATOM     10  N   UNL     1       0.039  -2.698   0.030  0.00  0.00    -0.217 NA
ATOM     11  C   UNL     1       0.034  -1.999   1.147  0.00  0.00    +0.223 A 
ATOM     12  N   UNL     1       0.022  -0.681   1.141  0.00  0.00    -0.240 NA
ENDBRANCH   1   9
BRANCH   4  13
ATOM     13  C   UNL     1      -0.658  -3.352  -5.875  0.00  0.00    +0.016 A 
ATOM     14  C   UNL     1      -0.421  -4.459  -6.688  0.00  0.00    +0.011 A 
ATOM     15  C   UNL     1      -0.773  -4.421  -8.021  0.00  0.00    +0.001 A 
ATOM     16  C   UNL     1      -1.361  -3.287  -8.553  0.00  0.00    +0.001 A 
ATOM     17  C   UNL     1      -1.599  -2.185  -7.753  0.00  0.00    +0.016 A 
ATOM     18  C   UNL     1      -1.256  -2.214  -6.415  0.00  0.00    +0.027 A 
ATOM     19 BR   UNL     1      -1.591  -0.709  -5.319  0.00  0.00    -0.050 Br
ENDBRANCH   4  13
BRANCH   2  20
ATOM     20  N   UNL     1       1.077  -4.886  -1.476  0.00  0.00    -0.343 N 
ATOM     21  H   UNL     1       1.164  -4.535  -0.576  0.00  0.00    +0.144 HD
ATOM     22  H   UNL     1       1.389  -5.782  -1.680  0.00  0.00    +0.144 HD
ENDBRANCH   2  20
TORSDOF 3
