REMARK  Name = ZINC67371176
REMARK  5 active torsions:
REMARK  status: ('A' for Active; 'I' for Inactive)
REMARK    1  A    between atoms: C_1  and  C_2
REMARK    2  A    between atoms: C_2  and  C_9
REMARK    3  A    between atoms: C_12  and  C_15
REMARK    4  A    between atoms: C_15  and  N_16
REMARK    5  A    between atoms: C_21  and  C_23
REMARK                            x       y       z     vdW  Elec       q    Type
REMARK                         _______ _______ _______ _____ _____    ______ ____
ROOT
ATOM      1  C   UNL     1      -1.401  -0.551  -0.040  0.00  0.00    -0.016 A 
ATOM      2  C   UNL     1      -1.853  -1.374   0.975  0.00  0.00    +0.006 A 
ATOM      3  C   UNL     1      -3.140  -1.876   0.937  0.00  0.00    +0.005 A 
ATOM      4  C   UNL     1      -3.976  -1.556  -0.117  0.00  0.00    -0.030 A 
ATOM      5  C   UNL     1      -3.525  -0.733  -1.132  0.00  0.00    +0.005 A 
ATOM      6  C   UNL     1      -2.239  -0.227  -1.091  0.00  0.00    +0.006 A 
ENDROOT
BRANCH   1   8
ATOM      7  C   UNL     1      -0.019   1.526   0.010  0.00  0.00    +0.047 C 
ATOM      8  C   UNL     1       0.002  -0.004   0.002  0.00  0.00    +0.135 C 
ATOM      9  C   UNL     1       0.815  -0.520  -1.169  0.00  0.00    +0.248 C 
ATOM     10  O   UNL     1       0.595  -0.342  -2.348  0.00  0.00    -0.273 OA
ATOM     11  N   UNL     1       1.833  -1.217  -0.627  0.00  0.00    -0.238 N 
ATOM     12  C   UNL     1       1.777  -1.214   0.710  0.00  0.00    +0.307 C 
ATOM     13  O   UNL     1       2.586  -1.776   1.421  0.00  0.00    -0.252 OA
ATOM     14  N   UNL     1       0.724  -0.519   1.178  0.00  0.00    -0.282 N 
ATOM     15  H   UNL     1       2.520  -1.667  -1.143  0.00  0.00    +0.159 HD
ATOM     16  H   UNL     1       0.487  -0.383   2.109  0.00  0.00    +0.152 HD
ENDBRANCH   1   8
BRANCH   4  17
ATOM     17  C   UNL     1      -5.379  -2.104  -0.159  0.00  0.00    +0.138 C 
BRANCH  17  18
ATOM     18  N   UNL     1      -6.287  -1.177   0.522  0.00  0.00    -0.325 N 
ATOM     19  C   UNL     1      -7.643  -1.471   0.611  0.00  0.00    +0.121 A 
ATOM     20  C   UNL     1      -8.129  -2.653   0.055  0.00  0.00    +0.045 A 
ATOM     21  C   UNL     1      -9.479  -2.940   0.147  0.00  0.00    +0.026 A 
ATOM     22  C   UNL     1     -10.308  -2.034   0.795  0.00  0.00    +0.077 A 
ATOM     23  C   UNL     1      -9.757  -0.871   1.329  0.00  0.00    +0.160 A 
ATOM     24  N   UNL     1      -8.454  -0.630   1.227  0.00  0.00    -0.220 NA
ATOM     25 CL   UNL     1     -12.010  -2.347   0.937  0.00  0.00    -0.081 Cl
ATOM     26  H   UNL     1      -5.941  -0.358   0.910  0.00  0.00    +0.148 HD
BRANCH  23  27
ATOM     27  C   UNL     1     -10.602   0.071   2.000  0.00  0.00    +0.121 C 
ATOM     28  N   UNL     1     -11.273   0.819   2.532  0.00  0.00    -0.189 NA
ENDBRANCH  23  27
ENDBRANCH  17  18
ENDBRANCH   4  17
TORSDOF 4
