REMARK  Name = ZINC55395407
REMARK  9 active torsions:
REMARK  status: ('A' for Active; 'I' for Inactive)
REMARK    1  A    between atoms: C_1  and  C_2
REMARK    2  A    between atoms: C_2  and  C_3
REMARK    3  A    between atoms: C_3  and  C_5
REMARK    4  A    between atoms: C_3  and  C_6
REMARK    5  A    between atoms: C_6  and  C_8
REMARK    6  A    between atoms: C_6  and  N_22
REMARK    7  A    between atoms: N_10  and  C_11
REMARK    8  A    between atoms: C_14  and  C_21
REMARK    9  A    between atoms: N_16  and  C_20
REMARK                            x       y       z     vdW  Elec       q    Type
REMARK                         _______ _______ _______ _____ _____    ______ ____
ROOT
ATOM      1  C   UNL     1      -2.829  -2.580  -0.111  0.00  0.00    +0.238 C 
ATOM      2  O   UNL     1      -3.378  -2.866  -1.154  0.00  0.00    -0.273 OA
ATOM      3  N   UNL     1      -3.486  -2.723   1.058  0.00  0.00    -0.283 N 
ATOM      4  H   UNL     1      -3.026  -2.560   1.896  0.00  0.00    +0.155 HD
ENDROOT
BRANCH   3   5
ATOM      5  C   UNL     1      -4.834  -3.108   1.062  0.00  0.00    +0.052 A 
ATOM      6  C   UNL     1      -5.310  -3.998   0.112  0.00  0.00    +0.038 A 
ATOM      7  C   UNL     1      -6.664  -4.349   0.161  0.00  0.00    +0.043 A 
ATOM      8  C   UNL     1      -7.516  -5.225  -0.635  0.00  0.00    +0.069 A 
ATOM      9  N   UNL     1      -8.717  -5.172  -0.133  0.00  0.00    -0.174 NA
ATOM     10  N   UNL     1      -8.740  -4.308   0.966  0.00  0.00    -0.249 N 
ATOM     11  C   UNL     1      -7.486  -3.792   1.161  0.00  0.00    +0.158 A 
ATOM     12  N   UNL     1      -6.976  -2.944   2.046  0.00  0.00    -0.234 NA
ATOM     13  C   UNL     1      -5.707  -2.603   2.024  0.00  0.00    +0.136 A 
ATOM     14  C   UNL     1      -9.919  -4.002   1.780  0.00  0.00    +0.174 C 
ATOM     15  C   UNL     1      -7.085  -6.045  -1.824  0.00  0.00    +0.068 C 
ENDBRANCH   3   5
BRANCH   1  16
ATOM     16  C   UNL     1      -1.413  -2.064  -0.121  0.00  0.00    +0.163 C 
BRANCH  16  17
ATOM     17  N   UNL     1      -0.767  -2.437  -1.382  0.00  0.00    -0.288 N 
ATOM     18  C   UNL     1      -1.278  -2.009  -2.553  0.00  0.00    +0.298 C 
ATOM     19  O   UNL     1      -2.275  -1.313  -2.563  0.00  0.00    -0.253 OA
ATOM     20  N   UNL     1      -0.683  -2.351  -3.713  0.00  0.00    -0.313 N 
ATOM     21  H   UNL     1       0.029  -2.992  -1.373  0.00  0.00    +0.151 HD
ATOM     22  H   UNL     1       0.112  -2.906  -3.705  0.00  0.00    +0.146 HD
ATOM     23  H   UNL     1      -1.051  -2.043  -4.556  0.00  0.00    +0.146 HD
ENDBRANCH  16  17
BRANCH  16  24
ATOM     24  C   UNL     1      -1.424  -0.541   0.016  0.00  0.00    +0.015 C 
ATOM     25  C   UNL     1      -2.099  -0.152   1.333  0.00  0.00    +0.010 C 
BRANCH  24  27
ATOM     26  C   UNL     1      -0.001   1.513   0.017  0.00  0.00    +0.004 C 
ATOM     27  C   UNL     1       0.013  -0.017   0.005  0.00  0.00    +0.002 C 
ENDBRANCH  24  27
ENDBRANCH  16  24
ENDBRANCH   1  16
TORSDOF 5
