REMARK  Name = ZINC02519585
REMARK  8 active torsions:
REMARK  status: ('A' for Active; 'I' for Inactive)
REMARK    1  A    between atoms: C_1  and  C_2
REMARK    2  A    between atoms: C_3  and  C_21
REMARK    3  A    between atoms: CA_4  and  C_19
REMARK    4  A    between atoms: C_7  and  C_8
REMARK    5  A    between atoms: C_8  and  C_9
REMARK    6  A    between atoms: C_10  and  C_18
REMARK    7  A    between atoms: C_11  and  C_17
REMARK    8  A    between atoms: CA_12  and  C_15
REMARK                            x       y       z     vdW  Elec       q    Type
REMARK                         _______ _______ _______ _____ _____    ______ ____
ROOT
ATOM      1  C   UNL     1      -3.649   2.633   3.220  0.00  0.00    +0.106 C 
ENDROOT
BRANCH   1   8
ATOM      2  C   UNL     1      -3.279   1.298   6.013  0.00  0.00    +0.046 C 
ATOM      3  C   UNL     1      -4.199   0.819   4.921  0.00  0.00    -0.026 A 
ATOM      4  C   UNL     1      -5.037  -0.296   4.982  0.00  0.00    -0.019 A 
ATOM      5  CA  UNL     1      -5.697  -0.372   3.767  0.00  0.00    +0.082 A 
ATOM      6  N   UNL     1      -5.263   0.685   2.996  0.00  0.00    -0.355 N 
ATOM      7  H   UNL     1      -5.556   0.883   2.093  0.00  0.00    +0.166 HD
ATOM      8  C   UNL     1      -4.363   1.397   3.704  0.00  0.00    +0.025 A 
ATOM      9  C   UNL     1      -5.189  -1.240   6.147  0.00  0.00    +0.046 C 
BRANCH   5  10
ATOM     10  C   UNL     1      -6.641  -1.353   3.388  0.00  0.00    +0.276 C 
ATOM     11  O   UNL     1      -7.152  -1.310   2.287  0.00  0.00    -0.294 OA
ENDBRANCH   5  10
ENDBRANCH   1   8
BRANCH   1  12
ATOM     12  C   UNL     1      -2.308   2.248   2.651  0.00  0.00    +0.025 A 
ATOM     13  C   UNL     1      -2.083   1.835   1.378  0.00  0.00    -0.026 A 
ATOM     14  C   UNL     1      -0.718   1.572   1.248  0.00  0.00    -0.019 A 
ATOM     15  CA  UNL     1      -0.135   1.848   2.473  0.00  0.00    +0.082 A 
ATOM     16  N   UNL     1      -1.139   2.264   3.322  0.00  0.00    -0.355 N 
ATOM     17  H   UNL     1      -1.022   2.525   4.249  0.00  0.00    +0.166 HD
ATOM     18  C   UNL     1      -0.013   1.086   0.008  0.00  0.00    +0.046 C 
ATOM     19  C   UNL     1      -3.122   1.683   0.298  0.00  0.00    +0.046 C 
BRANCH  15  20
ATOM     20  C   UNL     1       1.236   1.726   2.794  0.00  0.00    +0.276 C 
ATOM     21  O   UNL     1       1.625   2.001   3.911  0.00  0.00    -0.294 OA
ENDBRANCH  15  20
ENDBRANCH   1  12
TORSDOF 4
