REMARK  Name = ZINC32096281
REMARK  4 active torsions:
REMARK  status: ('A' for Active; 'I' for Inactive)
REMARK    1  A    between atoms: C_10  and  C_15
REMARK    2  A    between atoms: C_12  and  O_14
REMARK    3  A    between atoms: C_15  and  C_16
REMARK    4  A    between atoms: C_16  and  N_18
REMARK                            x       y       z     vdW  Elec       q    Type
REMARK                         _______ _______ _______ _____ _____    ______ ____
ROOT
ATOM      1  C   UNL     1       0.006   1.348   0.029  0.00  0.00    +0.001 A 
ATOM      2  C   UNL     1       1.191   2.068   0.014  0.00  0.00    +0.002 A 
ATOM      3  C   UNL     1       2.400   1.412  -0.007  0.00  0.00    +0.028 A 
ATOM      4  C   UNL     1       2.451   0.009  -0.016  0.00  0.00    +0.079 A 
ATOM      5  C   UNL     1       1.254  -0.718  -0.013  0.00  0.00    +0.062 A 
ATOM      6  C   UNL     1       0.032  -0.027   0.015  0.00  0.00    +0.015 A 
ATOM      7  C   UNL     1       1.208  -2.183  -0.049  0.00  0.00    +0.247 C 
ATOM      8  O   UNL     1       0.373  -2.746   0.634  0.00  0.00    -0.270 OA
ATOM      9  N   UNL     1       2.026  -2.937  -0.787  0.00  0.00    -0.299 N 
ATOM     10  C   UNL     1       3.074  -2.328  -1.607  0.00  0.00    +0.167 C 
ATOM     11  C   UNL     1       4.027  -1.594  -0.706  0.00  0.00    +0.209 C 
ATOM     12  N   UNL     1       3.679  -0.570  -0.021  0.00  0.00    -0.215 NA
ATOM     13  H   UNL     1       1.925  -3.902  -0.779  0.00  0.00    +0.150 HD
ENDROOT
BRANCH  11  14
ATOM     14  O   UNL     1       5.298  -2.030  -0.617  0.00  0.00    -0.494 OA
ATOM     15  H   UNL     1       5.852  -1.509  -0.019  0.00  0.00    +0.293 HD
ENDBRANCH  11  14
BRANCH  10  16
ATOM     16  C   UNL     1       2.445  -1.350  -2.600  0.00  0.00    +0.129 C 
BRANCH  16  17
ATOM     17  C   UNL     1       1.573  -2.107  -3.568  0.00  0.00    +0.241 C 
ATOM     18  O   UNL     1       1.465  -3.315  -3.473  0.00  0.00    -0.274 OA
BRANCH  17  19
ATOM     19  N   UNL     1       0.922  -1.456  -4.526  0.00  0.00    -0.157 NA
ATOM     20  C   UNL     1       0.236  -2.134  -5.444  0.00  0.00    +0.164 A 
ATOM     21  N   UNL     1       0.002  -3.470  -5.490  0.00  0.00    -0.335 N 
ATOM     22  H   UNL     1       0.354  -4.049  -4.796  0.00  0.00    +0.168 HD
ATOM     23  C   UNL     1      -0.738  -4.003  -6.528  0.00  0.00    +0.055 A 
ATOM     24  C   UNL     1      -1.094  -5.338  -6.768  0.00  0.00    +0.027 A 
ATOM     25  C   UNL     1      -1.845  -5.675  -7.870  0.00  0.00    +0.002 A 
ATOM     26  C   UNL     1      -2.269  -4.713  -8.771  0.00  0.00    +0.001 A 
ATOM     27  C   UNL     1      -1.931  -3.388  -8.557  0.00  0.00    +0.017 A 
ATOM     28  C   UNL     1      -1.181  -3.049  -7.456  0.00  0.00    +0.039 A 
ATOM     29  S   UNL     1      -0.543  -1.528  -6.804  0.00  0.00    -0.052 S 
ENDBRANCH  17  19
ENDBRANCH  16  17
ENDBRANCH  10  16
TORSDOF 4
