REMARK  Name = ZINC19929048
REMARK  4 active torsions:
REMARK  status: ('A' for Active; 'I' for Inactive)
REMARK    1  A    between atoms: C_5  and  N_7
REMARK    2  A    between atoms: C_11  and  C_14
REMARK    3  A    between atoms: N_16  and  C_17
REMARK    4  A    between atoms: C_18  and  C_26
REMARK                            x       y       z     vdW  Elec       q    Type
REMARK                         _______ _______ _______ _____ _____    ______ ____
ROOT
ATOM      1  C   UNL     1      -2.568   1.844   0.024  0.00  0.00    +0.257 C 
ATOM      2  O   UNL     1      -2.734   0.638   0.017  0.00  0.00    -0.269 OA
ATOM      3  N   UNL     1      -3.632   2.670   0.033  0.00  0.00    -0.274 N 
ATOM      4  H   UNL     1      -3.482   3.760   0.039  0.00  0.00    +0.156 HD
ENDROOT
BRANCH   1  12
ATOM      5  C   UNL     1       3.577   2.789  -0.018  0.00  0.00    +0.003 A 
ATOM      6  C   UNL     1       2.512   1.947  -0.012  0.00  0.00    +0.010 A 
ATOM      7  C   UNL     1       1.187   2.454   0.004  0.00  0.00    +0.010 A 
ATOM      8  C   UNL     1       1.052   3.862   0.013  0.00  0.00    +0.052 A 
ATOM      9  C   UNL     1       2.143   4.704   0.006  0.00  0.00    +0.140 A 
ATOM     10  C   UNL     1       3.416   4.169  -0.009  0.00  0.00    +0.034 A 
ATOM     11  S   UNL     1      -0.706   4.110   0.031  0.00  0.00    -0.080 S 
ATOM     12  C   UNL     1      -1.209   2.398   0.021  0.00  0.00    +0.094 A 
ATOM     13  C   UNL     1      -0.021   1.732   0.012  0.00  0.00    +0.068 A 
ATOM     14 CL   UNL     1       0.002  -0.004   0.002  0.00  0.00    -0.082 Cl
BRANCH   9  15
ATOM     15  N   UNL     1       1.952   6.172   0.015  0.00  0.00    +0.058 N 
ATOM     16  O   UNL     1       2.919   6.912   0.008  0.00  0.00    -0.126 OA
ATOM     17  O   UNL     1       0.827   6.640   0.028  0.00  0.00    -0.126 OA
ENDBRANCH   9  15
ENDBRANCH   1  12
BRANCH   3  18
ATOM     18  C   UNL     1      -4.916   2.147   0.036  0.00  0.00    +0.090 A 
ATOM     19  C   UNL     1      -6.125   2.829   0.045  0.00  0.00    +0.084 A 
ATOM     20  C   UNL     1      -7.343   2.037   0.046  0.00  0.00    -0.018 A 
ATOM     21  C   UNL     1      -7.158   0.698   0.037  0.00  0.00    -0.004 A 
ATOM     22  S   UNL     1      -5.401   0.484   0.021  0.00  0.00    -0.077 S 
ATOM     23  C   UNL     1      -8.219  -0.359   0.036  0.00  0.00    +0.043 C 
ATOM     24  C   UNL     1      -9.553   0.294   0.424  0.00  0.00    +0.005 C 
ATOM     25  C   UNL     1      -9.738   1.568  -0.405  0.00  0.00    +0.005 C 
ATOM     26  C   UNL     1      -8.743   2.636   0.054  0.00  0.00    +0.037 C 
BRANCH  19  27
ATOM     27  C   UNL     1      -6.170   4.260   0.053  0.00  0.00    +0.102 C 
ATOM     28  N   UNL     1      -6.206   5.395   0.060  0.00  0.00    -0.191 NA
ENDBRANCH  19  27
ENDBRANCH   3  18
TORSDOF 4
