REMARK  Name = ZINC02513960
REMARK  1 active torsions:
REMARK  status: ('A' for Active; 'I' for Inactive)
REMARK    1  A    between atoms: CA_7  and  C_13
REMARK                            x       y       z     vdW  Elec       q    Type
REMARK                         _______ _______ _______ _____ _____    ______ ____
ROOT
ATOM      1  C   UNL     1      -2.907   1.518   0.069  0.00  0.00    +0.000 C 
ATOM      2  C   UNL     1      -2.196   1.044  -1.199  0.00  0.00    +0.000 C 
ATOM      3  C   UNL     1      -0.767   1.592  -1.222  0.00  0.00    +0.002 C 
ATOM      4  C   UNL     1      -0.013   1.086   0.008  0.00  0.00    -0.025 C 
ATOM      5  C   UNL     1       1.422   1.615  -0.003  0.00  0.00    -0.078 C 
ATOM      6  CA  UNL     1       1.490   1.618   2.422  0.00  0.00    +0.044 C 
ATOM      7  C   UNL     1       0.053   1.097   2.500  0.00  0.00    -0.001 C 
ATOM      8  C   UNL     1      -0.722   1.579   1.272  0.00  0.00    -0.011 C 
ATOM      9  C   UNL     1      -2.146   1.023   1.302  0.00  0.00    +0.004 C 
ATOM     10  N   UNL     1       2.138   1.124   1.192  0.00  0.00    +0.388 N 
ATOM     11  H1  UNL     1       3.109   1.457   1.164  0.00  0.00    -0.085 HD
ATOM     12  H2  UNL     1       2.128   0.097   1.194  0.00  0.00    -0.085 HD
ENDROOT
BRANCH   6  13
ATOM     13  C   UNL     1       2.267   1.127   3.617  0.00  0.00    +0.343 C 
ATOM     14  O   UNL     1       3.007   0.178   3.508  0.00  0.00    -0.248 OA
ATOM     15  OXT UNL     1       2.138   1.745   4.801  0.00  0.00    -0.248 OA
ENDBRANCH   6  13
TORSDOF 1
