REMARK  Name = ZINC37581318
REMARK  8 active torsions:
REMARK  status: ('A' for Active; 'I' for Inactive)
REMARK    1  A    between atoms: C_1  and  C_2
REMARK    2  A    between atoms: C_2  and  C_4
REMARK    3  A    between atoms: C_2  and  N_9
REMARK    4  A    between atoms: N_9  and  S_10
REMARK    5  A    between atoms: S_10  and  C_13
REMARK    6  A    between atoms: C_18  and  C_19
REMARK    7  A    between atoms: C_20  and  C_21
REMARK    8  A    between atoms: C_21  and  N_22
REMARK                            x       y       z     vdW  Elec       q    Type
REMARK                         _______ _______ _______ _____ _____    ______ ____
ROOT
ATOM      1  C   UNL     1      -1.573   0.457   2.162  0.00  0.00    +0.121 A 
ATOM      2  C   UNL     1      -2.602   1.317   2.487  0.00  0.00    +0.030 A 
ATOM      3  C   UNL     1      -2.337   2.492   3.168  0.00  0.00    +0.002 A 
ATOM      4  C   UNL     1      -1.040   2.812   3.528  0.00  0.00    +0.001 A 
ATOM      5  C   UNL     1      -0.002   1.961   3.209  0.00  0.00    +0.019 A 
ATOM      6  C   UNL     1      -0.264   0.772   2.527  0.00  0.00    +0.051 A 
ENDROOT
BRANCH   1   7
ATOM      7  S   UNL     1      -1.913  -1.039   1.295  0.00  0.00    +0.060 S 
ATOM      8  O   UNL     1      -1.002  -1.093   0.206  0.00  0.00    -0.153 OA
ATOM      9  O   UNL     1      -3.322  -1.091   1.113  0.00  0.00    -0.153 OA
BRANCH   7  10
ATOM     10  N   UNL     1      -1.520  -2.291   2.305  0.00  0.00    -0.180 NA
ATOM     11  H   UNL     1      -0.785  -2.883   2.080  0.00  0.00    +0.149 HD
BRANCH  10  13
ATOM     12  C   UNL     1      -1.544  -1.854   4.712  0.00  0.00    +0.034 C 
ATOM     13  C   UNL     1      -2.281  -2.504   3.539  0.00  0.00    +0.139 C 
BRANCH  13  14
ATOM     14  C   UNL     1      -2.423  -3.982   3.792  0.00  0.00    +0.123 A 
ATOM     15  C   UNL     1      -3.515  -4.595   4.283  0.00  0.00    +0.046 A 
ATOM     16  C   UNL     1      -3.213  -5.974   4.357  0.00  0.00    +0.041 A 
ATOM     17  C   UNL     1      -1.954  -6.122   3.906  0.00  0.00    +0.195 A 
ATOM     18  O   UNL     1      -1.483  -4.913   3.560  0.00  0.00    -0.466 OA
ENDBRANCH  13  14
ENDBRANCH  10  13
ENDBRANCH   7  10
ENDBRANCH   1   7
BRANCH   6  19
ATOM     19  C   UNL     1       0.808  -0.119   2.198  0.00  0.00    -0.066 C 
ATOM     20  C   UNL     1       1.686  -0.850   1.928  0.00  0.00    -0.117 C 
BRANCH  20  21
ATOM     21  C   UNL     1       2.788  -1.766   1.590  0.00  0.00    +0.005 C 
BRANCH  21  22
ATOM     22  N   UNL     1       4.056  -1.209   2.080  0.00  0.00    +0.385 N 
ATOM     23  H   UNL     1       4.219  -0.312   1.648  0.00  0.00    -0.089 HD
ATOM     24  H   UNL     1       4.008  -1.095   3.082  0.00  0.00    -0.089 HD
ATOM     25  H   UNL     1       4.811  -1.837   1.849  0.00  0.00    -0.089 HD
ENDBRANCH  21  22
ENDBRANCH  20  21
ENDBRANCH   6  19
TORSDOF 7
