REMARK  Name = ZINC39252298
REMARK  10 active torsions:
REMARK  status: ('A' for Active; 'I' for Inactive)
REMARK    1  A    between atoms: C_1  and  O_2
REMARK    2  A    between atoms: O_2  and  C_3
REMARK    3  A    between atoms: C_3  and  C_4
REMARK    4  A    between atoms: C_8  and  N_11
REMARK    5  A    between atoms: C_12  and  C_14
REMARK    6  A    between atoms: N_19  and  C_21
REMARK    7  A    between atoms: C_21  and  C_22
REMARK    8  A    between atoms: C_22  and  C_23
REMARK    9  A    between atoms: C_26  and  O_32
REMARK   10  A    between atoms: O_32  and  C_33
REMARK                            x       y       z     vdW  Elec       q    Type
REMARK                         _______ _______ _______ _____ _____    ______ ____
ROOT
ATOM      1  C   UNL     1      -2.896  -7.072  -0.352  0.00  0.00    +0.101 C 
ATOM      2  C   UNL     1      -2.744  -7.197  -1.885  0.00  0.00    +0.110 C 
ATOM      3  C   UNL     1      -3.937  -8.023  -2.311  0.00  0.00    +0.216 C 
ATOM      4  O   UNL     1      -4.049  -8.583  -3.381  0.00  0.00    -0.276 OA
ATOM      5  N   UNL     1      -4.856  -8.047  -1.330  0.00  0.00    -0.300 N 
ATOM      6  C   UNL     1      -4.418  -7.262  -0.169  0.00  0.00    +0.121 C 
ENDROOT
BRANCH   1   8
ATOM      7  N   UNL     1      -1.176  -5.328  -0.009  0.00  0.00    -0.290 N 
ATOM      8  C   UNL     1      -2.462  -5.710   0.124  0.00  0.00    +0.220 C 
ATOM      9  O   UNL     1      -3.269  -4.957   0.627  0.00  0.00    -0.275 OA
ATOM     10  H   UNL     1      -0.531  -5.930  -0.411  0.00  0.00    +0.151 HD
BRANCH   7  14
ATOM     11  C   UNL     1       0.613  -2.097  -1.041  0.00  0.00    +0.155 C 
ATOM     12  N   UNL     1       1.217  -2.579   0.241  0.00  0.00    -0.239 NA
ATOM     13  N   UNL     1       0.730  -3.918   0.549  0.00  0.00    -0.226 NA
ATOM     14  C   UNL     1      -0.754  -4.004   0.454  0.00  0.00    +0.217 C 
ATOM     15  S   UNL     1      -1.111  -2.714  -0.815  0.00  0.00    -0.099 S 
ATOM     16  H   UNL     1       2.224  -2.561   0.195  0.00  0.00    +0.142 HD
ATOM     17  H   UNL     1       1.052  -4.221   1.456  0.00  0.00    +0.143 HD
BRANCH  11  18
ATOM     18  C   UNL     1       0.652  -0.570  -1.138  0.00  0.00    +0.190 C 
BRANCH  18  20
ATOM     19  C   UNL     1      -0.017   1.425   0.010  0.00  0.00    +0.194 C 
ATOM     20  O   UNL     1       0.002  -0.004   0.002  0.00  0.00    -0.381 OA
ENDBRANCH  18  20
ENDBRANCH  11  18
ENDBRANCH   7  14
ENDBRANCH   1   8
BRANCH   5  21
ATOM     21  C   UNL     1      -6.131  -8.764  -1.409  0.00  0.00    +0.112 C 
BRANCH  21  22
ATOM     22  C   UNL     1      -5.950 -10.187  -0.878  0.00  0.00    +0.056 C 
BRANCH  22  23
ATOM     23  C   UNL     1      -7.261 -10.925  -0.960  0.00  0.00    -0.021 A 
ATOM     24  C   UNL     1      -7.790 -11.636  -2.126  0.00  0.00    +0.006 A 
ATOM     25  C   UNL     1      -7.319 -11.855  -3.422  0.00  0.00    +0.056 A 
ATOM     26  C   UNL     1      -8.081 -12.591  -4.309  0.00  0.00    +0.121 A 
ATOM     27  C   UNL     1      -9.311 -13.111  -3.915  0.00  0.00    +0.047 A 
ATOM     28  C   UNL     1      -9.785 -12.900  -2.639  0.00  0.00    +0.030 A 
ATOM     29  C   UNL     1      -9.033 -12.163  -1.731  0.00  0.00    +0.047 A 
ATOM     30  N   UNL     1      -9.232 -11.791  -0.418  0.00  0.00    -0.360 N 
ATOM     31  C   UNL     1      -8.164 -11.060   0.025  0.00  0.00    +0.087 A 
ATOM     32  H   UNL     1     -10.011 -12.018   0.114  0.00  0.00    +0.165 HD
BRANCH  26  33
ATOM     33  O   UNL     1      -7.628 -12.807  -5.573  0.00  0.00    -0.495 OA
ATOM     34  C   UNL     1      -8.465 -13.576  -6.439  0.00  0.00    +0.277 C 
ENDBRANCH  26  33
ENDBRANCH  22  23
ENDBRANCH  21  22
ENDBRANCH   5  21
TORSDOF 8
