REMARK  Name = ZINC48896054
REMARK  4 active torsions:
REMARK  status: ('A' for Active; 'I' for Inactive)
REMARK    1  A    between atoms: C_2  and  C_11
REMARK    2  A    between atoms: C_11  and  C_13
REMARK    3  A    between atoms: C_11  and  N_15
REMARK    4  A    between atoms: C_13  and  N_14
REMARK                            x       y       z     vdW  Elec       q    Type
REMARK                         _______ _______ _______ _____ _____    ______ ____
ROOT
ATOM      1  C   UNL     1       1.065   3.555  -0.012  0.00  0.00    +0.070 C 
ENDROOT
BRANCH   1   3
ATOM      2  C   UNL     1      -0.038   1.330   0.300  0.00  0.00    +0.054 A 
ATOM      3  C   UNL     1       1.126   2.055   0.124  0.00  0.00    -0.027 A 
ATOM      4  C   UNL     1       2.346   1.408   0.073  0.00  0.00    +0.024 A 
ATOM      5  C   UNL     1       2.408   0.032   0.197  0.00  0.00    +0.064 A 
ATOM      6  C   UNL     1       1.245  -0.701   0.373  0.00  0.00    +0.180 A 
ATOM      7  C   UNL     1       0.016  -0.048   0.425  0.00  0.00    +0.168 A 
ATOM      8  O   UNL     1      -0.966  -0.980   0.603  0.00  0.00    -0.453 OA
ATOM      9  C   UNL     1      -0.367  -2.241   0.251  0.00  0.00    +0.466 C 
ATOM     10  O   UNL     1       1.033  -2.042   0.518  0.00  0.00    -0.451 OA
ATOM     11 BR   UNL     1       4.079  -0.850   0.126  0.00  0.00    -0.046 Br
ENDBRANCH   1   3
BRANCH   1  12
ATOM     12  N   UNL     1       2.148   4.012  -0.892  0.00  0.00    -0.296 NA
ATOM     13  C   UNL     1       1.869   5.343  -1.417  0.00  0.00    +0.086 C 
ATOM     14  C   UNL     1       2.133   5.344  -2.925  0.00  0.00    +0.026 C 
ATOM     15  C   UNL     1       3.388   4.571  -3.365  0.00  0.00    +0.070 C 
ATOM     16  S   UNL     1       4.820   4.883  -2.317  0.00  0.00    -0.159 S 
ATOM     17  C   UNL     1       4.606   3.697  -0.928  0.00  0.00    +0.084 C 
ATOM     18  C   UNL     1       3.422   4.084  -0.166  0.00  0.00    +0.095 C 
ENDBRANCH   1  12
BRANCH   1  19
ATOM     19  C   UNL     1       1.222   4.199   1.367  0.00  0.00    -0.063 C 
BRANCH  19  20
ATOM     20  N   UNL     1       1.196   5.662   1.230  0.00  0.00    +0.379 N 
ATOM     21  H   UNL     1       1.163   6.085   2.145  0.00  0.00    -0.090 HD
ATOM     22  H   UNL     1       2.027   5.969   0.747  0.00  0.00    -0.090 HD
ATOM     23  H   UNL     1       0.380   5.936   0.704  0.00  0.00    -0.090 HD
ENDBRANCH  19  20
ENDBRANCH   1  19
TORSDOF 4
