REMARK  Name = ZINC56709239
REMARK  9 active torsions:
REMARK  status: ('A' for Active; 'I' for Inactive)
REMARK    1  A    between atoms: C_1  and  C_2
REMARK    2  A    between atoms: C_4  and  O_21
REMARK    3  A    between atoms: C_7  and  N_8
REMARK    4  A    between atoms: N_11  and  C_12
REMARK    5  A    between atoms: N_11  and  C_13
REMARK    6  A    between atoms: C_13  and  C_14
REMARK    7  A    between atoms: C_19  and  O_20
REMARK    8  A    between atoms: O_21  and  C_22
REMARK    9  A    between atoms: C_22  and  C_23
REMARK                            x       y       z     vdW  Elec       q    Type
REMARK                         _______ _______ _______ _____ _____    ______ ____
ROOT
ATOM      1  N   UNL     1       0.025  -0.011   2.418  0.00  0.00    -0.269 N 
ATOM      2  C   UNL     1      -0.056  -0.689   3.580  0.00  0.00    +0.307 C 
ATOM      3  O   UNL     1      -0.040  -1.905   3.577  0.00  0.00    -0.252 OA
ATOM      4  N   UNL     1      -0.156  -0.019   4.745  0.00  0.00    -0.284 N 
ATOM      5  C   UNL     1      -0.176   1.446   4.749  0.00  0.00    +0.134 C 
ATOM      6  H   UNL     1       0.077   0.958   2.424  0.00  0.00    +0.156 HD
ENDROOT
BRANCH   1  13
ATOM      7  C   UNL     1      -1.267   1.181   0.182  0.00  0.00    +0.046 C 
ATOM      8  C   UNL     1      -0.585  -0.159   0.085  0.00  0.00    -0.026 A 
ATOM      9  C   UNL     1      -0.571  -0.841  -1.116  0.00  0.00    +0.050 A 
ATOM     10  C   UNL     1       0.057  -2.074  -1.206  0.00  0.00    +0.122 A 
ATOM     11  C   UNL     1       0.670  -2.624  -0.089  0.00  0.00    +0.047 A 
ATOM     12  C   UNL     1       0.657  -1.943   1.112  0.00  0.00    +0.027 A 
ATOM     13  C   UNL     1       0.034  -0.705   1.201  0.00  0.00    +0.038 A 
BRANCH  10  14
ATOM     14  O   UNL     1       0.070  -2.746  -2.388  0.00  0.00    -0.483 OA
BRANCH  14  15
ATOM     15  C   UNL     1       0.735  -4.011  -2.409  0.00  0.00    +0.324 C 
BRANCH  15  16
ATOM     16  C   UNL     1       0.648  -4.601  -3.792  0.00  0.00    +0.248 C 
ATOM     17  O   UNL     1       0.073  -3.999  -4.674  0.00  0.00    -0.272 OA
ATOM     18  N   UNL     1       1.208  -5.800  -4.050  0.00  0.00    -0.327 N 
ATOM     19  H   UNL     1       1.668  -6.282  -3.345  0.00  0.00    +0.145 HD
ATOM     20  H   UNL     1       1.152  -6.180  -4.941  0.00  0.00    +0.145 HD
ENDBRANCH  15  16
ENDBRANCH  14  15
ENDBRANCH  10  14
ENDBRANCH   1  13
BRANCH   4  21
ATOM     21  C   UNL     1      -0.245  -0.756   6.008  0.00  0.00    +0.147 C 
BRANCH  21  22
ATOM     22  C   UNL     1       1.141  -0.990   6.552  0.00  0.00    +0.011 A 
ATOM     23  C   UNL     1       1.758  -2.213   6.370  0.00  0.00    +0.009 A 
ATOM     24  C   UNL     1       3.029  -2.429   6.868  0.00  0.00    +0.001 A 
ATOM     25  C   UNL     1       3.687  -1.421   7.550  0.00  0.00    +0.004 A 
ATOM     26  C   UNL     1       3.075  -0.197   7.734  0.00  0.00    +0.046 A 
ATOM     27  C   UNL     1       1.801   0.024   7.230  0.00  0.00    +0.122 A 
BRANCH  27  28
ATOM     28  O   UNL     1       1.199   1.229   7.405  0.00  0.00    -0.506 OA
ATOM     29  H   UNL     1       0.678   1.295   8.217  0.00  0.00    +0.292 HD
ENDBRANCH  27  28
ENDBRANCH  21  22
ENDBRANCH   4  21
TORSDOF 7
