REMARK  Name = ZINC17051905
REMARK  11 active torsions:
REMARK  status: ('A' for Active; 'I' for Inactive)
REMARK    1  A    between atoms: C_1  and  C_2
REMARK    2  A    between atoms: C_5  and  C_8
REMARK    3  A    between atoms: C_10  and  C_13
REMARK    4  A    between atoms: C_14  and  N_34
REMARK    5  A    between atoms: N_15  and  C_20
REMARK    6  A    between atoms: N_18  and  C_19
REMARK    7  A    between atoms: C_20  and  C_21
REMARK    8  A    between atoms: N_23  and  C_24
REMARK    9  A    between atoms: C_27  and  C_30
REMARK   10  A    between atoms: C_30  and  O_32
REMARK   11  A    between atoms: O_32  and  C_33
REMARK                            x       y       z     vdW  Elec       q    Type
REMARK                         _______ _______ _______ _____ _____    ______ ____
ROOT
ATOM      1  C   UNL     1       5.639   6.974  -0.215  0.00  0.00    +0.120 A 
ATOM      2  C   UNL     1       4.419   6.549  -0.732  0.00  0.00    +0.129 A 
ATOM      3  N   UNL     1       3.647   6.185   0.313  0.00  0.00    -0.240 N 
ATOM      4  N   UNL     1       4.371   6.383   1.493  0.00  0.00    -0.153 NA
ATOM      5  C   UNL     1       5.559   6.845   1.195  0.00  0.00    +0.155 A 
ATOM      6  N   UNL     1       6.568   7.163   2.106  0.00  0.00    -0.330 N 
ATOM      7  C   UNL     1       6.343   6.978   3.542  0.00  0.00    +0.127 C 
ATOM      8  H   UNL     1       7.418   7.506   1.789  0.00  0.00    +0.147 HD
ENDROOT
BRANCH   1  11
ATOM      9  C   UNL     1       8.692   8.219  -1.568  0.00  0.00    +0.202 A 
ATOM     10  N   UNL     1       7.952   7.871  -0.495  0.00  0.00    -0.187 NA
ATOM     11  C   UNL     1       6.792   7.462  -0.985  0.00  0.00    +0.265 A 
ATOM     12  O   UNL     1       6.870   7.584  -2.320  0.00  0.00    -0.332 OA
ATOM     13  N   UNL     1       7.959   8.016  -2.632  0.00  0.00    -0.056 NA
BRANCH   9  18
ATOM     14  C   UNL     1      14.081  10.251  -1.475  0.00  0.00    +0.044 C 
ATOM     15  C   UNL     1      12.671   9.719  -1.499  0.00  0.00    -0.050 A 
ATOM     16  C   UNL     1      12.018   9.554  -2.707  0.00  0.00    +0.004 A 
ATOM     17  C   UNL     1      10.726   9.068  -2.735  0.00  0.00    +0.012 A 
ATOM     18  C   UNL     1      10.081   8.742  -1.544  0.00  0.00    +0.022 A 
ATOM     19  C   UNL     1      10.743   8.914  -0.330  0.00  0.00    +0.012 A 
ATOM     20  C   UNL     1      12.036   9.397  -0.314  0.00  0.00    +0.004 A 
ENDBRANCH   9  18
ENDBRANCH   1  11
BRANCH   2  21
ATOM     21  N   UNL     1       4.064   6.507  -2.067  0.00  0.00    -0.343 N 
ATOM     22  H   UNL     1       3.184   6.193  -2.326  0.00  0.00    +0.144 HD
ATOM     23  H   UNL     1       4.696   6.793  -2.746  0.00  0.00    +0.144 HD
ENDBRANCH   2  21
BRANCH   3  24
ATOM     24  C   UNL     1       2.277   5.674   0.226  0.00  0.00    +0.241 C 
BRANCH  24  25
ATOM     25  C   UNL     1       2.308   4.172   0.104  0.00  0.00    +0.239 C 
ATOM     26  O   UNL     1       3.370   3.587   0.091  0.00  0.00    -0.273 OA
ATOM     27  N   UNL     1       1.155   3.480   0.010  0.00  0.00    -0.284 N 
ATOM     28  H   UNL     1       0.310   3.951  -0.057  0.00  0.00    +0.155 HD
BRANCH  27  29
ATOM     29  C   UNL     1       1.177   2.086   0.008  0.00  0.00    +0.033 A 
ATOM     30  C   UNL     1       0.240   1.378  -0.738  0.00  0.00    +0.024 A 
ATOM     31  C   UNL     1       0.259   0.002  -0.742  0.00  0.00    +0.017 A 
ATOM     32  C   UNL     1       1.222  -0.685   0.004  0.00  0.00    +0.059 A 
ATOM     33  C   UNL     1       2.162   0.030   0.752  0.00  0.00    +0.017 A 
ATOM     34  C   UNL     1       2.137   1.406   0.752  0.00  0.00    +0.024 A 
BRANCH  32  35
ATOM     35  C   UNL     1       1.245  -2.159   0.003  0.00  0.00    +0.339 C 
ATOM     36  O   UNL     1       0.427  -2.779  -0.648  0.00  0.00    -0.245 OA
BRANCH  35  37
ATOM     37  O   UNL     1       2.173  -2.819   0.723  0.00  0.00    -0.464 OA
ATOM     38  C   UNL     1       2.136  -4.270   0.674  0.00  0.00    +0.280 C 
ENDBRANCH  35  37
ENDBRANCH  32  35
ENDBRANCH  27  29
ENDBRANCH  24  25
ENDBRANCH   3  24
TORSDOF 8
