REMARK  Name = ZINC39442659
REMARK  12 active torsions:
REMARK  status: ('A' for Active; 'I' for Inactive)
REMARK    1  A    between atoms: C_1  and  C_2
REMARK    2  A    between atoms: C_4  and  C_22
REMARK    3  A    between atoms: N_10  and  C_11
REMARK    4  A    between atoms: C_11  and  C_12
REMARK    5  A    between atoms: C_12  and  C_13
REMARK    6  A    between atoms: C_12  and  C_14
REMARK    7  A    between atoms: C_16  and  C_20
REMARK    8  A    between atoms: C_16  and  C_21
REMARK    9  A    between atoms: C_22  and  C_23
REMARK   10  A    between atoms: N_25  and  C_26
REMARK   11  A    between atoms: C_26  and  C_27
REMARK   12  A    between atoms: C_30  and  C_33
REMARK                            x       y       z     vdW  Elec       q    Type
REMARK                         _______ _______ _______ _____ _____    ______ ____
ROOT
ATOM      1  C   UNL     1      -0.782   1.802   0.681  0.00  0.00    -0.013 C 
ATOM      2  C   UNL     1      -0.829   0.274   0.617  0.00  0.00    -0.067 C 
ATOM      3  C   UNL     1      -0.655  -0.202  -0.849  0.00  0.00    -0.007 C 
ATOM      4  C   UNL     1       0.568  -1.115  -0.794  0.00  0.00    +0.044 C 
ATOM      5  C   UNL     1       1.356  -0.499   0.398  0.00  0.00    -0.057 C 
ATOM      6  N   UNL     1       0.305  -0.304   1.397  0.00  0.00    +0.384 N 
ATOM      7  C   UNL     1       2.487  -1.444   0.730  0.00  0.00    -0.008 C 
ATOM      8  C   UNL     1       3.481  -1.410  -0.443  0.00  0.00    -0.030 C 
ATOM      9  C   UNL     1       2.822  -1.827  -1.756  0.00  0.00    +0.081 C 
ATOM     10  C   UNL     1       1.491  -1.083  -1.975  0.00  0.00    +0.136 C 
ATOM     11  O   UNL     1       1.207  -0.516  -3.003  0.00  0.00    -0.297 OA
ATOM     12  C   UNL     1       4.640  -2.362  -0.143  0.00  0.00    +0.011 C 
ATOM     13  C   UNL     1       4.031   0.010  -0.590  0.00  0.00    +0.011 C 
ATOM     14  H   UNL     1       0.039  -1.187   1.807  0.00  0.00    -0.081 HD
ENDROOT
BRANCH   6  15
ATOM     15  C   UNL     1       0.749   0.635   2.435  0.00  0.00    -0.075 C 
BRANCH  15  16
ATOM     16  C   UNL     1       1.749  -0.061   3.360  0.00  0.00    -0.034 C 
ATOM     17  C   UNL     1       2.082   0.859   4.537  0.00  0.00    +0.005 C 
ATOM     18  C   UNL     1       1.137  -1.361   3.886  0.00  0.00    +0.005 C 
ENDBRANCH  15  16
ENDBRANCH   6  15
BRANCH   3  19
ATOM     19  C   UNL     1      -1.889  -0.979  -1.312  0.00  0.00    +0.098 C 
BRANCH  19  20
ATOM     20  C   UNL     1      -3.073  -0.049  -1.378  0.00  0.00    +0.214 C 
ATOM     21  O   UNL     1      -2.943   1.120  -1.084  0.00  0.00    -0.276 OA
ATOM     22  N   UNL     1      -4.277  -0.517  -1.764  0.00  0.00    -0.308 N 
ATOM     23  H   UNL     1      -4.381  -1.452  -1.999  0.00  0.00    +0.149 HD
BRANCH  22  24
ATOM     24  C   UNL     1      -5.427   0.387  -1.829  0.00  0.00    +0.182 C 
BRANCH  24  25
ATOM     25  C   UNL     1      -6.643  -0.378  -2.284  0.00  0.00    +0.168 A 
ATOM     26  H   UNL     1      -8.716  -1.597  -4.263  0.00  0.00    +0.190 HD
ATOM     27  N   UNL     1      -7.508  -1.004  -1.487  0.00  0.00    -0.215 NA
ATOM     28  C   UNL     1      -8.445  -1.568  -2.205  0.00  0.00    +0.122 A 
ATOM     29  N   UNL     1      -8.192  -1.309  -3.499  0.00  0.00    -0.263 N 
ATOM     30  N   UNL     1      -7.023  -0.531  -3.526  0.00  0.00    -0.156 NA
ATOM     31  C   UNL     1      -9.605  -2.369  -1.673  0.00  0.00    +0.087 C 
ENDBRANCH  24  25
ENDBRANCH  22  24
ENDBRANCH  19  20
ENDBRANCH   3  19
TORSDOF 6
