REMARK  Name = ZINC32578438
REMARK  9 active torsions:
REMARK  status: ('A' for Active; 'I' for Inactive)
REMARK    1  A    between atoms: C_1  and  C_2
REMARK    2  A    between atoms: C_2  and  C_3
REMARK    3  A    between atoms: C_3  and  C_16
REMARK    4  A    between atoms: N_4  and  N_5
REMARK    5  A    between atoms: C_6  and  C_8
REMARK    6  A    between atoms: C_13  and  O_14
REMARK    7  A    between atoms: C_19  and  O_22
REMARK    8  A    between atoms: O_22  and  C_23
REMARK    9  A    between atoms: C_23  and  C_24
REMARK                            x       y       z     vdW  Elec       q    Type
REMARK                         _______ _______ _______ _____ _____    ______ ____
ROOT
ATOM      1  C   UNL     1       3.560   7.320   0.007  0.00  0.00    +0.066 C 
ATOM      2  N   UNL     1       3.587   6.023   0.000  0.00  0.00    -0.184 NA
ENDROOT
BRANCH   1   3
ATOM      3  C   UNL     1       4.821   8.084  -0.001  0.00  0.00    -0.002 A 
ATOM      4  C   UNL     1       4.795   9.481   0.001  0.00  0.00    +0.013 A 
ATOM      5  C   UNL     1       5.976  10.191  -0.001  0.00  0.00    +0.046 A 
ATOM      6  C   UNL     1       7.192   9.519  -0.015  0.00  0.00    +0.121 A 
ATOM      7  C   UNL     1       7.223   8.130  -0.022  0.00  0.00    +0.046 A 
ATOM      8  C   UNL     1       6.047   7.412  -0.015  0.00  0.00    +0.013 A 
BRANCH   6   9
ATOM      9  O   UNL     1       8.354  10.223  -0.022  0.00  0.00    -0.483 OA
BRANCH   9  10
ATOM     10  C   UNL     1       8.250  11.648  -0.014  0.00  0.00    +0.324 C 
BRANCH  10  11
ATOM     11  C   UNL     1       9.630  12.252  -0.023  0.00  0.00    +0.248 C 
ATOM     12  O   UNL     1      10.607  11.534  -0.035  0.00  0.00    -0.272 OA
ATOM     13  N   UNL     1       9.779  13.592  -0.018  0.00  0.00    -0.327 N 
ATOM     14  H   UNL     1      10.786  14.034  -0.025  0.00  0.00    +0.145 HD
ATOM     15  H   UNL     1       8.893  14.244  -0.006  0.00  0.00    +0.145 HD
ENDBRANCH  10  11
ENDBRANCH   9  10
ENDBRANCH   6   9
ENDBRANCH   1   3
BRANCH   2  16
ATOM     16  N   UNL     1       2.389   5.297   0.007  0.00  0.00    -0.203 N 
ATOM     17  C   UNL     1       2.417   3.950   0.000  0.00  0.00    +0.267 C 
ATOM     18  O   UNL     1       3.482   3.363  -0.012  0.00  0.00    -0.268 OA
ATOM     19  H   UNL     1       1.425   5.827   0.019  0.00  0.00    +0.178 HD
BRANCH  17  20
ATOM     20  C   UNL     1       1.155   3.186   0.008  0.00  0.00    +0.081 A 
ATOM     21  C   UNL     1      -0.071   3.855   0.022  0.00  0.00    +0.036 A 
ATOM     22  C   UNL     1      -1.247   3.135   0.030  0.00  0.00    +0.042 A 
ATOM     23  C   UNL     1      -1.218   1.749   0.017  0.00  0.00    +0.023 A 
ATOM     24  C   UNL     1      -0.013   1.076   0.008  0.00  0.00    +0.047 A 
ATOM     25  C   UNL     1       1.179   1.784   0.000  0.00  0.00    +0.129 A 
ATOM     26 CL   UNL     1      -2.771   3.967   0.048  0.00  0.00    -0.084 Cl
BRANCH  25  27
ATOM     27  O   UNL     1       2.365   1.124  -0.015  0.00  0.00    -0.506 OA
ATOM     28  H   UNL     1       2.381   0.024  -0.020  0.00  0.00    +0.292 HD
ENDBRANCH  25  27
ENDBRANCH  17  20
ENDBRANCH   2  16
BRANCH   1  30
ATOM     29  C   UNL     1       1.806   8.285   1.470  0.00  0.00    +0.010 C 
ATOM     30  C   UNL     1       2.240   8.046   0.022  0.00  0.00    +0.054 C 
ENDBRANCH   1  30
TORSDOF 8
