REMARK  Name = ZINC58354331
REMARK  4 active torsions:
REMARK  status: ('A' for Active; 'I' for Inactive)
REMARK    1  A    between atoms: C_7  and  C_13
REMARK    2  A    between atoms: C_13  and  O_15
REMARK    3  A    between atoms: O_15  and  C_16
REMARK    4  A    between atoms: C_16  and  C_17
REMARK                            x       y       z     vdW  Elec       q    Type
REMARK                         _______ _______ _______ _____ _____    ______ ____
ROOT
ATOM      1  C   UNL     1      -0.017   1.375   0.010  0.00  0.00    +0.001 A 
ATOM      2  C   UNL     1       1.167   2.102   0.002  0.00  0.00    +0.001 A 
ATOM      3  C   UNL     1       2.387   1.461  -0.013  0.00  0.00    +0.014 A 
ATOM      4  C   UNL     1       2.427   0.071  -0.021  0.00  0.00    +0.050 A 
ATOM      5  C   UNL     1       1.223  -0.670  -0.013  0.00  0.00    +0.021 A 
ATOM      6  C   UNL     1       0.002  -0.004   0.002  0.00  0.00    +0.011 A 
ATOM      7  C   UNL     1       1.330  -2.138  -0.021  0.00  0.00    +0.175 A 
ATOM      8  N   UNL     1       2.518  -2.693  -0.036  0.00  0.00    -0.164 NA
ATOM      9  N   UNL     1       3.618  -2.039  -0.043  0.00  0.00    -0.242 N 
ATOM     10  H   UNL     1       4.449  -2.539  -0.054  0.00  0.00    +0.192 HD
ATOM     11  C   UNL     1       3.684  -0.692  -0.037  0.00  0.00    +0.272 A 
ATOM     12  O   UNL     1       4.759  -0.121  -0.044  0.00  0.00    -0.266 OA
ENDROOT
BRANCH   7  13
ATOM     13  C   UNL     1       0.116  -2.975  -0.013  0.00  0.00    +0.360 C 
ATOM     14  O   UNL     1      -0.982  -2.454   0.000  0.00  0.00    -0.243 OA
BRANCH  13  15
ATOM     15  O   UNL     1       0.223  -4.319  -0.021  0.00  0.00    -0.455 OA
BRANCH  15  16
ATOM     16  C   UNL     1      -0.994  -5.067  -0.013  0.00  0.00    +0.269 C 
BRANCH  16  17
ATOM     17  C   UNL     1      -0.678  -6.540  -0.023  0.00  0.00    +0.008 A 
ATOM     18  C   UNL     1       0.637  -6.965  -0.033  0.00  0.00    +0.011 A 
ATOM     19  C   UNL     1       0.928  -8.315  -0.042  0.00  0.00    +0.039 A 
ATOM     20  C   UNL     1      -0.098  -9.245  -0.042  0.00  0.00    +0.125 A 
ATOM     21  C   UNL     1      -1.415  -8.820  -0.032  0.00  0.00    +0.058 A 
ATOM     22  C   UNL     1      -1.705  -7.468  -0.017  0.00  0.00    +0.050 A 
ATOM     23 CL   UNL     1      -3.357  -6.934   0.002  0.00  0.00    -0.083 Cl
ATOM     24  F   UNL     1       0.186 -10.566  -0.053  0.00  0.00    -0.205 F 
ENDBRANCH  16  17
ENDBRANCH  15  16
ENDBRANCH  13  15
ENDBRANCH   7  13
TORSDOF 4
