REMARK  Name = ZINC43283523
REMARK  6 active torsions:
REMARK  status: ('A' for Active; 'I' for Inactive)
REMARK    1  A    between atoms: C_1  and  C_2
REMARK    2  A    between atoms: C_2  and  C_4
REMARK    3  A    between atoms: C_2  and  N_23
REMARK    4  A    between atoms: C_4  and  C_6
REMARK    5  A    between atoms: C_4  and  S_12
REMARK    6  A    between atoms: S_12  and  C_13
REMARK                            x       y       z     vdW  Elec       q    Type
REMARK                         _______ _______ _______ _____ _____    ______ ____
ROOT
ATOM      1  C   UNL     1       0.770  -0.500   1.121  0.00  0.00    +0.076 C 
ENDROOT
BRANCH   1   2
ATOM      2  C   UNL     1       2.207  -0.046   1.138  0.00  0.00    +0.003 A 
ATOM      3  C   UNL     1       2.861   0.749   0.256  0.00  0.00    +0.013 A 
ATOM      4  C   UNL     1       4.196   1.036   0.474  0.00  0.00    +0.023 A 
ATOM      5  C   UNL     1       4.811   0.514   1.564  0.00  0.00    +0.055 A 
ATOM      6  S   UNL     1       3.487  -0.409   2.328  0.00  0.00    -0.085 S 
ATOM      7 BR   UNL     1       6.603   0.718   2.132  0.00  0.00    -0.043 Br
ENDBRANCH   1   2
BRANCH   1   9
ATOM      8  C   UNL     1      -0.739  -2.487   0.996  0.00  0.00    -0.013 C 
ATOM      9  C   UNL     1       0.719  -2.028   1.069  0.00  0.00    -0.060 C 
BRANCH   9  10
ATOM     10  N   UNL     1       1.440  -2.502  -0.120  0.00  0.00    +0.381 N 
ATOM     11  H   UNL     1       2.402  -2.199  -0.072  0.00  0.00    -0.090 HD
ATOM     12  H   UNL     1       1.407  -3.510  -0.155  0.00  0.00    -0.090 HD
ATOM     13  H   UNL     1       1.009  -2.122  -0.949  0.00  0.00    -0.090 HD
ENDBRANCH   9  10
ENDBRANCH   1   9
BRANCH   1  14
ATOM     14  S   UNL     1      -0.065   0.082   2.623  0.00  0.00    -0.079 S 
BRANCH  14  15
ATOM     15  C   UNL     1      -0.121   1.832   2.428  0.00  0.00    +0.192 A 
ATOM     16  N   UNL     1       0.417   2.530   1.453  0.00  0.00    -0.122 NA
ATOM     17  N   UNL     1       0.173   3.782   1.624  0.00  0.00    -0.134 NA
ATOM     18  C   UNL     1      -0.529   3.953   2.704  0.00  0.00    +0.134 A 
ATOM     19  N   UNL     1      -0.736   2.721   3.256  0.00  0.00    -0.306 N 
ATOM     20  C   UNL     1      -1.457   2.431   4.495  0.00  0.00    +0.125 C 
ATOM     21  C   UNL     1      -2.516   3.513   4.729  0.00  0.00    +0.022 C 
ATOM     22  C   UNL     1      -1.909   4.664   5.530  0.00  0.00    +0.002 C 
ATOM     23  C   UNL     1      -0.759   5.307   4.761  0.00  0.00    +0.008 C 
ATOM     24  C   UNL     1      -1.045   5.255   3.262  0.00  0.00    +0.076 C 
ENDBRANCH  14  15
ENDBRANCH   1  14
TORSDOF 5
