REMARK  Name = ZINC39538579
REMARK  8 active torsions:
REMARK  status: ('A' for Active; 'I' for Inactive)
REMARK    1  A    between atoms: C_1  and  C_2
REMARK    2  A    between atoms: C_4  and  C_33
REMARK    3  A    between atoms: C_6  and  S_8
REMARK    4  A    between atoms: S_8  and  C_9
REMARK    5  A    between atoms: C_12  and  N_15
REMARK    6  A    between atoms: C_16  and  C_18
REMARK    7  A    between atoms: C_18  and  N_19
REMARK    8  A    between atoms: C_27  and  C_29
REMARK                            x       y       z     vdW  Elec       q    Type
REMARK                         _______ _______ _______ _____ _____    ______ ____
ROOT
ATOM      1  N   UNL     1      -0.235   1.146   7.040  0.00  0.00    -0.284 N 
ATOM      2  C   UNL     1      -0.067   0.762   8.321  0.00  0.00    +0.235 C 
ATOM      3  O   UNL     1       0.052  -0.415   8.590  0.00  0.00    -0.274 OA
ATOM      4  H   UNL     1      -0.398   2.079   6.831  0.00  0.00    +0.155 HD
ENDROOT
BRANCH   1   8
ATOM      5  C   UNL     1      -0.057  -1.677   3.975  0.00  0.00    +0.016 A 
ATOM      6  C   UNL     1       0.429  -0.392   3.766  0.00  0.00    +0.017 A 
ATOM      7  C   UNL     1       0.369   0.542   4.780  0.00  0.00    +0.024 A 
ATOM      8  C   UNL     1      -0.175   0.198   6.010  0.00  0.00    +0.033 A 
ATOM      9  C   UNL     1      -0.660  -1.087   6.220  0.00  0.00    +0.024 A 
ATOM     10  C   UNL     1      -0.607  -2.019   5.204  0.00  0.00    +0.017 A 
BRANCH   5  11
ATOM     11  S   UNL     1       0.019  -2.870   2.681  0.00  0.00    -0.050 S 
BRANCH  11  17
ATOM     12  C   UNL     1       4.312  -3.540   5.385  0.00  0.00    +0.066 C 
ATOM     13  C   UNL     1       3.420  -4.000   4.261  0.00  0.00    +0.043 A 
ATOM     14  C   UNL     1       3.768  -5.104   3.497  0.00  0.00    +0.046 A 
ATOM     15  C   UNL     1       2.920  -5.494   2.472  0.00  0.00    +0.043 A 
ATOM     16  N   UNL     1       1.811  -4.807   2.256  0.00  0.00    -0.227 NA
ATOM     17  C   UNL     1       1.507  -3.756   3.005  0.00  0.00    +0.193 A 
ATOM     18  N   UNL     1       2.294  -3.361   3.995  0.00  0.00    -0.227 NA
ATOM     19  C   UNL     1       3.257  -6.687   1.616  0.00  0.00    +0.066 C 
ENDBRANCH  11  17
ENDBRANCH   5  11
ENDBRANCH   1   8
BRANCH   2  20
ATOM     20  C   UNL     1      -0.027   1.794   9.418  0.00  0.00    +0.214 C 
BRANCH  20  21
ATOM     21  N   UNL     1       0.164   1.127  10.709  0.00  0.00    -0.215 N 
ATOM     22  C   UNL     1      -0.844   0.693  11.494  0.00  0.00    +0.247 C 
ATOM     23  O   UNL     1      -2.033   0.776  11.275  0.00  0.00    -0.273 OA
ATOM     24  C   UNL     1      -0.177   0.080  12.704  0.00  0.00    +0.115 C 
ATOM     25  C   UNL     1      -0.585   0.825  13.970  0.00  0.00    +0.035 C 
ATOM     26  C   UNL     1      -2.091   0.665  14.195  0.00  0.00    +0.003 C 
ATOM     27  C   UNL     1      -2.430  -0.822  14.325  0.00  0.00    +0.000 C 
ATOM     28  C   UNL     1      -2.034  -1.552  13.041  0.00  0.00    +0.006 C 
ATOM     29  C   UNL     1      -0.528  -1.400  12.812  0.00  0.00    +0.018 C 
ATOM     30  C   UNL     1      -0.134  -2.113  11.517  0.00  0.00    +0.010 C 
ATOM     31  N   UNL     1       1.258   0.251  12.445  0.00  0.00    -0.285 N 
ATOM     32  C   UNL     1       1.359   0.869  11.252  0.00  0.00    +0.310 C 
ATOM     33  O   UNL     1       2.417   1.162  10.730  0.00  0.00    -0.252 OA
ATOM     34  H   UNL     1       1.990  -0.028  13.018  0.00  0.00    +0.151 HD
ENDBRANCH  20  21
ENDBRANCH   2  20
TORSDOF 5
