REMARK  Name = ZINC35851618
REMARK  4 active torsions:
REMARK  status: ('A' for Active; 'I' for Inactive)
REMARK    1  A    between atoms: C_1  and  C_2
REMARK    2  A    between atoms: C_4  and  N_35
REMARK    3  A    between atoms: C_7  and  N_8
REMARK    4  A    between atoms: C_28  and  C_33
REMARK                            x       y       z     vdW  Elec       q    Type
REMARK                         _______ _______ _______ _____ _____    ______ ____
ROOT
ATOM      1  N   UNL     1       0.026  -0.013   2.419  0.00  0.00    -0.210 N 
ATOM      2  C   UNL     1      -1.110   0.340   3.090  0.00  0.00    +0.232 C 
ATOM      3  O   UNL     1      -2.227  -0.100   2.922  0.00  0.00    -0.274 OA
ATOM      4  C   UNL     1      -0.687   1.390   4.084  0.00  0.00    +0.107 C 
ATOM      5  C   UNL     1      -1.245   1.345   5.505  0.00  0.00    +0.071 C 
ATOM      6  C   UNL     1      -1.569  -0.099   5.929  0.00  0.00    +0.021 C 
ATOM      7  C   UNL     1      -1.311  -0.044   7.459  0.00  0.00    +0.017 C 
ATOM      8  C   UNL     1      -0.109   0.917   7.575  0.00  0.00    +0.086 C 
ATOM      9  N   UNL     1      -0.087   1.767   6.357  0.00  0.00    -0.281 NA
ATOM     10  C   UNL     1       1.163   1.500   5.585  0.00  0.00    +0.138 C 
ATOM     11  C   UNL     1       0.729   0.754   4.391  0.00  0.00    +0.123 C 
ATOM     12  C   UNL     1       1.170   0.378   3.069  0.00  0.00    +0.233 C 
ATOM     13  O   UNL     1       2.300   0.403   2.630  0.00  0.00    -0.274 OA
ATOM     14  C   UNL     1       1.833   2.809   5.254  0.00  0.00    +0.005 A 
ATOM     15  C   UNL     1       1.451   3.900   4.507  0.00  0.00    +0.027 A 
ATOM     16  C   UNL     1       2.303   4.985   4.380  0.00  0.00    +0.042 A 
ATOM     17  C   UNL     1       3.537   4.967   5.007  0.00  0.00    +0.025 A 
ATOM     18  C   UNL     1       3.922   3.875   5.756  0.00  0.00    -0.028 A 
ATOM     19  C   UNL     1       3.070   2.780   5.889  0.00  0.00    +0.042 A 
ATOM     20  N   UNL     1       3.229   1.579   6.583  0.00  0.00    -0.283 N 
ATOM     21  C   UNL     1       2.156   0.776   6.460  0.00  0.00    +0.243 C 
ATOM     22  O   UNL     1       2.015  -0.321   6.957  0.00  0.00    -0.273 OA
ATOM     23  C   UNL     1       5.268   3.866   6.434  0.00  0.00    +0.046 C 
ATOM     24 CL   UNL     1       1.824   6.362   3.438  0.00  0.00    -0.084 Cl
ATOM     25  H   UNL     1       4.020   1.351   7.095  0.00  0.00    +0.155 HD
ENDROOT
BRANCH   1  32
ATOM     26  C   UNL     1      -0.018   1.503   0.010  0.00  0.00    +0.046 C 
ATOM     27  C   UNL     1       0.002  -0.004   0.002  0.00  0.00    -0.026 A 
ATOM     28  C   UNL     1       0.006  -0.689  -1.198  0.00  0.00    +0.038 A 
ATOM     29  C   UNL     1       0.024  -2.071  -1.206  0.00  0.00    +0.127 A 
ATOM     30  C   UNL     1       0.040  -2.773  -0.014  0.00  0.00    +0.034 A 
ATOM     31  C   UNL     1       0.035  -2.094   1.188  0.00  0.00    +0.026 A 
ATOM     32  C   UNL     1       0.023  -0.705   1.200  0.00  0.00    +0.047 A 
BRANCH  29  33
ATOM     33  N   UNL     1       0.028  -2.802  -2.493  0.00  0.00    +0.056 N 
ATOM     34  O   UNL     1       0.014  -2.190  -3.536  0.00  0.00    -0.126 OA
ATOM     35  O   UNL     1       0.044  -4.011  -2.502  0.00  0.00    -0.126 OA
ENDBRANCH  29  33
ENDBRANCH   1  32
TORSDOF 2
