REMARK  Name = ZINC39324646
REMARK  10 active torsions:
REMARK  status: ('A' for Active; 'I' for Inactive)
REMARK    1  A    between atoms: C_1  and  C_2
REMARK    2  A    between atoms: C_2  and  C_3
REMARK    3  A    between atoms: C_3  and  C_4
REMARK    4  A    between atoms: C_4  and  C_5
REMARK    5  A    between atoms: C_7  and  C_19
REMARK    6  A    between atoms: C_9  and  C_17
REMARK    7  A    between atoms: C_10  and  N_16
REMARK    8  A    between atoms: C_22  and  O_25
REMARK    9  A    between atoms: O_25  and  C_26
REMARK   10  A    between atoms: C_26  and  C_27
REMARK                            x       y       z     vdW  Elec       q    Type
REMARK                         _______ _______ _______ _____ _____    ______ ____
ROOT
ATOM      1  C   UNL     1       1.492  -2.540   2.454  0.00  0.00    +0.069 C 
ATOM      2  C   UNL     1       0.916  -2.897   3.576  0.00  0.00    +0.030 C 
ATOM      3  C   UNL     1      -0.518  -3.073   3.996  0.00  0.00    +0.098 C 
ATOM      4  C   UNL     1      -0.548  -4.351   4.814  0.00  0.00    +0.097 C 
ATOM      5  C   UNL     1       0.585  -4.981   5.187  0.00  0.00    +0.195 C 
ATOM      6  O   UNL     1       1.844  -4.616   4.887  0.00  0.00    -0.448 OA
ATOM      7  C   UNL     1       2.066  -3.252   4.519  0.00  0.00    +0.343 C 
ATOM      8  N   UNL     1       3.234  -3.096   3.647  0.00  0.00    -0.138 NA
ATOM      9  N   UNL     1       2.838  -2.690   2.547  0.00  0.00    -0.155 NA
ENDROOT
BRANCH   3  10
ATOM     10  C   UNL     1      -0.963  -1.903   4.835  0.00  0.00    -0.035 A 
ATOM     11  C   UNL     1      -0.308  -1.613   6.018  0.00  0.00    +0.008 A 
ATOM     12  C   UNL     1      -0.715  -0.541   6.788  0.00  0.00    +0.046 A 
ATOM     13  C   UNL     1      -1.780   0.245   6.375  0.00  0.00    +0.121 A 
ATOM     14  C   UNL     1      -2.435  -0.048   5.187  0.00  0.00    +0.046 A 
ATOM     15  C   UNL     1      -2.022  -1.118   4.417  0.00  0.00    +0.008 A 
BRANCH  13  16
ATOM     16  O   UNL     1      -2.182   1.300   7.131  0.00  0.00    -0.483 OA
BRANCH  16  17
ATOM     17  C   UNL     1      -3.286   2.065   6.644  0.00  0.00    +0.324 C 
BRANCH  17  18
ATOM     18  C   UNL     1      -3.587   3.184   7.607  0.00  0.00    +0.248 C 
ATOM     19  O   UNL     1      -2.921   3.313   8.613  0.00  0.00    -0.272 OA
ATOM     20  N   UNL     1      -4.595   4.041   7.351  0.00  0.00    -0.327 N 
ATOM     21  H   UNL     1      -5.127   3.937   6.547  0.00  0.00    +0.145 HD
ATOM     22  H   UNL     1      -4.788   4.761   7.972  0.00  0.00    +0.145 HD
ENDBRANCH  17  18
ENDBRANCH  16  17
ENDBRANCH  13  16
ENDBRANCH   3  10
BRANCH   5  23
ATOM     23  N   UNL     1       0.437  -6.112   5.951  0.00  0.00    -0.329 N 
ATOM     24  H   UNL     1      -0.450  -6.419   6.196  0.00  0.00    +0.145 HD
ATOM     25  H   UNL     1       1.220  -6.603   6.246  0.00  0.00    +0.145 HD
ENDBRANCH   5  23
BRANCH   4  26
ATOM     26  C   UNL     1      -1.813  -4.901   5.202  0.00  0.00    +0.101 C 
ATOM     27  N   UNL     1      -2.816  -5.337   5.509  0.00  0.00    -0.191 NA
ENDBRANCH   4  26
BRANCH   1  28
ATOM     28  C   UNL     1       0.763  -2.041   1.233  0.00  0.00    +0.057 C 
BRANCH  28  29
ATOM     29  C   UNL     1       0.742  -0.511   1.242  0.00  0.00    +0.006 C 
BRANCH  29  31
ATOM     30  C   UNL     1      -0.019   1.526   0.010  0.00  0.00    +0.004 C 
ATOM     31  C   UNL     1       0.002  -0.004   0.002  0.00  0.00    -0.003 C 
ENDBRANCH  29  31
ENDBRANCH  28  29
ENDBRANCH   1  28
TORSDOF 9
