REMARK  Name = ZINC09683269
REMARK  5 active torsions:
REMARK  status: ('A' for Active; 'I' for Inactive)
REMARK    1  A    between atoms: C_1  and  C_2
REMARK    2  A    between atoms: C_2  and  N_3
REMARK    3  A    between atoms: C_7  and  C_16
REMARK    4  A    between atoms: C_23  and  C_24
REMARK    5  A    between atoms: C_23  and  N_50
REMARK                            x       y       z     vdW  Elec       q    Type
REMARK                         _______ _______ _______ _____ _____    ______ ____
ROOT
ATOM      1  C   UNL     1      -4.972   4.164   0.072  0.00  0.00    +0.247 C 
ATOM      2  O   UNL     1      -5.009   5.374   0.186  0.00  0.00    -0.270 OA
ATOM      3  N   UNL     1      -6.118   3.461  -0.022  0.00  0.00    -0.301 N 
ATOM      4  C   UNL     1      -6.102   1.990  -0.039  0.00  0.00    +0.089 C 
ATOM      5  C   UNL     1      -7.093   1.485   1.022  0.00  0.00    -0.059 C 
ATOM      6  C   UNL     1      -8.355   3.554   0.941  0.00  0.00    -0.059 C 
ATOM      7  C   UNL     1      -7.417   4.144  -0.117  0.00  0.00    +0.089 C 
ATOM      8  N   UNL     1      -8.417   2.088   0.756  0.00  0.00    +0.385 N 
ATOM      9  H   UNL     1      -8.687   1.885  -0.213  0.00  0.00    -0.081 HD
ENDROOT
BRANCH   1  14
ATOM     10  N   UNL     1       0.008   1.510  -0.039  0.00  0.00    -0.303 N 
ATOM     11  C   UNL     1      -1.223   2.152  -0.016  0.00  0.00    +0.068 A 
ATOM     12  C   UNL     1      -1.423   3.224   0.852  0.00  0.00    +0.029 A 
ATOM     13  C   UNL     1      -2.635   3.873   0.883  0.00  0.00    +0.015 A 
ATOM     14  C   UNL     1      -3.672   3.465   0.038  0.00  0.00    +0.039 A 
ATOM     15  C   UNL     1      -3.476   2.397  -0.837  0.00  0.00    +0.040 A 
ATOM     16  C   UNL     1      -2.254   1.743  -0.868  0.00  0.00    +0.067 A 
ATOM     17  N   UNL     1      -2.066   0.677  -1.745  0.00  0.00    -0.316 N 
ATOM     18  H   UNL     1      -2.788   0.398  -2.329  0.00  0.00    +0.169 HD
ATOM     19  C   UNL     1      -0.882   0.033  -1.783  0.00  0.00    +0.314 A 
ATOM     20  O   UNL     1      -0.713  -0.897  -2.545  0.00  0.00    -0.262 OA
ATOM     21  C   UNL     1       0.218   0.476  -0.878  0.00  0.00    +0.316 A 
ATOM     22  O   UNL     1       1.293  -0.090  -0.896  0.00  0.00    -0.262 OA
BRANCH  10  24
ATOM     23  C   UNL     1       1.918   3.026   0.153  0.00  0.00    +0.027 C 
ATOM     24  C   UNL     1       1.080   1.955   0.855  0.00  0.00    +0.122 C 
ENDBRANCH  10  24
ENDBRANCH   1  14
BRANCH   8  25
ATOM     25  C   UNL     1      -9.427   1.507   1.666  0.00  0.00    -0.035 C 
BRANCH  25  26
ATOM     26  C   UNL     1      -9.287   0.007   1.664  0.00  0.00    -0.025 A 
ATOM     27  C   UNL     1      -8.541  -0.782   2.475  0.00  0.00    +0.011 A 
ATOM     28  C   UNL     1      -8.568  -2.152   2.289  0.00  0.00    +0.028 A 
ATOM     29  C   UNL     1      -9.341  -2.665   1.300  0.00  0.00    +0.078 A 
ATOM     30  S   UNL     1     -10.069  -1.194   0.599  0.00  0.00    -0.084 S 
ATOM     31 CL   UNL     1      -9.569  -4.324   0.839  0.00  0.00    -0.076 Cl
ENDBRANCH  25  26
ENDBRANCH   8  25
TORSDOF 4
