REMARK  Name = ZINC36006119
REMARK  6 active torsions:
REMARK  status: ('A' for Active; 'I' for Inactive)
REMARK    1  A    between atoms: C_4  and  C_7
REMARK    2  A    between atoms: C_7  and  N_8
REMARK    3  A    between atoms: C_25  and  C_31
REMARK    4  A    between atoms: C_25  and  C_33
REMARK    5  A    between atoms: C_26  and  N_30
REMARK    6  A    between atoms: C_27  and  C_28
REMARK                            x       y       z     vdW  Elec       q    Type
REMARK                         _______ _______ _______ _____ _____    ______ ____
ROOT
ATOM      1  N   UNL     1       4.153  -0.953   1.342  0.00  0.00    -0.294 NA
ATOM      2  C   UNL     1       4.492   0.310   2.021  0.00  0.00    +0.112 C 
ATOM      3  C   UNL     1       4.759  -0.011   3.471  0.00  0.00    -0.006 C 
ATOM      4  C   UNL     1       5.305  -1.167   3.800  0.00  0.00    -0.025 C 
ATOM      5  C   UNL     1       5.737  -2.183   2.782  0.00  0.00    +0.056 C 
ATOM      6  C   UNL     1       5.299  -1.866   1.371  0.00  0.00    +0.094 C 
ATOM      7  C   UNL     1       5.261  -3.556   3.245  0.00  0.00    +0.118 C 
ATOM      8  C   UNL     1       5.544  -4.601   2.212  0.00  0.00    -0.008 A 
ATOM      9  C   UNL     1       6.727  -5.047   1.664  0.00  0.00    +0.006 A 
ATOM     10  C   UNL     1       6.639  -6.052   0.707  0.00  0.00    +0.000 A 
ATOM     11  C   UNL     1       5.421  -6.576   0.325  0.00  0.00    +0.002 A 
ATOM     12  C   UNL     1       4.227  -6.132   0.871  0.00  0.00    +0.023 A 
ATOM     13  C   UNL     1       4.301  -5.124   1.833  0.00  0.00    +0.038 A 
ATOM     14  N   UNL     1       3.283  -4.501   2.533  0.00  0.00    -0.284 N 
ATOM     15  C   UNL     1       3.753  -3.565   3.385  0.00  0.00    +0.231 C 
ATOM     16  O   UNL     1       3.093  -2.865   4.122  0.00  0.00    -0.274 OA
ATOM     17  C   UNL     1       5.913  -3.909   4.578  0.00  0.00    +0.199 C 
ATOM     18  C   UNL     1       5.783  -2.795   5.573  0.00  0.00    +0.055 C 
ATOM     19  C   UNL     1       5.513  -1.510   5.229  0.00  0.00    +0.074 C 
ATOM     20  H   UNL     1       2.343  -4.712   2.425  0.00  0.00    +0.155 HD
ENDROOT
BRANCH  18  21
ATOM     21  N   UNL     1       5.945  -3.089   6.898  0.00  0.00    -0.358 N 
ATOM     22  H   UNL     1       6.138  -3.999   7.173  0.00  0.00    +0.142 HD
ATOM     23  H   UNL     1       5.866  -2.387   7.563  0.00  0.00    +0.142 HD
ENDBRANCH  18  21
BRANCH  19  24
ATOM     24  C   UNL     1       5.430  -0.494   6.235  0.00  0.00    +0.101 C 
ATOM     25  N   UNL     1       5.364   0.312   7.033  0.00  0.00    -0.191 NA
ENDBRANCH  19  24
BRANCH  17  26
ATOM     26  C   UNL     1       5.270  -5.116   5.122  0.00  0.00    +0.092 C 
ATOM     27  N   UNL     1       4.774  -6.047   5.542  0.00  0.00    -0.194 NA
ENDBRANCH  17  26
BRANCH  17  28
ATOM     28  C   UNL     1       7.341  -4.188   4.354  0.00  0.00    +0.092 C 
ATOM     29  N   UNL     1       8.443  -4.403   4.181  0.00  0.00    -0.194 NA
ENDBRANCH  17  28
BRANCH   1  30
ATOM     30  C   UNL     1       3.711  -0.707  -0.038  0.00  0.00    +0.120 C 
BRANCH  30  34
ATOM     31  C   UNL     1      -0.017   1.378   0.010  0.00  0.00    +0.000 A 
ATOM     32  C   UNL     1       1.171   2.086   0.002  0.00  0.00    +0.000 A 
ATOM     33  C   UNL     1       2.377   1.411  -0.013  0.00  0.00    +0.005 A 
ATOM     34  C   UNL     1       2.396   0.029  -0.020  0.00  0.00    -0.033 A 
ATOM     35  C   UNL     1       1.208  -0.679  -0.012  0.00  0.00    +0.005 A 
ATOM     36  C   UNL     1       0.002  -0.004   0.002  0.00  0.00    +0.000 A 
ENDBRANCH  30  34
ENDBRANCH   1  30
TORSDOF 6
