REMARK  Name = ZINC39072651
REMARK  5 active torsions:
REMARK  status: ('A' for Active; 'I' for Inactive)
REMARK    1  A    between atoms: C_1  and  C_2
REMARK    2  A    between atoms: C_2  and  C_4
REMARK    3  A    between atoms: C_4  and  C_13
REMARK    4  A    between atoms: C_5  and  O_11
REMARK    5  A    between atoms: O_11  and  C_12
REMARK                            x       y       z     vdW  Elec       q    Type
REMARK                         _______ _______ _______ _____ _____    ______ ____
ROOT
ATOM      1  C   UNL     1      -0.000  -0.750  -1.307  0.00  0.00    +0.099 C 
ATOM      2  C   UNL     1       0.115  -2.271  -1.062  0.00  0.00    +0.267 C 
ATOM      3  O   UNL     1       0.964  -2.744  -2.132  0.00  0.00    -0.346 OA
ATOM      4  C   UNL     1       1.978  -1.725  -2.276  0.00  0.00    +0.194 C 
ATOM      5  C   UNL     1       1.239  -0.405  -2.118  0.00  0.00    -0.033 C 
ATOM      6  C   UNL     1       1.593   0.769  -2.579  0.00  0.00    +0.011 C 
ATOM      7  C   UNL     1      -1.267  -0.429  -2.103  0.00  0.00    +0.029 C 
ENDROOT
BRANCH   1   9
ATOM      8  C   UNL     1      -0.018   1.503   0.010  0.00  0.00    +0.087 C 
ATOM      9  C   UNL     1       0.002  -0.004   0.002  0.00  0.00    +0.145 C 
ATOM     10  O   UNL     1       0.020  -0.613   1.044  0.00  0.00    -0.297 OA
ENDBRANCH   1   9
BRANCH   2  11
ATOM     11  O   UNL     1       0.718  -2.528   0.208  0.00  0.00    -0.353 OA
ATOM     12  C   UNL     1       0.759  -3.912   0.562  0.00  0.00    +0.197 C 
ENDBRANCH   2  11
TORSDOF 2
