REMARK  Name = ZINC10824339
REMARK  8 active torsions:
REMARK  status: ('A' for Active; 'I' for Inactive)
REMARK    1  A    between atoms: C_1  and  N_2
REMARK    2  A    between atoms: N_9  and  C_12
REMARK    3  A    between atoms: C_12  and  C_13
REMARK    4  A    between atoms: C_13  and  C_14
REMARK    5  A    between atoms: N_16  and  N_17
REMARK    6  A    between atoms: C_18  and  C_20
REMARK    7  A    between atoms: C_21  and  O_31
REMARK    8  A    between atoms: N_23  and  C_25
REMARK                            x       y       z     vdW  Elec       q    Type
REMARK                         _______ _______ _______ _____ _____    ______ ____
ROOT
ATOM      1  C   UNL     1       0.783   8.034   0.035  0.00  0.00    +0.231 C 
ATOM      2  O   UNL     1      -0.429   8.072   0.046  0.00  0.00    -0.274 OA
ATOM      3  N   UNL     1       1.420   6.847   0.024  0.00  0.00    -0.234 N 
ATOM      4  H   UNL     1       2.389   6.816   0.015  0.00  0.00    +0.173 HD
ENDROOT
BRANCH   3   5
ATOM      5  N   UNL     1       0.682   5.656   0.024  0.00  0.00    -0.229 N 
ATOM      6  C   UNL     1       1.319   4.468   0.013  0.00  0.00    +0.284 C 
ATOM      7  O   UNL     1       2.534   4.430   0.002  0.00  0.00    -0.267 OA
ATOM      8  H   UNL     1      -0.288   5.686   0.033  0.00  0.00    +0.173 HD
BRANCH   6   9
ATOM      9  C   UNL     1       0.542   3.215   0.013  0.00  0.00    +0.190 A 
ATOM     10  C   UNL     1       1.068   1.898   0.002  0.00  0.00    +0.167 A 
ATOM     11  C   UNL     1      -0.013   1.076   0.008  0.00  0.00    +0.160 A 
ATOM     12  N   UNL     1      -1.118   1.870   0.017  0.00  0.00    -0.236 N 
ATOM     13  N   UNL     1      -0.773   3.107   0.025  0.00  0.00    -0.158 NA
BRANCH  12  14
ATOM     14  C   UNL     1      -2.440   1.405   0.020  0.00  0.00    +0.065 A 
ATOM     15  C   UNL     1      -2.697   0.041   0.008  0.00  0.00    +0.028 A 
ATOM     16  C   UNL     1      -4.001  -0.414   0.017  0.00  0.00    +0.002 A 
ATOM     17  C   UNL     1      -5.050   0.487   0.026  0.00  0.00    +0.000 A 
ATOM     18  C   UNL     1      -4.796   1.847   0.032  0.00  0.00    +0.002 A 
ATOM     19  C   UNL     1      -3.495   2.308   0.029  0.00  0.00    +0.028 A 
ENDBRANCH  12  14
BRANCH  10  20
ATOM     20  O   UNL     1       2.379   1.534  -0.011  0.00  0.00    -0.503 OA
ATOM     21  H   UNL     1       2.751   1.433  -0.899  0.00  0.00    +0.292 HD
ENDBRANCH  10  20
ENDBRANCH   6   9
ENDBRANCH   3   5
BRANCH   1  22
ATOM     22  C   UNL     1       1.577   9.315   0.035  0.00  0.00    +0.119 C 
BRANCH  22  23
ATOM     23  C   UNL     1       0.619  10.509   0.049  0.00  0.00    +0.136 C 
BRANCH  23  32
ATOM     24  C   UNL     1       3.109  14.496   1.667  0.00  0.00    +0.154 C 
ATOM     25  N   UNL     1       2.493  13.519   0.765  0.00  0.00    -0.295 N 
ATOM     26  C   UNL     1       2.510  13.572  -0.627  0.00  0.00    +0.070 A 
ATOM     27  C   UNL     1       3.051  14.465  -1.539  0.00  0.00    +0.028 A 
ATOM     28  C   UNL     1       2.897  14.243  -2.893  0.00  0.00    +0.002 A 
ATOM     29  C   UNL     1       2.204  13.132  -3.344  0.00  0.00    +0.002 A 
ATOM     30  C   UNL     1       1.660  12.238  -2.443  0.00  0.00    +0.028 A 
ATOM     31  C   UNL     1       1.810  12.452  -1.081  0.00  0.00    +0.070 A 
ATOM     32  N   UNL     1       1.391  11.754   0.049  0.00  0.00    -0.292 N 
ATOM     33  C   UNL     1       1.810  12.421   1.140  0.00  0.00    +0.330 A 
ATOM     34  O   UNL     1       1.607  12.082   2.291  0.00  0.00    -0.246 OA
ENDBRANCH  23  32
ENDBRANCH  22  23
ENDBRANCH   1  22
TORSDOF 7
