REMARK  Name = ZINC16322873
REMARK  16 active torsions:
REMARK  status: ('A' for Active; 'I' for Inactive)
REMARK    1  A    between atoms: C_1  and  C_2
REMARK    2  A    between atoms: C_2  and  C_3
REMARK    3  A    between atoms: C_2  and  C_4
REMARK    4  A    between atoms: C_2  and  N_5
REMARK    5  A    between atoms: C_6  and  C_8
REMARK    6  A    between atoms: C_8  and  O_9
REMARK    7  A    between atoms: O_9  and  C_10
REMARK    8  A    between atoms: C_13  and  C_18
REMARK    9  A    between atoms: C_15  and  O_16
REMARK   10  A    between atoms: O_16  and  C_17
REMARK   11  A    between atoms: C_18  and  N_60
REMARK   12  A    between atoms: C_19  and  C_20
REMARK   13  A    between atoms: C_19  and  N_60
REMARK   14  A    between atoms: C_20  and  N_21
REMARK   15  A    between atoms: N_21  and  C_22
REMARK   16  A    between atoms: C_25  and  N_28
REMARK                            x       y       z     vdW  Elec       q    Type
REMARK                         _______ _______ _______ _____ _____    ______ ____
ROOT
ATOM      1  C   UNL     1       7.132  -8.443  -0.116  0.00  0.00    +0.163 A 
ATOM      2  C   UNL     1       6.502  -8.115  -1.306  0.00  0.00    +0.049 A 
ATOM      3  C   UNL     1       5.274  -7.480  -1.285  0.00  0.00    +0.005 A 
ATOM      4  C   UNL     1       4.677  -7.162  -0.080  0.00  0.00    -0.061 A 
ATOM      5  C   UNL     1       5.300  -7.487   1.111  0.00  0.00    +0.051 A 
ATOM      6  C   UNL     1       6.528  -8.128   1.097  0.00  0.00    +0.162 A 
ENDROOT
BRANCH   6   7
ATOM      7  O   UNL     1       7.143  -8.448   2.267  0.00  0.00    -0.491 OA
ATOM      8  C   UNL     1       6.465  -8.094   3.474  0.00  0.00    +0.277 C 
ENDBRANCH   6   7
BRANCH   1   9
ATOM      9  O   UNL     1       8.338  -9.072  -0.135  0.00  0.00    -0.479 OA
BRANCH   9  10
ATOM     10  C   UNL     1       8.897  -9.364  -1.417  0.00  0.00    +0.324 C 
BRANCH  10  12
ATOM     11  N   UNL     1      10.939 -10.430  -2.319  0.00  0.00    -0.308 N 
ATOM     12  C   UNL     1      10.224 -10.057  -1.240  0.00  0.00    +0.251 C 
ATOM     13  O   UNL     1      10.648 -10.278  -0.125  0.00  0.00    -0.272 OA
ATOM     14  H   UNL     1      10.600 -10.252  -3.211  0.00  0.00    +0.149 HD
BRANCH  11  16
ATOM     15  C   UNL     1      12.025 -12.406  -1.371  0.00  0.00    +0.031 C 
ATOM     16  C   UNL     1      12.229 -11.103  -2.147  0.00  0.00    +0.026 C 
ATOM     17  C   UNL     1      12.828 -11.416  -3.520  0.00  0.00    +0.031 C 
ATOM     18  C   UNL     1      13.181 -10.191  -1.371  0.00  0.00    +0.031 C 
ENDBRANCH  11  16
ENDBRANCH  10  12
ENDBRANCH   9  10
ENDBRANCH   1   9
BRANCH   4  19
ATOM     19  C   UNL     1       3.341  -6.466  -0.063  0.00  0.00    -0.047 C 
BRANCH  19  20
ATOM     20  N   UNL     1       3.556  -5.006  -0.058  0.00  0.00    +0.383 N 
ATOM     21  H   UNL     1       4.079  -4.739  -0.900  0.00  0.00    -0.085 HD
ATOM     22  H   UNL     1       4.095  -4.747   0.777  0.00  0.00    -0.085 HD
BRANCH  20  23
ATOM     23  C   UNL     1       2.263  -4.298  -0.042  0.00  0.00    -0.063 C 
BRANCH  23  24
ATOM     24  C   UNL     1       2.518  -2.789  -0.037  0.00  0.00    +0.082 C 
BRANCH  24  25
ATOM     25  N   UNL     1       1.238  -2.077  -0.021  0.00  0.00    -0.346 N 
ATOM     26  H   UNL     1       0.406  -2.576  -0.015  0.00  0.00    +0.146 HD
BRANCH  25  27
ATOM     27  C   UNL     1       1.215  -0.681  -0.013  0.00  0.00    +0.027 A 
ATOM     28  C   UNL     1       0.002  -0.004   0.002  0.00  0.00    +0.025 A 
ATOM     29  C   UNL     1      -0.017   1.377   0.010  0.00  0.00    +0.034 A 
ATOM     30  C   UNL     1       1.171   2.086   0.002  0.00  0.00    +0.126 A 
ATOM     31  C   UNL     1       2.380   1.416  -0.013  0.00  0.00    +0.034 A 
ATOM     32  C   UNL     1       2.406   0.035  -0.021  0.00  0.00    +0.025 A 
BRANCH  30  33
ATOM     33  N   UNL     1       1.147   3.566   0.010  0.00  0.00    +0.056 N 
ATOM     34  O   UNL     1       0.082   4.158   0.023  0.00  0.00    -0.126 OA
ATOM     35  O   UNL     1       2.191   4.192   0.003  0.00  0.00    -0.126 OA
ENDBRANCH  30  33
ENDBRANCH  25  27
ENDBRANCH  24  25
ENDBRANCH  23  24
ENDBRANCH  20  23
ENDBRANCH  19  20
ENDBRANCH   4  19
TORSDOF 12
