REMARK  Name = ZINC30026599
REMARK  13 active torsions:
REMARK  status: ('A' for Active; 'I' for Inactive)
REMARK    1  A    between atoms: C_1  and  C_2
REMARK    2  A    between atoms: C_2  and  C_4
REMARK    3  A    between atoms: C_2  and  N_14
REMARK    4  A    between atoms: N_9  and  C_10
REMARK    5  A    between atoms: C_10  and  C_11
REMARK    6  A    between atoms: C_10  and  C_12
REMARK    7  A    between atoms: C_10  and  C_13
REMARK    8  A    between atoms: N_14  and  C_15
REMARK    9  A    between atoms: C_18  and  O_26
REMARK   10  A    between atoms: C_19  and  N_21
REMARK   11  A    between atoms: N_21  and  S_22
REMARK   12  A    between atoms: S_22  and  C_25
REMARK   13  A    between atoms: O_26  and  C_27
REMARK                            x       y       z     vdW  Elec       q    Type
REMARK                         _______ _______ _______ _____ _____    ______ ____
ROOT
ATOM      1  N   UNL     1       2.358   1.472   0.501  0.00  0.00    -0.333 N 
ATOM      2  H   UNL     1       2.466   0.381   0.422  0.00  0.00    +0.147 HD
ENDROOT
BRANCH   1   3
ATOM      3  C   UNL     1       1.089   2.057   0.433  0.00  0.00    +0.030 A 
ATOM      4  C   UNL     1       0.953   3.436   0.533  0.00  0.00    +0.026 A 
ATOM      5  C   UNL     1      -0.300   4.016   0.467  0.00  0.00    +0.049 A 
ATOM      6  C   UNL     1      -1.424   3.224   0.299  0.00  0.00    +0.142 A 
ATOM      7  C   UNL     1      -1.292   1.841   0.193  0.00  0.00    +0.091 A 
ATOM      8  C   UNL     1      -0.035   1.259   0.266  0.00  0.00    +0.051 A 
BRANCH   7   9
ATOM      9  N   UNL     1      -2.426   1.040   0.020  0.00  0.00    -0.217 N 
ATOM     10  H   UNL     1      -3.268   1.403  -0.588  0.00  0.00    +0.173 HD
BRANCH   9  11
ATOM     11  S   UNL     1      -2.501  -0.455   0.730  0.00  0.00    +0.040 S 
ATOM     12  O   UNL     1      -3.802  -0.936   0.424  0.00  0.00    -0.155 OA
ATOM     13  O   UNL     1      -1.347  -1.137   0.260  0.00  0.00    -0.155 OA
ATOM     14  C   UNL     1      -2.355  -0.133   2.509  0.00  0.00    +0.218 C 
ENDBRANCH   9  11
ENDBRANCH   7   9
BRANCH   6  15
ATOM     15  O   UNL     1      -2.657   3.796   0.234  0.00  0.00    -0.493 OA
ATOM     16  C   UNL     1      -2.718   5.220   0.345  0.00  0.00    +0.277 C 
ENDBRANCH   6  15
ENDBRANCH   1   3
BRANCH   1  18
ATOM     17  C   UNL     1       4.013   2.826  -0.686  0.00  0.00    +0.038 C 
ATOM     18  C   UNL     1       3.544   2.314   0.678  0.00  0.00    +0.154 C 
BRANCH  18  19
ATOM     19  C   UNL     1       4.643   1.506   1.317  0.00  0.00    +0.240 C 
ATOM     20  O   UNL     1       4.455   0.342   1.597  0.00  0.00    -0.273 OA
ATOM     21  N   UNL     1       5.836   2.078   1.577  0.00  0.00    -0.239 N 
ATOM     22  C   UNL     1       6.819   1.355   2.149  0.00  0.00    +0.306 C 
ATOM     23  O   UNL     1       6.630   0.187   2.430  0.00  0.00    -0.252 OA
ATOM     24  N   UNL     1       8.012   1.926   2.409  0.00  0.00    -0.294 N 
ATOM     25  H   UNL     1       6.007   3.134   1.322  0.00  0.00    +0.159 HD
ATOM     26  H   UNL     1       8.183   2.982   2.154  0.00  0.00    +0.151 HD
BRANCH  24  27
ATOM     27  C   UNL     1       9.081   1.140   3.030  0.00  0.00    +0.028 C 
ATOM     28  C   UNL     1       9.428  -0.048   2.132  0.00  0.00    +0.031 C 
ATOM     29  C   UNL     1      10.319   2.020   3.214  0.00  0.00    +0.031 C 
ATOM     30  C   UNL     1       8.611   0.629   4.393  0.00  0.00    +0.031 C 
ENDBRANCH  24  27
ENDBRANCH  18  19
ENDBRANCH   1  18
TORSDOF 7
