REMARK  Name = ZINC43130869
REMARK  4 active torsions:
REMARK  status: ('A' for Active; 'I' for Inactive)
REMARK    1  A    between atoms: C_3  and  S_16
REMARK    2  A    between atoms: C_5  and  C_6
REMARK    3  A    between atoms: C_6  and  N_7
REMARK    4  A    between atoms: S_16  and  N_19
REMARK                            x       y       z     vdW  Elec       q    Type
REMARK                         _______ _______ _______ _____ _____    ______ ____
ROOT
ATOM      1  C   UNL     1      -1.155  -0.969   0.008  0.00  0.00    +0.148 C 
ENDROOT
BRANCH   1   2
ATOM      2  N   UNL     1      -1.544  -1.274  -1.371  0.00  0.00    -0.294 N 
ATOM      3  C   UNL     1      -2.565  -2.121  -1.611  0.00  0.00    +0.306 C 
ATOM      4  O   UNL     1      -3.162  -2.632  -0.684  0.00  0.00    -0.252 OA
ATOM      5  N   UNL     1      -2.922  -2.402  -2.880  0.00  0.00    -0.247 N 
ATOM      6  C   UNL     1      -3.975  -3.276  -3.129  0.00  0.00    +0.189 A 
ATOM      7  N   UNL     1      -4.742  -3.919  -2.270  0.00  0.00    -0.126 NA
ATOM      8  N   UNL     1      -5.670  -4.688  -2.650  0.00  0.00    -0.148 NA
ATOM      9  C   UNL     1      -5.879  -4.853  -3.941  0.00  0.00    +0.183 A 
ATOM     10  S   UNL     1      -4.609  -3.784  -4.606  0.00  0.00    -0.039 S 
ATOM     11  H   UNL     1      -1.067  -0.867  -2.111  0.00  0.00    +0.151 HD
ATOM     12  H   UNL     1      -2.445  -1.994  -3.620  0.00  0.00    +0.158 HD
ENDBRANCH   1   2
BRANCH   1  17
ATOM     13  C   UNL     1      -0.016   1.351   0.009  0.00  0.00    +0.015 A 
ATOM     14  C   UNL     1       1.183   2.038   0.002  0.00  0.00    +0.036 A 
ATOM     15  C   UNL     1       2.343   1.336  -0.013  0.00  0.00    +0.142 A 
ATOM     16  S   UNL     1       1.754  -0.349  -0.017  0.00  0.00    -0.072 S 
ATOM     17  C   UNL     1       0.002  -0.004   0.002  0.00  0.00    +0.009 A 
BRANCH  15  18
ATOM     18  S   UNL     1       4.001   1.932  -0.026  0.00  0.00    +0.062 S 
ATOM     19  O   UNL     1       4.799   0.900  -0.590  0.00  0.00    -0.153 OA
ATOM     20  O   UNL     1       3.957   3.244  -0.570  0.00  0.00    -0.153 OA
BRANCH  18  21
ATOM     21  N   UNL     1       4.477   2.089   1.552  0.00  0.00    -0.203 NA
ATOM     22  H   UNL     1       3.864   1.863   2.268  0.00  0.00    +0.144 HD
ATOM     23  H   UNL     1       5.369   2.408   1.760  0.00  0.00    +0.144 HD
ENDBRANCH  18  21
ENDBRANCH  15  18
ENDBRANCH   1  17
TORSDOF 4
