REMARK  Name = ZINC13142043
REMARK  9 active torsions:
REMARK  status: ('A' for Active; 'I' for Inactive)
REMARK    1  A    between atoms: C_1  and  C_2
REMARK    2  A    between atoms: C_3  and  C_14
REMARK    3  A    between atoms: N_5  and  C_7
REMARK    4  A    between atoms: C_14  and  C_15
REMARK    5  A    between atoms: C_14  and  C_25
REMARK    6  A    between atoms: C_19  and  N_22
REMARK    7  A    between atoms: C_20  and  O_21
REMARK    8  A    between atoms: C_26  and  C_37
REMARK    9  A    between atoms: N_28  and  C_31
REMARK                            x       y       z     vdW  Elec       q    Type
REMARK                         _______ _______ _______ _____ _____    ______ ____
ROOT
ATOM      1  C   UNL     1      -0.489   4.072  -0.737  0.00  0.00    +0.097 C 
ENDROOT
BRANCH   1   4
ATOM      2  C   UNL     1      -0.090   1.062  -0.043  0.00  0.00    +0.065 C 
ATOM      3  C   UNL     1      -0.609   1.605  -1.349  0.00  0.00    +0.039 A 
ATOM      4  C   UNL     1      -0.781   2.909  -1.649  0.00  0.00    +0.051 A 
ATOM      5  C   UNL     1      -1.284   2.993  -2.968  0.00  0.00    +0.276 A 
ATOM      6  N   UNL     1      -1.406   1.736  -3.440  0.00  0.00    -0.219 N 
ATOM      7  N   UNL     1      -0.979   0.860  -2.433  0.00  0.00    -0.294 N 
ATOM      8  O   UNL     1      -1.558   4.016  -3.569  0.00  0.00    -0.266 OA
ATOM      9  H   UNL     1      -0.953  -0.108  -2.494  0.00  0.00    +0.187 HD
BRANCH   6  10
ATOM     10  C   UNL     1      -1.870   1.372  -4.708  0.00  0.00    +0.067 A 
ATOM     11  C   UNL     1      -2.253   2.350  -5.617  0.00  0.00    +0.028 A 
ATOM     12  C   UNL     1      -2.710   1.987  -6.868  0.00  0.00    +0.002 A 
ATOM     13  C   UNL     1      -2.788   0.651  -7.217  0.00  0.00    +0.000 A 
ATOM     14  C   UNL     1      -2.408  -0.325  -6.315  0.00  0.00    +0.002 A 
ATOM     15  C   UNL     1      -1.944   0.031  -5.064  0.00  0.00    +0.028 A 
ENDBRANCH   6  10
ENDBRANCH   1   4
BRANCH   1  16
ATOM     16  C   UNL     1      -1.759   4.842  -0.483  0.00  0.00    +0.051 A 
ATOM     17  C   UNL     1      -1.856   6.011   0.182  0.00  0.00    +0.039 A 
ATOM     18  N   UNL     1      -3.169   6.390   0.201  0.00  0.00    -0.294 N 
ATOM     19  N   UNL     1      -3.914   5.417  -0.478  0.00  0.00    -0.219 N 
ATOM     20  C   UNL     1      -3.056   4.468  -0.905  0.00  0.00    +0.276 A 
ATOM     21  O   UNL     1      -3.346   3.468  -1.536  0.00  0.00    -0.266 OA
ATOM     22  C   UNL     1      -0.711   6.772   0.799  0.00  0.00    +0.065 C 
ATOM     23  H   UNL     1      -3.523   7.193   0.614  0.00  0.00    +0.187 HD
BRANCH  19  24
ATOM     24  C   UNL     1      -5.298   5.429  -0.680  0.00  0.00    +0.067 A 
ATOM     25  C   UNL     1      -5.910   4.391  -1.370  0.00  0.00    +0.028 A 
ATOM     26  C   UNL     1      -7.276   4.406  -1.568  0.00  0.00    +0.002 A 
ATOM     27  C   UNL     1      -8.035   5.455  -1.081  0.00  0.00    +0.000 A 
ATOM     28  C   UNL     1      -7.429   6.490  -0.394  0.00  0.00    +0.002 A 
ATOM     29  C   UNL     1      -6.063   6.478  -0.188  0.00  0.00    +0.028 A 
ENDBRANCH  19  24
ENDBRANCH   1  16
BRANCH   1  30
ATOM     30  C   UNL     1       0.526   4.977  -1.387  0.00  0.00    +0.008 A 
ATOM     31  C   UNL     1       0.180   5.716  -2.502  0.00  0.00    +0.008 A 
ATOM     32  C   UNL     1       1.110   6.547  -3.098  0.00  0.00    +0.003 A 
ATOM     33  C   UNL     1       2.389   6.640  -2.581  0.00  0.00    +0.036 A 
ATOM     34  C   UNL     1       2.741   5.903  -1.467  0.00  0.00    +0.168 A 
ATOM     35  C   UNL     1       1.807   5.073  -0.863  0.00  0.00    +0.151 A 
BRANCH  34  36
ATOM     36  N   UNL     1       4.110   6.003  -0.914  0.00  0.00    +0.060 N 
ATOM     37  O   UNL     1       4.922   6.729  -1.438  0.00  0.00    -0.126 OA
ATOM     38  O   UNL     1       4.417   5.358   0.061  0.00  0.00    -0.126 OA
ENDBRANCH  34  36
BRANCH  35  39
ATOM     39  O   UNL     1       2.148   4.351   0.237  0.00  0.00    -0.504 OA
ATOM     40  H   UNL     1       2.509   3.477   0.036  0.00  0.00    +0.292 HD
ENDBRANCH  35  39
ENDBRANCH   1  30
TORSDOF 7
