REMARK  Name = ZINC36597709
REMARK  11 active torsions:
REMARK  status: ('A' for Active; 'I' for Inactive)
REMARK    1  A    between atoms: C_1  and  C_2
REMARK    2  A    between atoms: C_5  and  C_7
REMARK    3  A    between atoms: C_7  and  N_8
REMARK    4  A    between atoms: N_8  and  C_9
REMARK    5  A    between atoms: C_9  and  C_11
REMARK    6  A    between atoms: C_9  and  C_18
REMARK    7  A    between atoms: C_16  and  O_17
REMARK    8  A    between atoms: N_20  and  C_21
REMARK    9  A    between atoms: C_27  and  C_29
REMARK   10  A    between atoms: C_33  and  O_36
REMARK   11  A    between atoms: C_34  and  O_35
REMARK                            x       y       z     vdW  Elec       q    Type
REMARK                         _______ _______ _______ _____ _____    ______ ____
ROOT
ATOM      1  N   UNL     1       1.919  -2.805  -2.110  0.00  0.00    -0.274 N 
ATOM      2  C   UNL     1       1.481  -3.907  -1.471  0.00  0.00    +0.252 C 
ATOM      3  O   UNL     1       1.261  -3.869  -0.275  0.00  0.00    -0.270 OA
ENDROOT
BRANCH   2   4
ATOM      4  C   UNL     1       1.268  -5.160  -2.221  0.00  0.00    +0.082 A 
ATOM      5  C   UNL     1       2.043  -5.443  -3.349  0.00  0.00    +0.017 A 
ATOM      6  C   UNL     1       1.841  -6.614  -4.046  0.00  0.00    +0.005 A 
ATOM      7  C   UNL     1       0.873  -7.516  -3.636  0.00  0.00    +0.049 A 
ATOM      8  C   UNL     1       0.097  -7.249  -2.521  0.00  0.00    +0.159 A 
ATOM      9  C   UNL     1       0.292  -6.073  -1.802  0.00  0.00    +0.171 A 
BRANCH   9  10
ATOM     10  O   UNL     1      -0.462  -5.810  -0.705  0.00  0.00    -0.503 OA
ATOM     11  H   UNL     1      -1.278  -5.328  -0.895  0.00  0.00    +0.292 HD
ENDBRANCH   9  10
BRANCH   8  12
ATOM     12  O   UNL     1      -0.852  -8.138  -2.124  0.00  0.00    -0.503 OA
ATOM     13  H   UNL     1      -0.532  -8.802  -1.498  0.00  0.00    +0.292 HD
ENDBRANCH   8  12
ENDBRANCH   2   4
BRANCH   1  14
ATOM     14  C   UNL     1       1.360  -1.493  -1.776  0.00  0.00    +0.183 C 
BRANCH  14  19
ATOM     15  C   UNL     1      -1.810   0.011  -5.399  0.00  0.00    +0.086 C 
ATOM     16  C   UNL     1      -1.288  -0.618  -4.133  0.00  0.00    +0.102 A 
ATOM     17  C   UNL     1      -2.024  -1.273  -3.218  0.00  0.00    +0.045 A 
ATOM     18  C   UNL     1      -1.135  -1.695  -2.202  0.00  0.00    +0.046 A 
ATOM     19  C   UNL     1       0.091  -1.273  -2.558  0.00  0.00    +0.122 A 
ATOM     20  O   UNL     1      -0.006  -0.626  -3.731  0.00  0.00    -0.463 OA
ENDBRANCH  14  19
ENDBRANCH   1  14
BRANCH   1  21
ATOM     21  C   UNL     1       2.954  -2.919  -3.141  0.00  0.00    +0.196 C 
BRANCH  21  22
ATOM     22  C   UNL     1       2.313  -3.253  -4.463  0.00  0.00    +0.023 A 
ATOM     23  C   UNL     1       0.952  -3.481  -4.533  0.00  0.00    +0.009 A 
ATOM     24  C   UNL     1       0.363  -3.788  -5.745  0.00  0.00    +0.001 A 
ATOM     25  C   UNL     1       1.134  -3.868  -6.891  0.00  0.00    +0.004 A 
ATOM     26  C   UNL     1       2.495  -3.641  -6.826  0.00  0.00    +0.046 A 
ATOM     27  C   UNL     1       3.087  -3.327  -5.611  0.00  0.00    +0.122 A 
BRANCH  27  28
ATOM     28  O   UNL     1       4.425  -3.098  -5.545  0.00  0.00    -0.506 OA
ATOM     29  H   UNL     1       4.968  -3.870  -5.758  0.00  0.00    +0.292 HD
ENDBRANCH  27  28
ENDBRANCH  21  22
BRANCH  21  30
ATOM     30  C   UNL     1       3.922  -4.010  -2.761  0.00  0.00    +0.238 C 
ATOM     31  O   UNL     1       3.688  -4.724  -1.810  0.00  0.00    -0.273 OA
ATOM     32  N   UNL     1       5.048  -4.192  -3.480  0.00  0.00    -0.311 N 
ATOM     33  H   UNL     1       5.279  -3.568  -4.186  0.00  0.00    +0.149 HD
BRANCH  32  34
ATOM     34  C   UNL     1       5.922  -5.332  -3.195  0.00  0.00    +0.073 C 
ATOM     35  C   UNL     1       6.881  -4.969  -2.060  0.00  0.00    +0.022 C 
ATOM     36  C   UNL     1       7.794  -6.160  -1.762  0.00  0.00    +0.002 C 
ATOM     37  C   UNL     1       8.598  -6.511  -3.016  0.00  0.00    +0.000 C 
ATOM     38  C   UNL     1       7.639  -6.875  -4.151  0.00  0.00    +0.002 C 
ATOM     39  C   UNL     1       6.726  -5.684  -4.449  0.00  0.00    +0.022 C 
ENDBRANCH  32  34
ENDBRANCH  21  30
ENDBRANCH   1  21
TORSDOF 10
