REMARK  Name = ZINC20546585
REMARK  5 active torsions:
REMARK  status: ('A' for Active; 'I' for Inactive)
REMARK    1  A    between atoms: C_1  and  C_2
REMARK    2  A    between atoms: C_7  and  N_8
REMARK    3  A    between atoms: N_8  and  S_9
REMARK    4  A    between atoms: S_9  and  N_12
REMARK    5  A    between atoms: C_17  and  C_19
REMARK                            x       y       z     vdW  Elec       q    Type
REMARK                         _______ _______ _______ _____ _____    ______ ____
ROOT
ATOM      1  S   UNL     1      -1.935   2.182   0.234  0.00  0.00    +0.047 S 
ATOM      2  O   UNL     1      -0.663   2.071   0.857  0.00  0.00    -0.169 OA
ATOM      3  O   UNL     1      -2.741   1.049  -0.058  0.00  0.00    -0.169 OA
ENDROOT
BRANCH   1   4
ATOM      4  N   UNL     1      -1.692   2.971  -1.201  0.00  0.00    +0.444 N 
ATOM      5  C   UNL     1      -2.447   2.590  -2.403  0.00  0.00    -0.043 C 
ATOM      6  C   UNL     1      -1.457   2.305  -3.537  0.00  0.00    -0.015 C 
ATOM      7  C   UNL     1      -0.543   3.517  -3.728  0.00  0.00    -0.003 C 
ATOM      8  C   UNL     1       0.253   3.765  -2.444  0.00  0.00    -0.012 C 
ATOM      9  C   UNL     1      -0.721   4.071  -1.296  0.00  0.00    -0.039 C 
ATOM     10  C   UNL     1       0.052   4.186   0.019  0.00  0.00    -0.010 C 
ATOM     11  H   UNL     1      -1.500   3.469  -2.163  0.00  0.00    -0.043 HD
ENDBRANCH   1   4
BRANCH   1  12
ATOM     12  N   UNL     1      -2.847   3.178   1.192  0.00  0.00    -0.116 NA
BRANCH  12  19
ATOM     13  C   UNL     1      -3.718   5.777   1.950  0.00  0.00    +0.046 C 
ATOM     14  C   UNL     1      -4.571   4.865   1.106  0.00  0.00    -0.025 A 
ATOM     15  C   UNL     1      -5.812   5.286   0.671  0.00  0.00    +0.020 A 
ATOM     16  C   UNL     1      -6.598   4.447  -0.099  0.00  0.00    +0.018 A 
ATOM     17  C   UNL     1      -6.140   3.187  -0.441  0.00  0.00    +0.017 A 
ATOM     18  C   UNL     1      -4.897   2.763  -0.014  0.00  0.00    +0.028 A 
ATOM     19  C   UNL     1      -4.106   3.603   0.759  0.00  0.00    +0.075 A 
ATOM     20 BR   UNL     1      -8.301   5.023  -0.685  0.00  0.00    -0.050 Br
ENDBRANCH  12  19
ENDBRANCH   1  12
TORSDOF 3
