REMARK  Name = ZINC65021401
REMARK  4 active torsions:
REMARK  status: ('A' for Active; 'I' for Inactive)
REMARK    1  A    between atoms: C_5  and  N_7
REMARK    2  A    between atoms: N_7  and  S_8
REMARK    3  A    between atoms: S_8  and  C_11
REMARK    4  A    between atoms: C_20  and  C_23
REMARK                            x       y       z     vdW  Elec       q    Type
REMARK                         _______ _______ _______ _____ _____    ______ ____
ROOT
ATOM      1  C   UNL     1       0.233  -4.641  -0.026  0.00  0.00    +0.112 A 
ATOM      2  C   UNL     1       0.390  -5.300  -1.232  0.00  0.00    +0.030 A 
ATOM      3  C   UNL     1       0.714  -6.645  -1.245  0.00  0.00    +0.018 A 
ATOM      4  C   UNL     1       0.883  -7.326  -0.051  0.00  0.00    +0.030 A 
ATOM      5  C   UNL     1       0.734  -6.667   1.169  0.00  0.00    +0.049 A 
ATOM      6  C   UNL     1       0.407  -5.314   1.167  0.00  0.00    +0.053 A 
ATOM      7  N   UNL     1       0.920  -7.318   2.384  0.00  0.00    -0.283 N 
ATOM      8  C   UNL     1       1.528  -8.485   2.575  0.00  0.00    +0.240 C 
ATOM      9  O   UNL     1       1.510  -8.970   3.686  0.00  0.00    -0.274 OA
ATOM     10  C   UNL     1       2.239  -9.233   1.478  0.00  0.00    +0.223 C 
ATOM     11  S   UNL     1       1.285  -9.045  -0.060  0.00  0.00    -0.101 S 
ATOM     12  H   UNL     1       0.570  -6.876   3.174  0.00  0.00    +0.155 HD
ENDROOT
BRANCH  10  13
ATOM     13  C   UNL     1       3.623  -8.666   1.292  0.00  0.00    +0.238 C 
ATOM     14  O   UNL     1       3.836  -7.496   1.528  0.00  0.00    -0.274 OA
ATOM     15  N   UNL     1       4.625  -9.460   0.865  0.00  0.00    -0.300 N 
ATOM     16  C   UNL     1       4.506 -10.889   0.538  0.00  0.00    +0.108 C 
ATOM     17  C   UNL     1       5.908 -11.382   0.121  0.00  0.00    +0.020 C 
ATOM     18  C   UNL     1       6.852 -10.341   0.779  0.00  0.00    +0.020 C 
ATOM     19  C   UNL     1       6.020  -9.039   0.642  0.00  0.00    +0.108 C 
ENDBRANCH  10  13
BRANCH   1  20
ATOM     20  S   UNL     1      -0.184  -2.930  -0.012  0.00  0.00    +0.092 S 
ATOM     21  O   UNL     1      -0.804  -2.673   1.241  0.00  0.00    -0.148 OA
ATOM     22  O   UNL     1      -0.828  -2.659  -1.250  0.00  0.00    -0.148 OA
BRANCH  20  23
ATOM     23  N   UNL     1       1.236  -2.079  -0.021  0.00  0.00    -0.095 NA
BRANCH  23  28
ATOM     24  C   UNL     1      -0.017   1.377   0.010  0.00  0.00    +0.002 A 
ATOM     25  C   UNL     1       1.170   2.087   0.002  0.00  0.00    +0.003 A 
ATOM     26  C   UNL     1       2.380   1.418  -0.013  0.00  0.00    +0.040 A 
ATOM     27  C   UNL     1       2.406   0.035  -0.021  0.00  0.00    +0.148 A 
ATOM     28  C   UNL     1       1.214  -0.681  -0.013  0.00  0.00    +0.109 A 
ATOM     29  C   UNL     1       0.002  -0.004   0.002  0.00  0.00    +0.029 A 
ATOM     30  F   UNL     1       3.588  -0.619  -0.036  0.00  0.00    -0.203 F 
ENDBRANCH  23  28
ENDBRANCH  20  23
ENDBRANCH   1  20
TORSDOF 4
