REMARK  Name = ZINC62042002
REMARK  13 active torsions:
REMARK  status: ('A' for Active; 'I' for Inactive)
REMARK    1  A    between atoms: C_1  and  C_2
REMARK    2  A    between atoms: C_2  and  N_3
REMARK    3  A    between atoms: N_3  and  C_4
REMARK    4  A    between atoms: N_3  and  C_6
REMARK    5  A    between atoms: C_4  and  C_5
REMARK    6  A    between atoms: C_9  and  N_13
REMARK    7  A    between atoms: C_10  and  C_12
REMARK    8  A    between atoms: C_14  and  C_16
REMARK    9  A    between atoms: C_16  and  C_17
REMARK   10  A    between atoms: C_18  and  C_27
REMARK   11  A    between atoms: C_25  and  C_26
REMARK   12  A    between atoms: C_30  and  C_34
REMARK   13  A    between atoms: C_31  and  C_33
REMARK                            x       y       z     vdW  Elec       q    Type
REMARK                         _______ _______ _______ _____ _____    ______ ____
ROOT
ATOM      1  C   UNL     1      -1.157  -8.927   1.061  0.00  0.00    +0.058 A 
ATOM      2  C   UNL     1      -1.879  -9.223   2.177  0.00  0.00    +0.068 A 
ATOM      3  N   UNL     1      -3.045  -9.766   1.793  0.00  0.00    -0.339 N 
ATOM      4  C   UNL     1      -3.082  -9.823   0.470  0.00  0.00    +0.119 A 
ATOM      5  N   UNL     1      -1.913  -9.297  -0.016  0.00  0.00    -0.304 N 
ATOM      6  C   UNL     1      -1.693  -9.228  -1.362  0.00  0.00    +0.093 A 
ATOM      7  C   UNL     1      -2.622  -9.673  -2.234  0.00  0.00    +0.018 A 
ATOM      8  C   UNL     1      -3.831 -10.213  -1.767  0.00  0.00    +0.008 A 
ATOM      9  C   UNL     1      -4.060 -10.296  -0.429  0.00  0.00    -0.009 A 
ATOM     10  C   UNL     1      -5.354 -10.871   0.088  0.00  0.00    +0.047 C 
ATOM     11  H   UNL     1      -3.748 -10.070   2.389  0.00  0.00    +0.167 HD
ENDROOT
BRANCH   2  12
ATOM     12  C   UNL     1      -1.450  -8.986   3.578  0.00  0.00    +0.000 A 
ATOM     13  C   UNL     1      -0.157  -9.318   3.979  0.00  0.00    +0.010 A 
ATOM     14  C   UNL     1       0.237  -9.096   5.283  0.00  0.00    +0.004 A 
ATOM     15  C   UNL     1      -0.649  -8.545   6.191  0.00  0.00    -0.047 A 
ATOM     16  C   UNL     1      -1.934  -8.215   5.799  0.00  0.00    -0.047 A 
ATOM     17  C   UNL     1      -2.336  -8.427   4.496  0.00  0.00    +0.013 A 
ATOM     18  C   UNL     1      -2.893  -7.616   6.794  0.00  0.00    +0.044 C 
ATOM     19  C   UNL     1      -0.214  -8.305   7.614  0.00  0.00    +0.044 C 
ENDBRANCH   2  12
BRANCH   1  20
ATOM     20  C   UNL     1       0.214  -8.302   1.020  0.00  0.00    +0.152 C 
BRANCH  20  22
ATOM     21  N   UNL     1       1.185  -6.029   0.935  0.00  0.00    -0.285 N 
ATOM     22  C   UNL     1       0.082  -6.802   0.976  0.00  0.00    +0.223 C 
ATOM     23  O   UNL     1      -1.018  -6.290   0.977  0.00  0.00    -0.275 OA
ATOM     24  H   UNL     1       2.062  -6.438   0.869  0.00  0.00    +0.155 HD
BRANCH  21  28
ATOM     25  C   UNL     1       0.829  -1.881   1.096  0.00  0.00    +0.014 A 
ATOM     26  C   UNL     1      -0.133  -2.631   0.444  0.00  0.00    +0.023 A 
ATOM     27  C   UNL     1      -0.018  -4.006   0.389  0.00  0.00    +0.025 A 
ATOM     28  C   UNL     1       1.065  -4.636   0.989  0.00  0.00    +0.036 A 
ATOM     29  C   UNL     1       2.029  -3.879   1.642  0.00  0.00    -0.028 A 
ATOM     30  C   UNL     1       1.911  -2.504   1.689  0.00  0.00    +0.026 A 
ATOM     31  C   UNL     1       3.206  -4.558   2.294  0.00  0.00    +0.046 C 
BRANCH  25  32
ATOM     32  N   UNL     1       0.709  -0.489   1.149  0.00  0.00    -0.394 NA
ATOM     33  H   UNL     1       1.493  -0.104   1.655  0.00  0.00    +0.126 HD
BRANCH  32  35
ATOM     34  C   UNL     1       0.686   1.583  -0.156  0.00  0.00    +0.022 C 
ATOM     35  C   UNL     1       0.691   0.054  -0.215  0.00  0.00    +0.081 C 
ENDBRANCH  32  35
BRANCH  32  36
ATOM     36  C   UNL     1      -0.540  -0.131   1.835  0.00  0.00    +0.081 C 
ATOM     37  C   UNL     1      -0.470  -0.588   3.294  0.00  0.00    +0.022 C 
ENDBRANCH  32  36
ENDBRANCH  25  32
ENDBRANCH  21  28
ENDBRANCH  20  22
ENDBRANCH   1  20
TORSDOF 7
