REMARK  Name = ZINC36586652
REMARK  15 active torsions:
REMARK  status: ('A' for Active; 'I' for Inactive)
REMARK    1  A    between atoms: C_1  and  C_2
REMARK    2  A    between atoms: C_2  and  C_3
REMARK    3  A    between atoms: C_2  and  C_4
REMARK    4  A    between atoms: C_2  and  N_5
REMARK    5  A    between atoms: C_6  and  C_8
REMARK    6  A    between atoms: C_8  and  C_10
REMARK    7  A    between atoms: C_8  and  N_20
REMARK    8  A    between atoms: C_13  and  C_16
REMARK    9  A    between atoms: N_20  and  C_31
REMARK   10  A    between atoms: C_21  and  C_23
REMARK   11  A    between atoms: C_24  and  O_30
REMARK   12  A    between atoms: C_28  and  O_29
REMARK   13  A    between atoms: C_31  and  C_32
REMARK   14  A    between atoms: C_31  and  C_33
REMARK   15  A    between atoms: C_31  and  C_34
REMARK                            x       y       z     vdW  Elec       q    Type
REMARK                         _______ _______ _______ _____ _____    ______ ____
ROOT
ATOM      1  C   UNL     1       2.200   0.156  -3.829  0.00  0.00    +0.193 C 
ENDROOT
BRANCH   1   2
ATOM      2  C   UNL     1       2.479  -1.217  -4.386  0.00  0.00    -0.018 A 
ATOM      3  C   UNL     1       3.197  -2.133  -3.639  0.00  0.00    +0.006 A 
ATOM      4  C   UNL     1       3.453  -3.391  -4.150  0.00  0.00    +0.013 A 
ATOM      5  C   UNL     1       2.991  -3.734  -5.407  0.00  0.00    +0.055 A 
ATOM      6  C   UNL     1       2.273  -2.818  -6.153  0.00  0.00    +0.013 A 
ATOM      7  C   UNL     1       2.013  -1.561  -5.641  0.00  0.00    +0.006 A 
BRANCH   5   8
ATOM      8  C   UNL     1       3.271  -5.106  -5.965  0.00  0.00    +0.417 C 
ATOM      9  F   UNL     1       2.237  -5.976  -5.604  0.00  0.00    -0.166 F 
ATOM     10  F   UNL     1       3.356  -5.035  -7.359  0.00  0.00    -0.166 F 
ATOM     11  F   UNL     1       4.482  -5.581  -5.448  0.00  0.00    -0.166 F 
ENDBRANCH   5   8
ENDBRANCH   1   2
BRANCH   1  13
ATOM     12  N   UNL     1      -0.226  -0.323  -3.789  0.00  0.00    -0.309 N 
ATOM     13  C   UNL     1       0.857   0.157  -3.146  0.00  0.00    +0.239 C 
ATOM     14  O   UNL     1       0.750   0.590  -2.018  0.00  0.00    -0.273 OA
ATOM     15  H   UNL     1      -0.141  -0.670  -4.691  0.00  0.00    +0.149 HD
BRANCH  12  17
ATOM     16  C   UNL     1      -1.921   1.114  -2.768  0.00  0.00    +0.031 C 
ATOM     17  C   UNL     1      -1.532  -0.322  -3.126  0.00  0.00    +0.026 C 
ATOM     18  C   UNL     1      -1.457  -1.163  -1.850  0.00  0.00    +0.031 C 
ATOM     19  C   UNL     1      -2.583  -0.916  -4.066  0.00  0.00    +0.031 C 
ENDBRANCH  12  17
ENDBRANCH   1  13
BRANCH   1  20
ATOM     20  N   UNL     1       3.240   0.510  -2.860  0.00  0.00    -0.277 N 
ATOM     21  C   UNL     1       3.276  -0.096  -1.657  0.00  0.00    +0.255 C 
ATOM     22  O   UNL     1       2.412  -0.896  -1.354  0.00  0.00    -0.270 OA
BRANCH  21  23
ATOM     23  C   UNL     1       4.361   0.210  -0.710  0.00  0.00    +0.119 A 
ATOM     24  C   UNL     1       4.220   1.260   0.209  0.00  0.00    +0.133 A 
ATOM     25  C   UNL     1       5.247   1.540   1.096  0.00  0.00    +0.046 A 
ATOM     26  C   UNL     1       6.407   0.788   1.077  0.00  0.00    +0.007 A 
ATOM     27  C   UNL     1       6.556  -0.249   0.175  0.00  0.00    +0.046 A 
ATOM     28  C   UNL     1       5.540  -0.549  -0.717  0.00  0.00    +0.133 A 
BRANCH  28  29
ATOM     29  O   UNL     1       5.686  -1.571  -1.597  0.00  0.00    -0.506 OA
ATOM     30  H   UNL     1       6.084  -1.310  -2.440  0.00  0.00    +0.292 HD
ENDBRANCH  28  29
BRANCH  24  31
ATOM     31  O   UNL     1       3.083   2.000   0.230  0.00  0.00    -0.506 OA
ATOM     32  H   UNL     1       2.400   1.654   0.821  0.00  0.00    +0.292 HD
ENDBRANCH  24  31
ENDBRANCH  21  23
BRANCH  20  33
ATOM     33  C   UNL     1       4.242   1.524  -3.199  0.00  0.00    +0.030 C 
ATOM     34  C   UNL     1       3.909   2.134  -4.562  0.00  0.00    +0.031 C 
ATOM     35  C   UNL     1       4.236   2.623  -2.134  0.00  0.00    +0.031 C 
ATOM     36  C   UNL     1       5.626   0.875  -3.256  0.00  0.00    +0.031 C 
ENDBRANCH  20  33
ENDBRANCH   1  20
TORSDOF 9
