REMARK  Name = ZINC19563054
REMARK  7 active torsions:
REMARK  status: ('A' for Active; 'I' for Inactive)
REMARK    1  A    between atoms: C_1  and  O_2
REMARK    2  A    between atoms: O_2  and  C_3
REMARK    3  A    between atoms: N_13  and  C_16
REMARK    4  A    between atoms: C_16  and  C_17
REMARK    5  A    between atoms: C_17  and  C_19
REMARK    6  A    between atoms: C_17  and  O_30
REMARK    7  A    between atoms: C_32  and  O_34
REMARK                            x       y       z     vdW  Elec       q    Type
REMARK                         _______ _______ _______ _____ _____    ______ ____
ROOT
ATOM      1  C   UNL     1      -2.688  -0.250   8.086  0.00  0.00    +0.124 A 
ATOM      2  C   UNL     1      -1.830   0.181   9.089  0.00  0.00    +0.046 A 
ATOM      3  C   UNL     1      -0.503   0.425   8.802  0.00  0.00    +0.013 A 
ATOM      4  C   UNL     1      -0.019   0.244   7.516  0.00  0.00    +0.023 A 
ATOM      5  C   UNL     1      -0.869  -0.190   6.514  0.00  0.00    +0.130 A 
ATOM      6  C   UNL     1      -2.208  -0.434   6.801  0.00  0.00    +0.091 A 
ATOM      7  O   UNL     1      -0.433  -0.391   5.243  0.00  0.00    -0.485 OA
ATOM      8  C   UNL     1       0.810   0.199   4.864  0.00  0.00    +0.110 C 
ATOM      9  C   UNL     1       0.653   1.717   4.764  0.00  0.00    +0.029 C 
ATOM     10  C   UNL     1      -0.349   2.049   3.655  0.00  0.00    -0.075 C 
ATOM     11  N   UNL     1       0.130   1.500   2.381  0.00  0.00    +0.382 N 
ATOM     12  C   UNL     1       0.240   0.036   2.440  0.00  0.00    -0.075 C 
ATOM     13  C   UNL     1       1.259  -0.357   3.512  0.00  0.00    +0.029 C 
ATOM     14  C   UNL     1       1.857  -0.138   5.932  0.00  0.00    +0.084 C 
ATOM     15  C   UNL     1       1.437   0.527   7.245  0.00  0.00    +0.152 C 
ATOM     16  H   UNL     1       1.137   1.904   2.200  0.00  0.00    -0.082 HD
ENDROOT
BRANCH   1  18
ATOM     17  C   UNL     1      -4.422  -0.276   9.713  0.00  0.00    +0.277 C 
ATOM     18  O   UNL     1      -3.996  -0.489   8.365  0.00  0.00    -0.495 OA
ENDBRANCH   1  18
BRANCH  15  19
ATOM     19  O   UNL     1       2.230   0.009   8.315  0.00  0.00    -0.387 OA
ATOM     20  H   UNL     1       3.324   0.121   8.293  0.00  0.00    +0.210 HD
ENDBRANCH  15  19
BRANCH  11  21
ATOM     21  C   UNL     1      -0.733   1.918   1.269  0.00  0.00    -0.042 C 
BRANCH  21  22
ATOM     22  C   UNL     1      -0.441   3.378   0.918  0.00  0.00    +0.128 C 
BRANCH  22  23
ATOM     23  C   UNL     1      -1.336   3.812  -0.215  0.00  0.00    -0.017 A 
ATOM     24  C   UNL     1      -1.016   3.470  -1.516  0.00  0.00    +0.010 A 
ATOM     25  C   UNL     1      -1.833   3.864  -2.560  0.00  0.00    +0.050 A 
ATOM     26  C   UNL     1      -2.975   4.602  -2.298  0.00  0.00    +0.162 A 
ATOM     27  C   UNL     1      -3.296   4.945  -0.993  0.00  0.00    +0.162 A 
ATOM     28  C   UNL     1      -2.479   4.545   0.051  0.00  0.00    +0.055 A 
ATOM     29  O   UNL     1      -4.423   5.673  -0.745  0.00  0.00    -0.488 OA
ATOM     30  C   UNL     1      -4.408   7.025  -1.208  0.00  0.00    +0.232 C 
ATOM     31  C   UNL     1      -4.817   7.098  -2.671  0.00  0.00    +0.082 C 
ATOM     32  C   UNL     1      -3.824   6.399  -3.586  0.00  0.00    +0.232 C 
ATOM     33  O   UNL     1      -3.790   4.995  -3.319  0.00  0.00    -0.488 OA
ENDBRANCH  22  23
BRANCH  22  34
ATOM     34  O   UNL     1       0.925   3.509   0.521  0.00  0.00    -0.389 OA
ATOM     35  H   UNL     1       1.322   4.493   0.231  0.00  0.00    +0.210 HD
ENDBRANCH  22  34
ENDBRANCH  21  22
ENDBRANCH  11  21
TORSDOF 6
