REMARK  Name = ZINC50615199
REMARK  9 active torsions:
REMARK  status: ('A' for Active; 'I' for Inactive)
REMARK    1  A    between atoms: C_1  and  C_2
REMARK    2  A    between atoms: C_5  and  C_17
REMARK    3  A    between atoms: C_7  and  O_8
REMARK    4  A    between atoms: O_8  and  C_9
REMARK    5  A    between atoms: C_9  and  C_10
REMARK    6  A    between atoms: C_10  and  N_11
REMARK    7  A    between atoms: C_13  and  N_16
REMARK    8  A    between atoms: C_17  and  C_18
REMARK    9  A    between atoms: C_17  and  C_19
REMARK                            x       y       z     vdW  Elec       q    Type
REMARK                         _______ _______ _______ _____ _____    ______ ____
ROOT
ATOM      1  O   UNL     1       0.025  -0.033   2.381  0.00  0.00    -0.490 OA
ENDROOT
BRANCH   1   8
ATOM      2  C   UNL     1      -0.018   1.503   0.010  0.00  0.00    +0.047 C 
ATOM      3  C   UNL     1       0.002  -0.004   0.002  0.00  0.00    -0.009 A 
ATOM      4  C   UNL     1       0.006  -0.689  -1.198  0.00  0.00    +0.007 A 
ATOM      5  C   UNL     1       0.024  -2.071  -1.206  0.00  0.00    +0.004 A 
ATOM      6  C   UNL     1       0.039  -2.772  -0.014  0.00  0.00    -0.041 A 
ATOM      7  C   UNL     1       0.036  -2.092   1.188  0.00  0.00    +0.049 A 
ATOM      8  C   UNL     1       0.023  -0.705   1.199  0.00  0.00    +0.124 A 
BRANCH   6   9
ATOM      9  C   UNL     1       0.058  -4.279  -0.027  0.00  0.00    +0.013 C 
ATOM     10  C   UNL     1      -1.188  -4.799  -0.746  0.00  0.00    +0.012 C 
ATOM     11  C   UNL     1       1.310  -4.767  -0.759  0.00  0.00    +0.012 C 
ENDBRANCH   6   9
ENDBRANCH   1   8
BRANCH   1  12
ATOM     12  C   UNL     1       0.048  -0.820   3.574  0.00  0.00    +0.252 C 
BRANCH  12  13
ATOM     13  C   UNL     1       0.047   0.104   4.793  0.00  0.00    +0.184 C 
BRANCH  13  14
ATOM     14  N   UNL     1       0.070  -0.702   6.016  0.00  0.00    -0.266 N 
ATOM     15  C   UNL     1       0.975  -0.601   7.025  0.00  0.00    +0.131 A 
ATOM     16  C   UNL     1       0.645  -1.522   7.966  0.00  0.00    +0.063 A 
ATOM     17  C   UNL     1      -0.495  -2.204   7.518  0.00  0.00    +0.157 A 
ATOM     18  N   UNL     1      -0.842  -1.710   6.357  0.00  0.00    -0.178 NA
BRANCH  16  19
ATOM     19  N   UNL     1       1.326  -1.751   9.177  0.00  0.00    -0.356 N 
ATOM     20  H   UNL     1       2.109  -1.224   9.400  0.00  0.00    +0.142 HD
ATOM     21  H   UNL     1       1.011  -2.435   9.788  0.00  0.00    +0.142 HD
ENDBRANCH  16  19
ENDBRANCH  13  14
ENDBRANCH  12  13
ENDBRANCH   1  12
TORSDOF 6
