REMARK  Name = ZINC41165348
REMARK  6 active torsions:
REMARK  status: ('A' for Active; 'I' for Inactive)
REMARK    1  A    between atoms: C_1  and  C_2
REMARK    2  A    between atoms: C_7  and  C_8
REMARK    3  A    between atoms: C_8  and  C_10
REMARK    4  A    between atoms: C_8  and  O_22
REMARK    5  A    between atoms: C_10  and  C_11
REMARK    6  A    between atoms: C_11  and  N_12
REMARK                            x       y       z     vdW  Elec       q    Type
REMARK                         _______ _______ _______ _____ _____    ______ ____
ROOT
ATOM      1  C   UNL     1       0.024   0.066   2.506  0.00  0.00    +0.146 C 
ENDROOT
BRANCH   1   8
ATOM      2  C   UNL     1      -0.018   1.503   0.010  0.00  0.00    +0.044 C 
ATOM      3  C   UNL     1       0.002  -0.004   0.002  0.00  0.00    -0.043 A 
ATOM      4  C   UNL     1       0.006  -0.672  -1.190  0.00  0.00    +0.031 A 
ATOM      5  C   UNL     1       0.025  -2.064  -1.204  0.00  0.00    +0.066 A 
ATOM      6  C   UNL     1       0.041  -2.768   0.016  0.00  0.00    +0.020 A 
ATOM      7  C   UNL     1       0.037  -2.061   1.223  0.00  0.00    +0.018 A 
ATOM      8  C   UNL     1       0.023  -0.697   1.206  0.00  0.00    -0.015 A 
ATOM      9  C   UNL     1       0.058  -4.186  -0.329  0.00  0.00    +0.142 A 
ATOM     10  N   UNL     1       0.053  -4.280  -1.628  0.00  0.00    -0.181 NA
ATOM     11  N   UNL     1       0.033  -3.004  -2.201  0.00  0.00    -0.277 N 
ATOM     12  H   UNL     1       0.025  -2.815  -3.153  0.00  0.00    +0.189 HD
ENDBRANCH   1   8
BRANCH   1  13
ATOM     13  O   UNL     1       0.615  -0.738   3.529  0.00  0.00    -0.387 OA
ATOM     14  H   UNL     1       0.153  -1.572   3.689  0.00  0.00    +0.210 HD
ENDBRANCH   1  13
BRANCH   1  15
ATOM     15  C   UNL     1      -1.414   0.413   2.895  0.00  0.00    +0.055 C 
BRANCH  15  16
ATOM     16  C   UNL     1      -1.406   1.293   4.147  0.00  0.00    +0.108 C 
BRANCH  16  17
ATOM     17  N   UNL     1      -2.783   1.625   4.520  0.00  0.00    -0.330 N 
ATOM     18  C   UNL     1      -3.435   2.825   3.978  0.00  0.00    +0.105 C 
ATOM     19  C   UNL     1      -4.158   3.528   5.134  0.00  0.00    +0.024 C 
ATOM     20  C   UNL     1      -5.250   2.603   5.670  0.00  0.00    +0.038 C 
ATOM     21  C   UNL     1      -4.684   1.240   5.971  0.00  0.00    -0.026 A 
ATOM     22  C   UNL     1      -3.501   0.801   5.394  0.00  0.00    +0.033 A 
ATOM     23  C   UNL     1      -3.011  -0.467   5.685  0.00  0.00    +0.023 A 
ATOM     24  C   UNL     1      -3.703  -1.294   6.547  0.00  0.00    +0.002 A 
ATOM     25  C   UNL     1      -4.884  -0.859   7.121  0.00  0.00    +0.000 A 
ATOM     26  C   UNL     1      -5.369   0.408   6.840  0.00  0.00    +0.005 A 
ENDBRANCH  16  17
ENDBRANCH  15  16
ENDBRANCH   1  15
TORSDOF 5
