REMARK  Name = ZINC39590335
REMARK  5 active torsions:
REMARK  status: ('A' for Active; 'I' for Inactive)
REMARK    1  A    between atoms: C_6  and  C_7
REMARK    2  A    between atoms: C_7  and  N_8
REMARK    3  A    between atoms: C_9  and  C_11
REMARK    4  A    between atoms: C_14  and  N_18
REMARK    5  A    between atoms: C_19  and  C_21
REMARK                            x       y       z     vdW  Elec       q    Type
REMARK                         _______ _______ _______ _____ _____    ______ ____
ROOT
ATOM      1  C   UNL     1      -3.286  -1.925  -2.938  0.00  0.00    +0.086 C 
ATOM      2  C   UNL     1      -4.373  -2.686  -3.180  0.00  0.00    +0.021 C 
ATOM      3  N   UNL     1      -5.146  -3.153  -2.177  0.00  0.00    -0.320 N 
ATOM      4  C   UNL     1      -6.546  -3.492  -2.514  0.00  0.00    +0.219 C 
ATOM      5  S   UNL     1      -6.355  -3.974  -4.285  0.00  0.00    -0.114 S 
ATOM      6  C   UNL     1      -4.789  -3.053  -4.595  0.00  0.00    +0.123 C 
ATOM      7  H   UNL     1      -4.799  -3.262  -1.277  0.00  0.00    +0.148 HD
ENDROOT
BRANCH   1   9
ATOM      8  N   UNL     1      -1.865  -0.824  -1.360  0.00  0.00    -0.308 N 
ATOM      9  C   UNL     1      -3.010  -1.483  -1.623  0.00  0.00    +0.239 C 
ATOM     10  O   UNL     1      -3.808  -1.698  -0.728  0.00  0.00    -0.271 OA
ATOM     11  H   UNL     1      -1.229  -0.652  -2.073  0.00  0.00    +0.149 HD
BRANCH   8  12
ATOM     12  C   UNL     1      -1.579  -0.366   0.002  0.00  0.00    +0.140 C 
BRANCH  12  18
ATOM     13  C   UNL     1      -0.181   1.699  -0.197  0.00  0.00    +0.009 A 
ATOM     14  C   UNL     1       1.039   2.349  -0.176  0.00  0.00    +0.050 A 
ATOM     15  C   UNL     1       2.200   1.635   0.070  0.00  0.00    +0.166 A 
ATOM     16  C   UNL     1       2.135   0.262   0.296  0.00  0.00    +0.167 A 
ATOM     17  C   UNL     1       0.909  -0.382   0.273  0.00  0.00    +0.054 A 
ATOM     18  C   UNL     1      -0.246   0.337   0.027  0.00  0.00    -0.027 A 
ATOM     19  O   UNL     1       3.399  -0.206   0.511  0.00  0.00    -0.453 OA
ATOM     20  C   UNL     1       4.278   0.820   0.011  0.00  0.00    +0.466 C 
ATOM     21  O   UNL     1       3.506   2.027   0.144  0.00  0.00    -0.453 OA
ENDBRANCH  12  18
ENDBRANCH   8  12
ENDBRANCH   1   9
BRANCH   4  22
ATOM     22  N   UNL     1      -7.028  -4.616  -1.707  0.00  0.00    -0.284 N 
ATOM     23  C   UNL     1      -8.348  -4.881  -1.642  0.00  0.00    +0.247 C 
ATOM     24  O   UNL     1      -9.138  -4.188  -2.252  0.00  0.00    -0.270 OA
ATOM     25  H   UNL     1      -6.398  -5.169  -1.219  0.00  0.00    +0.152 HD
BRANCH  23  26
ATOM     26  C   UNL     1      -8.835  -6.015  -0.827  0.00  0.00    +0.049 C 
ATOM     27  C   UNL     1     -10.165  -6.283  -0.768  0.00  0.00    -0.003 C 
ATOM     28  C   UNL     1     -10.600  -7.458   0.085  0.00  0.00    +0.126 C 
ATOM     29  C   UNL     1      -9.514  -8.235   0.798  0.00  0.00    +0.240 C 
ATOM     30  O   UNL     1      -9.796  -9.187   1.496  0.00  0.00    -0.273 OA
ATOM     31  N   UNL     1      -8.239  -7.857   0.648  0.00  0.00    -0.188 NA
ATOM     32  C   UNL     1      -7.883  -6.846  -0.094  0.00  0.00    +0.113 C 
ENDBRANCH  23  26
ENDBRANCH   4  22
TORSDOF 5
