REMARK  Name = ZINC36573279
REMARK  14 active torsions:
REMARK  status: ('A' for Active; 'I' for Inactive)
REMARK    1  A    between atoms: C_1  and  C_2
REMARK    2  A    between atoms: C_2  and  C_3
REMARK    3  A    between atoms: C_3  and  N_4
REMARK    4  A    between atoms: N_4  and  C_5
REMARK    5  A    between atoms: C_5  and  C_7
REMARK    6  A    between atoms: C_5  and  C_16
REMARK    7  A    between atoms: C_8  and  O_15
REMARK    8  A    between atoms: C_10  and  O_14
REMARK    9  A    between atoms: C_12  and  O_13
REMARK   10  A    between atoms: N_18  and  C_19
REMARK   11  A    between atoms: C_19  and  S_20
REMARK   12  A    between atoms: S_20  and  C_23
REMARK   13  A    between atoms: C_26  and  C_29
REMARK   14  A    between atoms: C_30  and  C_32
REMARK                            x       y       z     vdW  Elec       q    Type
REMARK                         _______ _______ _______ _____ _____    ______ ____
ROOT
ATOM      1  C   UNL     1      -0.586  -3.138   0.558  0.00  0.00    +0.199 C 
ENDROOT
BRANCH   1   2
ATOM      2  C   UNL     1      -1.538  -2.905   1.703  0.00  0.00    +0.065 A 
ATOM      3  C   UNL     1      -1.980  -3.976   2.466  0.00  0.00    +0.129 A 
ATOM      4  C   UNL     1      -2.857  -3.761   3.520  0.00  0.00    +0.091 A 
ATOM      5  C   UNL     1      -3.290  -2.477   3.810  0.00  0.00    +0.124 A 
ATOM      6  C   UNL     1      -2.848  -1.406   3.048  0.00  0.00    +0.091 A 
ATOM      7  C   UNL     1      -1.968  -1.620   1.997  0.00  0.00    +0.129 A 
BRANCH   7   8
ATOM      8  O   UNL     1      -1.531  -0.571   1.253  0.00  0.00    -0.506 OA
ATOM      9  H   UNL     1      -2.089  -0.370   0.489  0.00  0.00    +0.292 HD
ENDBRANCH   7   8
BRANCH   5  10
ATOM     10  O   UNL     1      -4.150  -2.267   4.842  0.00  0.00    -0.507 OA
ATOM     11  H   UNL     1      -3.714  -2.099   5.689  0.00  0.00    +0.292 HD
ENDBRANCH   5  10
BRANCH   3  12
ATOM     12  O   UNL     1      -1.555  -5.235   2.181  0.00  0.00    -0.506 OA
ATOM     13  H   UNL     1      -0.796  -5.521   2.707  0.00  0.00    +0.292 HD
ENDBRANCH   3  12
ENDBRANCH   1   2
BRANCH   1  14
ATOM     14  C   UNL     1       0.767  -3.522   1.101  0.00  0.00    +0.240 C 
ATOM     15  O   UNL     1       1.656  -2.699   1.148  0.00  0.00    -0.273 OA
ATOM     16  N   UNL     1       0.988  -4.779   1.532  0.00  0.00    -0.294 N 
ATOM     17  H   UNL     1       0.277  -5.437   1.494  0.00  0.00    +0.150 HD
BRANCH  16  18
ATOM     18  C   UNL     1       2.303  -5.152   2.059  0.00  0.00    +0.278 C 
BRANCH  18  19
ATOM     19  S   UNL     1       2.297  -4.995   3.866  0.00  0.00    +0.013 S 
ATOM     20  O   UNL     1       3.547  -5.413   4.398  0.00  0.00    -0.168 OA
ATOM     21  O   UNL     1       1.728  -3.750   4.247  0.00  0.00    -0.168 OA
BRANCH  19  22
ATOM     22  C   UNL     1       1.144  -6.205   4.422  0.00  0.00    +0.090 A 
ATOM     23  C   UNL     1      -0.191  -5.875   4.562  0.00  0.00    +0.027 A 
ATOM     24  C   UNL     1      -1.096  -6.825   4.998  0.00  0.00    +0.005 A 
ATOM     25  C   UNL     1      -0.666  -8.105   5.294  0.00  0.00    -0.050 A 
ATOM     26  C   UNL     1       0.669  -8.435   5.153  0.00  0.00    +0.005 A 
ATOM     27  C   UNL     1       1.573  -7.487   4.713  0.00  0.00    +0.027 A 
ATOM     28  C   UNL     1      -1.652  -9.140   5.770  0.00  0.00    +0.044 C 
ENDBRANCH  19  22
ENDBRANCH  18  19
ENDBRANCH  16  18
ENDBRANCH   1  14
BRANCH   1  29
ATOM     29  N   UNL     1      -0.466  -1.912  -0.233  0.00  0.00    -0.282 N 
ATOM     30  C   UNL     1      -1.188  -1.764  -1.361  0.00  0.00    +0.247 C 
ATOM     31  O   UNL     1      -1.206  -0.693  -1.936  0.00  0.00    -0.270 OA
BRANCH  30  32
ATOM     32  C   UNL     1      -1.960  -2.904  -1.900  0.00  0.00    +0.037 A 
ATOM     33  C   UNL     1      -2.619  -3.777  -1.032  0.00  0.00    +0.013 A 
ATOM     34  C   UNL     1      -3.337  -4.839  -1.541  0.00  0.00    +0.001 A 
ATOM     35  C   UNL     1      -3.405  -5.040  -2.908  0.00  0.00    +0.000 A 
ATOM     36  C   UNL     1      -2.755  -4.179  -3.774  0.00  0.00    +0.001 A 
ATOM     37  C   UNL     1      -2.038  -3.110  -3.278  0.00  0.00    +0.013 A 
ENDBRANCH  30  32
BRANCH  29  38
ATOM     38  C   UNL     1       0.441  -0.846   0.201  0.00  0.00    +0.109 C 
BRANCH  38  40
ATOM     39  C   UNL     1       2.657   0.236  -0.200  0.00  0.00    +0.005 C 
ATOM     40  C   UNL     1       1.698  -0.858  -0.672  0.00  0.00    +0.016 C 
ENDBRANCH  38  40
ENDBRANCH  29  38
ENDBRANCH   1  29
TORSDOF 12
