REMARK  Name = ZINC00187765
REMARK  5 active torsions:
REMARK  status: ('A' for Active; 'I' for Inactive)
REMARK    1  A    between atoms: C_1  and  O_2
REMARK    2  A    between atoms: O_2  and  C_3
REMARK    3  A    between atoms: C_6  and  C_10
REMARK    4  A    between atoms: C_8  and  O_9
REMARK    5  A    between atoms: CA_23  and  C_25
REMARK                            x       y       z     vdW  Elec       q    Type
REMARK                         _______ _______ _______ _____ _____    ______ ____
ROOT
ATOM      1  C   UNL     1       6.037   0.787  -0.057  0.00  0.00    +0.008 C 
ATOM      2  C   UNL     1       4.526   0.778  -0.039  0.00  0.00    +0.010 A 
ATOM      3  C   UNL     1       3.799  -0.358  -0.038  0.00  0.00    -0.021 A 
ATOM      4  C   UNL     1       2.393   0.023  -0.021  0.00  0.00    +0.003 A 
ATOM      5  C   UNL     1       1.188  -0.682  -0.013  0.00  0.00    +0.010 A 
ATOM      6  C   UNL     1       0.002  -0.004   0.002  0.00  0.00    +0.001 A 
ATOM      7  C   UNL     1      -0.017   1.384   0.010  0.00  0.00    +0.002 A 
ATOM      8  C   UNL     1       1.159   2.101   0.002  0.00  0.00    +0.026 A 
ATOM      9  C   UNL     1       2.378   1.432  -0.013  0.00  0.00    +0.047 A 
ATOM     10  N   UNL     1       3.690   1.856  -0.024  0.00  0.00    -0.359 N 
ATOM     11  H   UNL     1       3.976   2.783  -0.020  0.00  0.00    +0.166 HD
ATOM     12  C   UNL     1       4.404  -1.738  -0.049  0.00  0.00    +0.033 C 
ATOM     13  CA  UNL     1       5.886  -1.608   0.330  0.00  0.00    +0.049 C 
ATOM     14  N   UNL     1       6.514  -0.547  -0.484  0.00  0.00    +0.396 N 
ATOM     15  H1  UNL     1       7.533  -0.594  -0.371  0.00  0.00    -0.083 HD
ATOM     16  H2  UNL     1       6.272  -0.692  -1.472  0.00  0.00    -0.083 HD
ENDROOT
BRANCH   1  20
ATOM     17  C   UNL     1       7.426   3.730  -2.832  0.00  0.00    +0.161 A 
ATOM     18  C   UNL     1       6.997   2.493  -3.286  0.00  0.00    +0.049 A 
ATOM     19  C   UNL     1       6.550   1.544  -2.386  0.00  0.00    +0.006 A 
ATOM     20  C   UNL     1       6.527   1.826  -1.033  0.00  0.00    -0.052 A 
ATOM     21  C   UNL     1       6.949   3.060  -0.574  0.00  0.00    +0.051 A 
ATOM     22  C   UNL     1       7.404   4.014  -1.469  0.00  0.00    +0.159 A 
BRANCH  17  24
ATOM     23  C   UNL     1       7.860   4.305  -5.098  0.00  0.00    +0.277 C 
ATOM     24  O   UNL     1       7.866   4.666  -3.715  0.00  0.00    -0.491 OA
ENDBRANCH  17  24
BRANCH  22  25
ATOM     25  O   UNL     1       7.823   5.226  -1.019  0.00  0.00    -0.503 OA
ATOM     26  H   UNL     1       7.122   5.891  -0.967  0.00  0.00    +0.292 HD
ENDBRANCH  22  25
ENDBRANCH   1  20
BRANCH  13  27
ATOM     27  C   UNL     1       6.589  -2.914   0.064  0.00  0.00    +0.343 C 
ATOM     28  O   UNL     1       7.244  -3.053  -0.942  0.00  0.00    -0.248 OA
ATOM     29  OXT UNL     1       6.488  -3.922   0.943  0.00  0.00    -0.248 OA
ENDBRANCH  13  27
TORSDOF 4
