REMARK  Name = ZINC33960346
REMARK  9 active torsions:
REMARK  status: ('A' for Active; 'I' for Inactive)
REMARK    1  A    between atoms: C_1  and  C_2
REMARK    2  A    between atoms: C_5  and  C_13
REMARK    3  A    between atoms: C_6  and  C_7
REMARK    4  A    between atoms: C_6  and  C_8
REMARK    5  A    between atoms: N_11  and  O_12
REMARK    6  A    between atoms: N_15  and  C_16
REMARK    7  A    between atoms: C_16  and  C_17
REMARK    8  A    between atoms: C_16  and  C_18
REMARK    9  A    between atoms: C_16  and  C_19
REMARK                            x       y       z     vdW  Elec       q    Type
REMARK                         _______ _______ _______ _____ _____    ______ ____
ROOT
ATOM      1  C   UNL     1      -0.019   1.526   0.010  0.00  0.00    +0.018 C 
ATOM      2  C   UNL     1       0.002  -0.004   0.002  0.00  0.00    +0.015 C 
ATOM      3  C   UNL     1      -1.390  -0.703   0.064  0.00  0.00    +0.014 C 
ATOM      4  C   UNL     1      -1.085  -2.137   0.556  0.00  0.00    +0.018 C 
ATOM      5  C   UNL     1       0.465  -2.165   0.735  0.00  0.00    +0.058 C 
ATOM      6  C   UNL     1       0.727  -0.692   1.212  0.00  0.00    -0.010 C 
ATOM      7  C   UNL     1       0.040  -0.388   2.544  0.00  0.00    +0.013 C 
ATOM      8  C   UNL     1       2.220  -0.359   1.253  0.00  0.00    +0.013 C 
ATOM      9  C   UNL     1       1.022  -2.089  -0.720  0.00  0.00    +0.071 C 
ATOM     10  C   UNL     1       0.731  -0.657  -1.181  0.00  0.00    +0.065 C 
ATOM     11  N   UNL     1       1.011  -0.123  -2.310  0.00  0.00    -0.096 NA
ENDROOT
BRANCH   5  12
ATOM     12  C   UNL     1       1.010  -3.261   1.613  0.00  0.00    +0.220 C 
ATOM     13  O   UNL     1       1.627  -2.982   2.619  0.00  0.00    -0.275 OA
ATOM     14  N   UNL     1       0.811  -4.553   1.282  0.00  0.00    -0.310 N 
ATOM     15  H   UNL     1       0.317  -4.776   0.477  0.00  0.00    +0.149 HD
BRANCH  14  16
ATOM     16  C   UNL     1       1.341  -5.618   2.136  0.00  0.00    +0.026 C 
ATOM     17  C   UNL     1       0.735  -5.499   3.535  0.00  0.00    +0.031 C 
ATOM     18  C   UNL     1       0.979  -6.979   1.538  0.00  0.00    +0.031 C 
ATOM     19  C   UNL     1       2.863  -5.490   2.226  0.00  0.00    +0.031 C 
ENDBRANCH  14  16
ENDBRANCH   5  12
BRANCH  11  20
ATOM     20  O   UNL     1       1.693  -0.874  -3.298  0.00  0.00    -0.409 OA
ATOM     21  H   UNL     1       1.861  -0.386  -4.116  0.00  0.00    +0.328 HD
ENDBRANCH  11  20
TORSDOF 3
