REMARK  Name = ZINC09518768
REMARK  8 active torsions:
REMARK  status: ('A' for Active; 'I' for Inactive)
REMARK    1  A    between atoms: C_1  and  C_2
REMARK    2  A    between atoms: C_2  and  C_4
REMARK    3  A    between atoms: C_2  and  C_27
REMARK    4  A    between atoms: C_4  and  N_5
REMARK    5  A    between atoms: N_13  and  C_26
REMARK    6  A    between atoms: C_20  and  C_23
REMARK    7  A    between atoms: C_27  and  S_28
REMARK    8  A    between atoms: S_28  and  C_29
REMARK                            x       y       z     vdW  Elec       q    Type
REMARK                         _______ _______ _______ _____ _____    ______ ____
ROOT
ATOM      1  N   UNL     1       0.930   3.369   0.021  0.00  0.00    -0.306 N 
ATOM      2  C   UNL     1       1.161   2.001  -0.004  0.00  0.00    +0.153 A 
ATOM      3  C   UNL     1       2.315   1.197  -0.028  0.00  0.00    +0.280 A 
ATOM      4  O   UNL     1       3.421   1.708  -0.030  0.00  0.00    -0.265 OA
ATOM      5  N   UNL     1       2.184  -0.146  -0.049  0.00  0.00    -0.273 N 
ATOM      6  H   UNL     1       3.002  -0.720  -0.066  0.00  0.00    +0.173 HD
ATOM      7  C   UNL     1       0.970  -0.723  -0.047  0.00  0.00    +0.331 A 
ATOM      8  O   UNL     1       0.890  -1.936  -0.067  0.00  0.00    -0.246 OA
ATOM      9  N   UNL     1      -0.160   0.009  -0.025  0.00  0.00    -0.280 N 
ATOM     10  C   UNL     1      -0.090   1.393  -0.002  0.00  0.00    +0.170 A 
ATOM     11  N   UNL     1      -1.008   2.361   0.017  0.00  0.00    -0.196 NA
ATOM     12  C   UNL     1      -0.418   3.539   0.036  0.00  0.00    +0.201 A 
ATOM     13  N   UNL     1      -1.067   4.752   0.062  0.00  0.00    -0.301 N 
ATOM     14  C   UNL     1      -1.105   5.300   1.424  0.00  0.00    +0.108 C 
ATOM     15  C   UNL     1      -1.701   6.709   1.392  0.00  0.00    +0.032 C 
ATOM     16  C   UNL     1      -3.114   6.647   0.807  0.00  0.00    +0.078 C 
ATOM     17  C   UNL     1      -3.053   6.029  -0.592  0.00  0.00    +0.032 C 
ATOM     18  C   UNL     1      -2.417   4.639  -0.503  0.00  0.00    +0.108 C 
ATOM     19  C   UNL     1      -1.464  -0.658  -0.023  0.00  0.00    +0.155 C 
ENDROOT
BRANCH  16  20
ATOM     20  C   UNL     1      -3.685   8.039   0.718  0.00  0.00    +0.214 C 
ATOM     21  O   UNL     1      -4.011   8.493  -0.359  0.00  0.00    -0.276 OA
ATOM     22  N   UNL     1      -3.834   8.779   1.834  0.00  0.00    -0.329 N 
ATOM     23  H   UNL     1      -3.573   8.416   2.695  0.00  0.00    +0.145 HD
ATOM     24  H   UNL     1      -4.202   9.675   1.776  0.00  0.00    +0.145 HD
ENDBRANCH  16  20
BRANCH   1  25
ATOM     25  C   UNL     1       1.945   4.427   0.029  0.00  0.00    +0.129 C 
BRANCH  25  27
ATOM     26  C   UNL     1       1.205   5.300  -2.192  0.00  0.00    +0.010 C 
ATOM     27  C   UNL     1       2.385   4.723  -1.406  0.00  0.00    +0.016 C 
BRANCH  27  28
ATOM     28  C   UNL     1       3.531   5.737  -1.389  0.00  0.00    +0.084 C 
BRANCH  28  29
ATOM     29  S   UNL     1       4.149   5.976  -3.073  0.00  0.00    -0.067 S 
BRANCH  29  30
ATOM     30  C   UNL     1       5.423   7.154  -2.767  0.00  0.00    +0.258 A 
ATOM     31  N   UNL     1       6.201   7.674  -3.683  0.00  0.00    -0.203 NA
ATOM     32  C   UNL     1       7.061   8.542  -3.084  0.00  0.00    +0.110 A 
ATOM     33  C   UNL     1       8.087   9.362  -3.556  0.00  0.00    +0.031 A 
ATOM     34  C   UNL     1       8.795  10.147  -2.673  0.00  0.00    +0.002 A 
ATOM     35  C   UNL     1       8.494  10.128  -1.320  0.00  0.00    +0.004 A 
ATOM     36  C   UNL     1       7.481   9.322  -0.840  0.00  0.00    +0.048 A 
ATOM     37  C   UNL     1       6.759   8.526  -1.714  0.00  0.00    +0.156 A 
ATOM     38  O   UNL     1       5.734   7.656  -1.558  0.00  0.00    -0.431 OA
ENDBRANCH  29  30
ENDBRANCH  28  29
ENDBRANCH  27  28
ENDBRANCH  25  27
ENDBRANCH   1  25
TORSDOF 6
