REMARK  Name = ZINC46225865
REMARK  5 active torsions:
REMARK  status: ('A' for Active; 'I' for Inactive)
REMARK    1  A    between atoms: C_4  and  C_8
REMARK    2  A    between atoms: C_8  and  C_10
REMARK    3  A    between atoms: C_8  and  N_22
REMARK    4  A    between atoms: C_10  and  N_11
REMARK    5  A    between atoms: N_14  and  N_15
REMARK                            x       y       z     vdW  Elec       q    Type
REMARK                         _______ _______ _______ _____ _____    ______ ____
ROOT
ATOM      1  C   UNL     1       3.692  -0.704  -0.041  0.00  0.00    -0.016 C 
ENDROOT
BRANCH   1   5
ATOM      2  C   UNL     1       0.086   1.569  -0.354  0.00  0.00    +0.004 A 
ATOM      3  C   UNL     1       1.306   2.216  -0.286  0.00  0.00    +0.038 A 
ATOM      4  C   UNL     1       2.474   1.480  -0.184  0.00  0.00    +0.126 A 
ATOM      5  C   UNL     1       2.421   0.097  -0.151  0.00  0.00    -0.006 A 
ATOM      6  C   UNL     1       1.200  -0.548  -0.219  0.00  0.00    +0.045 A 
ATOM      7  C   UNL     1       0.032   0.188  -0.320  0.00  0.00    +0.020 A 
ATOM      8 CL   UNL     1       1.131  -2.283  -0.177  0.00  0.00    -0.083 Cl
ATOM      9  F   UNL     1       3.667   2.112  -0.119  0.00  0.00    -0.205 F 
ENDBRANCH   1   5
BRANCH   1  10
ATOM     10  N   UNL     1       3.712  -1.737  -1.085  0.00  0.00    +0.385 N 
ATOM     11  C   UNL     1       5.025  -2.416  -1.089  0.00  0.00    -0.078 C 
ATOM     12  C   UNL     1       5.314  -2.711  -2.582  0.00  0.00    -0.020 C 
ATOM     13  C   UNL     1       4.738  -1.445  -3.268  0.00  0.00    -0.020 C 
ATOM     14  C   UNL     1       3.503  -1.113  -2.405  0.00  0.00    -0.078 C 
ATOM     15  H   UNL     1       2.983  -2.412  -0.910  0.00  0.00    -0.081 HD
ENDBRANCH   1  10
BRANCH   1  16
ATOM     16  C   UNL     1       3.759  -1.369   1.335  0.00  0.00    +0.095 C 
BRANCH  16  17
ATOM     17  N   UNL     1       3.882  -0.339   2.370  0.00  0.00    -0.299 N 
ATOM     18  C   UNL     1       3.841  -0.684   3.672  0.00  0.00    +0.316 C 
ATOM     19  O   UNL     1       3.701  -1.849   3.989  0.00  0.00    -0.251 OA
ATOM     20  N   UNL     1       3.955   0.264   4.624  0.00  0.00    -0.218 N 
ATOM     21  H   UNL     1       3.994   0.591   2.118  0.00  0.00    +0.150 HD
ATOM     22  H   UNL     1       3.925   0.016   5.561  0.00  0.00    +0.174 HD
BRANCH  20  23
ATOM     23  N   UNL     1       4.116   1.607   4.260  0.00  0.00    -0.231 N 
ATOM     24  C   UNL     1       4.232   2.580   5.237  0.00  0.00    +0.232 A 
ATOM     25  N   UNL     1       4.195   2.223   6.512  0.00  0.00    -0.222 NA
ATOM     26  C   UNL     1       4.304   3.128   7.471  0.00  0.00    +0.116 A 
ATOM     27  C   UNL     1       4.458   4.462   7.127  0.00  0.00    +0.039 A 
ATOM     28  C   UNL     1       4.493   4.800   5.784  0.00  0.00    +0.116 A 
ATOM     29  N   UNL     1       4.384   3.845   4.875  0.00  0.00    -0.222 NA
ATOM     30  H   UNL     1       4.146   1.855   3.322  0.00  0.00    +0.173 HD
ENDBRANCH  20  23
ENDBRANCH  16  17
ENDBRANCH   1  16
TORSDOF 5
