REMARK  Name = ZINC58302048
REMARK  8 active torsions:
REMARK  status: ('A' for Active; 'I' for Inactive)
REMARK    1  A    between atoms: C_1  and  C_2
REMARK    2  A    between atoms: C_2  and  C_4
REMARK    3  A    between atoms: C_2  and  N_10
REMARK    4  A    between atoms: C_11  and  C_13
REMARK    5  A    between atoms: C_13  and  N_14
REMARK    6  A    between atoms: C_17  and  C_21
REMARK    7  A    between atoms: C_17  and  C_22
REMARK    8  A    between atoms: C_25  and  C_28
REMARK                            x       y       z     vdW  Elec       q    Type
REMARK                         _______ _______ _______ _____ _____    ______ ____
ROOT
ATOM      1  N   UNL     1       4.223  -1.127   2.126  0.00  0.00    -0.215 N 
ATOM      2  C   UNL     1       4.875  -2.187   1.609  0.00  0.00    +0.251 C 
ATOM      3  O   UNL     1       4.400  -3.255   1.289  0.00  0.00    -0.272 OA
ATOM      4  C   UNL     1       6.328  -1.764   1.508  0.00  0.00    +0.135 C 
ATOM      5  N   UNL     1       6.324  -0.386   2.029  0.00  0.00    -0.281 N 
ATOM      6  C   UNL     1       5.051  -0.103   2.359  0.00  0.00    +0.310 C 
ATOM      7  O   UNL     1       4.694   0.963   2.821  0.00  0.00    -0.252 OA
ATOM      8  C   UNL     1       6.795  -1.786   0.051  0.00  0.00    +0.047 C 
ATOM      9  H   UNL     1       7.090   0.203   2.115  0.00  0.00    +0.152 HD
ENDROOT
BRANCH   4  10
ATOM     10  C   UNL     1       7.199  -2.651   2.360  0.00  0.00    -0.015 A 
ATOM     11  C   UNL     1       6.838  -3.969   2.574  0.00  0.00    +0.007 A 
ATOM     12  C   UNL     1       7.630  -4.786   3.353  0.00  0.00    +0.019 A 
ATOM     13  C   UNL     1       8.800  -4.281   3.925  0.00  0.00    +0.052 A 
ATOM     14  C   UNL     1       9.158  -2.949   3.704  0.00  0.00    +0.019 A 
ATOM     15  C   UNL     1       8.358  -2.144   2.919  0.00  0.00    +0.007 A 
BRANCH  13  16
ATOM     16  C   UNL     1       9.627  -5.123   4.734  0.00  0.00    +0.099 C 
ATOM     17  N   UNL     1      10.283  -5.792   5.377  0.00  0.00    -0.191 NA
ENDBRANCH  13  16
ENDBRANCH   4  10
BRANCH   1  18
ATOM     18  C   UNL     1       2.783  -1.099   2.395  0.00  0.00    +0.213 C 
BRANCH  18  20
ATOM     19  N   UNL     1       0.711  -0.489   1.189  0.00  0.00    -0.307 N 
ATOM     20  C   UNL     1       2.054  -0.600   1.174  0.00  0.00    +0.231 C 
ATOM     21  O   UNL     1       2.676  -0.297   0.177  0.00  0.00    -0.274 OA
ATOM     22  H   UNL     1       0.213  -0.731   1.986  0.00  0.00    +0.149 HD
BRANCH  19  24
ATOM     23  C   UNL     1      -0.019   1.526   0.010  0.00  0.00    +0.033 C 
ATOM     24  C   UNL     1       0.002  -0.004   0.002  0.00  0.00    +0.100 C 
BRANCH  24  25
ATOM     25  C   UNL     1      -1.412  -0.526   0.013  0.00  0.00    -0.027 A 
ATOM     26  C   UNL     1      -2.123  -0.571   1.197  0.00  0.00    +0.005 A 
ATOM     27  C   UNL     1      -3.420  -1.049   1.207  0.00  0.00    +0.000 A 
ATOM     28  C   UNL     1      -4.006  -1.482   0.032  0.00  0.00    +0.000 A 
ATOM     29  C   UNL     1      -3.295  -1.436  -1.153  0.00  0.00    +0.000 A 
ATOM     30  C   UNL     1      -2.000  -0.954  -1.163  0.00  0.00    +0.005 A 
ENDBRANCH  24  25
ENDBRANCH  19  24
ENDBRANCH  18  20
ENDBRANCH   1  18
TORSDOF 6
