REMARK  Name = ZINC63411781
REMARK  16 active torsions:
REMARK  status: ('A' for Active; 'I' for Inactive)
REMARK    1  A    between atoms: C_1  and  C_2
REMARK    2  A    between atoms: C_2  and  N_3
REMARK    3  A    between atoms: N_3  and  C_4
REMARK    4  A    between atoms: C_4  and  C_5
REMARK    5  A    between atoms: C_6  and  C_8
REMARK    6  A    between atoms: C_8  and  S_9
REMARK    7  A    between atoms: S_9  and  C_10
REMARK    8  A    between atoms: C_14  and  C_17
REMARK    9  A    between atoms: C_17  and  C_19
REMARK   10  A    between atoms: C_17  and  N_29
REMARK   11  A    between atoms: C_19  and  C_20
REMARK   12  A    between atoms: C_30  and  O_32
REMARK   13  A    between atoms: O_32  and  C_33
REMARK   14  A    between atoms: C_33  and  C_34
REMARK   15  A    between atoms: C_33  and  C_35
REMARK   16  A    between atoms: C_33  and  C_36
REMARK                            x       y       z     vdW  Elec       q    Type
REMARK                         _______ _______ _______ _____ _____    ______ ____
ROOT
ATOM      1  C   UNL     1      -7.909  -1.505   0.054  0.00  0.00    +0.125 C 
ENDROOT
BRANCH   1   5
ATOM      2  C   UNL     1      -5.654  -2.115   2.749  0.00  0.00    +0.263 C 
ATOM      3  N   UNL     1      -5.683  -3.351   1.924  0.00  0.00    -0.218 NA
ATOM      4  N   UNL     1      -7.052  -3.384   1.398  0.00  0.00    -0.225 NA
ATOM      5  C   UNL     1      -7.541  -1.990   1.458  0.00  0.00    +0.223 C 
ATOM      6  O   UNL     1      -6.468  -1.191   1.994  0.00  0.00    -0.330 OA
ATOM      7  H   UNL     1      -5.008  -3.301   1.175  0.00  0.00    +0.144 HD
ATOM      8  H   UNL     1      -7.067  -3.732   0.451  0.00  0.00    +0.143 HD
BRANCH   2   9
ATOM      9  S   UNL     1      -3.958  -1.491   2.909  0.00  0.00    -0.104 S 
BRANCH   9  10
ATOM     10  C   UNL     1      -3.407  -1.272   1.195  0.00  0.00    +0.168 C 
BRANCH  10  12
ATOM     11  N   UNL     1      -1.372  -0.511   0.012  0.00  0.00    -0.301 N 
ATOM     12  C   UNL     1      -1.993  -0.751   1.184  0.00  0.00    +0.226 C 
ATOM     13  O   UNL     1      -1.415  -0.546   2.230  0.00  0.00    -0.275 OA
BRANCH  11  15
ATOM     14  C   UNL     1      -0.019   1.526   0.010  0.00  0.00    +0.024 C 
ATOM     15  C   UNL     1       0.002  -0.004   0.002  0.00  0.00    +0.104 C 
ENDBRANCH  11  15
BRANCH  11  16
ATOM     16  C   UNL     1      -2.072  -0.758  -1.251  0.00  0.00    +0.104 C 
ATOM     17  C   UNL     1      -1.816  -2.197  -1.703  0.00  0.00    +0.024 C 
ENDBRANCH  11  16
ENDBRANCH  10  12
ENDBRANCH   9  10
ENDBRANCH   2   9
ENDBRANCH   1   5
BRANCH   1  18
ATOM     18  N   UNL     1      -8.960  -2.361  -0.499  0.00  0.00    -0.274 N 
ATOM     19  C   UNL     1     -10.147  -2.464   0.131  0.00  0.00    +0.401 C 
ATOM     20  O   UNL     1     -10.345  -1.846   1.158  0.00  0.00    -0.226 OA
ATOM     21  H   UNL     1      -8.802  -2.855  -1.319  0.00  0.00    +0.152 HD
BRANCH  19  22
ATOM     22  O   UNL     1     -11.113  -3.252  -0.378  0.00  0.00    -0.445 OA
BRANCH  22  23
ATOM     23  C   UNL     1     -12.346  -3.313   0.342  0.00  0.00    +0.107 C 
ATOM     24  C   UNL     1     -12.958  -1.913   0.426  0.00  0.00    +0.055 C 
ATOM     25  C   UNL     1     -13.314  -4.250  -0.383  0.00  0.00    +0.055 C 
ATOM     26  C   UNL     1     -12.086  -3.842   1.754  0.00  0.00    +0.055 C 
ENDBRANCH  22  23
ENDBRANCH  19  22
ENDBRANCH   1  18
BRANCH   1  27
ATOM     27  C   UNL     1      -8.413  -0.062   0.130  0.00  0.00    +0.059 C 
BRANCH  27  28
ATOM     28  C   UNL     1      -8.659   0.458  -1.263  0.00  0.00    -0.040 C 
ATOM     29  C   UNL     1      -9.835   0.469  -1.931  0.00  0.00    -0.001 A 
ATOM     30  C   UNL     1     -11.185   0.016  -1.576  0.00  0.00    +0.010 A 
ATOM     31  C   UNL     1     -12.184   0.162  -2.475  0.00  0.00    +0.001 A 
ATOM     32  C   UNL     1     -11.963   0.733  -3.736  0.00  0.00    +0.002 A 
ATOM     33  C   UNL     1     -10.750   1.172  -4.136  0.00  0.00    +0.026 A 
ATOM     34  C   UNL     1      -9.627   1.068  -3.269  0.00  0.00    +0.043 A 
ATOM     35  N   UNL     1      -8.372   1.415  -3.421  0.00  0.00    -0.380 N 
ATOM     36  C   UNL     1      -7.642   1.079  -2.194  0.00  0.00    +0.144 C 
ATOM     37  H   UNL     1      -7.991   1.828  -4.212  0.00  0.00    +0.160 HD
ENDBRANCH  27  28
ENDBRANCH   1  27
TORSDOF 11
