REMARK  Name = ZINC01312290
REMARK  3 active torsions:
REMARK  status: ('A' for Active; 'I' for Inactive)
REMARK    1  A    between atoms: C_5  and  C_7
REMARK    2  A    between atoms: N_9  and  C_10
REMARK    3  A    between atoms: C_10  and  N_12
REMARK                            x       y       z     vdW  Elec       q    Type
REMARK                         _______ _______ _______ _____ _____    ______ ____
ROOT
ATOM      1  C   UNL     1      -0.021   1.708   0.011  0.00  0.00    +0.163 C 
ATOM      2  S   UNL     1       0.002  -0.004   0.002  0.00  0.00    -0.016 S 
ENDROOT
BRANCH   1   3
ATOM      3  N   UNL     1      -1.197   2.366   0.021  0.00  0.00    -0.169 NA
ATOM      4  C   UNL     1      -2.387   1.657   0.022  0.00  0.00    +0.163 A 
ATOM      5  N   UNL     1      -3.617   2.114   0.031  0.00  0.00    -0.335 N 
ATOM      6  C   UNL     1      -4.695   1.299   0.031  0.00  0.00    +0.055 A 
ATOM      7  C   UNL     1      -6.062   1.659   0.039  0.00  0.00    +0.029 A 
ATOM      8  C   UNL     1      -7.040   0.700   0.037  0.00  0.00    +0.040 A 
ATOM      9  C   UNL     1      -6.728  -0.654   0.027  0.00  0.00    +0.125 A 
ATOM     10  C   UNL     1      -5.399  -1.042   0.019  0.00  0.00    +0.055 A 
ATOM     11  C   UNL     1      -4.414  -0.086   0.021  0.00  0.00    +0.041 A 
ATOM     12  S   UNL     1      -2.638  -0.112   0.006  0.00  0.00    -0.052 S 
ATOM     13  F   UNL     1      -7.711  -1.581   0.025  0.00  0.00    -0.205 F 
ATOM     14  H   UNL     1      -3.801   3.199   0.038  0.00  0.00    +0.168 HD
ENDBRANCH   1   3
BRANCH   1  17
ATOM     15  C   UNL     1       2.313   1.740  -0.011  0.00  0.00    +0.251 C 
ATOM     16  O   UNL     1       2.329   0.524  -0.017  0.00  0.00    -0.270 OA
ATOM     17  N   UNL     1       1.137   2.397   0.004  0.00  0.00    -0.262 N 
ATOM     18  H   UNL     1       1.122   3.497   0.010  0.00  0.00    +0.157 HD
BRANCH  15  23
ATOM     19  C   UNL     1       4.755   4.591  -0.019  0.00  0.00    +0.001 A 
ATOM     20  C   UNL     1       5.962   3.913  -0.034  0.00  0.00    +0.001 A 
ATOM     21  C   UNL     1       5.985   2.530  -0.042  0.00  0.00    +0.016 A 
ATOM     22  C   UNL     1       4.803   1.817  -0.034  0.00  0.00    +0.030 A 
ATOM     23  C   UNL     1       3.582   2.495  -0.019  0.00  0.00    +0.051 A 
ATOM     24  C   UNL     1       3.567   3.892  -0.017  0.00  0.00    +0.014 A 
ATOM     25 BR   UNL     1       4.837  -0.074  -0.045  0.00  0.00    -0.050 Br
ENDBRANCH  15  23
ENDBRANCH   1  17
TORSDOF 3
