REMARK  Name = ZINC15649517
REMARK  9 active torsions:
REMARK  status: ('A' for Active; 'I' for Inactive)
REMARK    1  A    between atoms: C_1  and  C_2
REMARK    2  A    between atoms: C_7  and  N_8
REMARK    3  A    between atoms: C_9  and  C_11
REMARK    4  A    between atoms: C_11  and  C_13
REMARK    5  A    between atoms: C_11  and  O_14
REMARK    6  A    between atoms: O_14  and  C_15
REMARK    7  A    between atoms: C_15  and  C_17
REMARK    8  A    between atoms: C_20  and  N_26
REMARK    9  A    between atoms: C_21  and  N_23
REMARK                            x       y       z     vdW  Elec       q    Type
REMARK                         _______ _______ _______ _____ _____    ______ ____
ROOT
ATOM      1  O   UNL     1       0.102  -1.272   5.806  0.00  0.00    -0.449 OA
ENDROOT
BRANCH   1   2
ATOM      2  C   UNL     1       0.240  -0.529   4.593  0.00  0.00    +0.259 C 
ATOM      3  C   UNL     1      -0.873   0.516   4.505  0.00  0.00    +0.062 C 
BRANCH   2   5
ATOM      4  N   UNL     1       0.347  -1.003   2.168  0.00  0.00    -0.282 N 
ATOM      5  C   UNL     1       0.144  -1.466   3.417  0.00  0.00    +0.258 C 
ATOM      6  O   UNL     1      -0.117  -2.638   3.594  0.00  0.00    -0.271 OA
ATOM      7  H   UNL     1       0.602  -0.077   2.029  0.00  0.00    +0.155 HD
BRANCH   4  14
ATOM      8  C   UNL     1      -0.424   0.135  -0.323  0.00  0.00    +0.045 C 
ATOM      9  C   UNL     1      -0.184  -1.344  -0.164  0.00  0.00    -0.029 A 
ATOM     10  C   UNL     1      -0.332  -2.189  -1.246  0.00  0.00    +0.006 A 
ATOM     11  C   UNL     1      -0.112  -3.546  -1.102  0.00  0.00    +0.020 A 
ATOM     12  C   UNL     1       0.257  -4.062   0.128  0.00  0.00    +0.043 A 
ATOM     13  C   UNL     1       0.406  -3.222   1.215  0.00  0.00    +0.043 A 
ATOM     14  C   UNL     1       0.191  -1.858   1.071  0.00  0.00    +0.038 A 
ATOM     15 CL   UNL     1       0.532  -5.767   0.306  0.00  0.00    -0.083 Cl
ENDBRANCH   4  14
ENDBRANCH   2   5
ENDBRANCH   1   2
BRANCH   1  16
ATOM     16  C   UNL     1       0.743  -0.795   6.891  0.00  0.00    +0.340 C 
ATOM     17  O   UNL     1       1.402   0.222   6.810  0.00  0.00    -0.245 OA
BRANCH  16  18
ATOM     18  C   UNL     1       0.646  -1.509   8.177  0.00  0.00    +0.061 A 
ATOM     19  C   UNL     1      -0.108  -2.683   8.272  0.00  0.00    +0.017 A 
ATOM     20  C   UNL     1      -0.197  -3.345   9.463  0.00  0.00    +0.026 A 
ATOM     21  C   UNL     1       0.460  -2.853  10.588  0.00  0.00    +0.055 A 
ATOM     22  C   UNL     1       1.211  -1.684  10.504  0.00  0.00    +0.147 A 
ATOM     23  C   UNL     1       1.311  -1.016   9.305  0.00  0.00    +0.049 A 
BRANCH  22  24
ATOM     24  N   UNL     1       1.908  -1.164  11.702  0.00  0.00    +0.058 N 
ATOM     25  O   UNL     1       1.967   0.028  11.897  0.00  0.00    -0.126 OA
ATOM     26  O   UNL     1       2.418  -1.930  12.485  0.00  0.00    -0.126 OA
ENDBRANCH  22  24
BRANCH  21  27
ATOM     27  N   UNL     1       0.364  -3.530  11.798  0.00  0.00    -0.356 N 
ATOM     28  H   UNL     1      -0.047  -4.409  11.832  0.00  0.00    +0.142 HD
ATOM     29  H   UNL     1       0.709  -3.125  12.610  0.00  0.00    +0.142 HD
ENDBRANCH  21  27
ENDBRANCH  16  18
ENDBRANCH   1  16
TORSDOF 7
