REMARK  Name = ZINC59385702
REMARK  7 active torsions:
REMARK  status: ('A' for Active; 'I' for Inactive)
REMARK    1  A    between atoms: C_1  and  C_2
REMARK    2  A    between atoms: C_3  and  C_17
REMARK    3  A    between atoms: C_4  and  C_10
REMARK    4  A    between atoms: N_19  and  N_20
REMARK    5  A    between atoms: C_21  and  C_22
REMARK    6  A    between atoms: C_27  and  O_28
REMARK    7  A    between atoms: O_28  and  C_29
REMARK                            x       y       z     vdW  Elec       q    Type
REMARK                         _______ _______ _______ _____ _____    ______ ____
ROOT
ATOM      1  C   UNL     1       0.633   1.224  -0.132  0.00  0.00    +0.061 C 
ATOM      2  C   UNL     1       0.379  -0.260  -0.065  0.00  0.00    +0.019 C 
ATOM      3  C   UNL     1      -0.885  -0.722  -0.165  0.00  0.00    +0.057 C 
ATOM      4  C   UNL     1      -1.097  -2.220  -0.091  0.00  0.00    +0.143 C 
ATOM      5  N   UNL     1       0.103  -3.056   0.084  0.00  0.00    -0.288 N 
ATOM      6  C   UNL     1       1.302  -2.447   0.168  0.00  0.00    +0.304 C 
ATOM      7  O   UNL     1       2.299  -3.128   0.313  0.00  0.00    -0.252 OA
ATOM      8  N   UNL     1       1.433  -1.116   0.092  0.00  0.00    -0.273 N 
ATOM      9  H   UNL     1       0.032  -4.022   0.138  0.00  0.00    +0.151 HD
ATOM     10  H   UNL     1       2.324  -0.739   0.155  0.00  0.00    +0.156 HD
ENDROOT
BRANCH   4  11
ATOM     11  C   UNL     1      -1.783  -2.655  -1.361  0.00  0.00    -0.004 A 
ATOM     12  C   UNL     1      -1.032  -3.072  -2.444  0.00  0.00    +0.007 A 
ATOM     13  C   UNL     1      -1.661  -3.471  -3.608  0.00  0.00    +0.000 A 
ATOM     14  C   UNL     1      -3.042  -3.453  -3.690  0.00  0.00    +0.001 A 
ATOM     15  C   UNL     1      -3.793  -3.036  -2.608  0.00  0.00    +0.020 A 
ATOM     16  C   UNL     1      -3.164  -2.642  -1.440  0.00  0.00    +0.046 A 
ATOM     17 CL   UNL     1      -4.107  -2.124  -0.078  0.00  0.00    -0.083 Cl
ENDBRANCH   4  11
BRANCH   3  18
ATOM     18  C   UNL     1      -1.977   0.165  -0.332  0.00  0.00    +0.263 C 
ATOM     19  O   UNL     1      -2.678   0.455   0.621  0.00  0.00    -0.269 OA
ATOM     20  N   UNL     1      -2.241   0.687  -1.546  0.00  0.00    -0.203 N 
ATOM     21  H   UNL     1      -1.726   0.405  -2.318  0.00  0.00    +0.178 HD
BRANCH  20  22
ATOM     22  N   UNL     1      -3.260   1.638  -1.693  0.00  0.00    -0.187 NA
ATOM     23  C   UNL     1      -3.450   2.213  -2.841  0.00  0.00    +0.142 C 
BRANCH  23  24
ATOM     24  C   UNL     1      -4.446   3.292  -2.969  0.00  0.00    +0.036 A 
ATOM     25  C   UNL     1      -4.658   3.909  -4.204  0.00  0.00    +0.013 A 
ATOM     26  C   UNL     1      -5.591   4.918  -4.317  0.00  0.00    +0.001 A 
ATOM     27  C   UNL     1      -6.319   5.322  -3.211  0.00  0.00    +0.004 A 
ATOM     28  C   UNL     1      -6.119   4.719  -1.984  0.00  0.00    +0.046 A 
ATOM     29  C   UNL     1      -5.190   3.700  -1.854  0.00  0.00    +0.129 A 
BRANCH  29  30
ATOM     30  O   UNL     1      -4.996   3.103  -0.649  0.00  0.00    -0.494 OA
ATOM     31  C   UNL     1      -5.791   3.571   0.442  0.00  0.00    +0.277 C 
ENDBRANCH  29  30
ENDBRANCH  23  24
ENDBRANCH  20  22
ENDBRANCH   3  18
TORSDOF 5
