REMARK  Name = ZINC65533074
REMARK  10 active torsions:
REMARK  status: ('A' for Active; 'I' for Inactive)
REMARK    1  A    between atoms: C_1  and  C_2
REMARK    2  A    between atoms: C_4  and  C_25
REMARK    3  A    between atoms: N_6  and  C_8
REMARK    4  A    between atoms: C_8  and  C_9
REMARK    5  A    between atoms: C_9  and  C_10
REMARK    6  A    between atoms: C_10  and  N_11
REMARK    7  A    between atoms: N_14  and  C_15
REMARK    8  A    between atoms: C_15  and  C_16
REMARK    9  A    between atoms: C_16  and  C_17
REMARK   10  A    between atoms: N_19  and  C_20
REMARK                            x       y       z     vdW  Elec       q    Type
REMARK                         _______ _______ _______ _____ _____    ______ ____
ROOT
ATOM      1  N   UNL     1       0.411  -2.195   6.111  0.00  0.00    -0.299 N 
ATOM      2  C   UNL     1       0.808  -2.535   7.354  0.00  0.00    +0.300 C 
ATOM      3  O   UNL     1       1.841  -3.156   7.514  0.00  0.00    -0.253 OA
ATOM      4  N   UNL     1       0.058  -2.188   8.419  0.00  0.00    -0.299 N 
ATOM      5  H   UNL     1      -0.413  -1.700   5.983  0.00  0.00    +0.150 HD
ATOM      6  H   UNL     1      -0.766  -1.693   8.291  0.00  0.00    +0.150 HD
ENDROOT
BRANCH   1   7
ATOM      7  C   UNL     1       1.226  -2.573   4.954  0.00  0.00    +0.104 C 
BRANCH   7   8
ATOM      8  C   UNL     1       0.557  -2.069   3.673  0.00  0.00    +0.000 C 
BRANCH   8   9
ATOM      9  C   UNL     1       1.408  -2.463   2.464  0.00  0.00    -0.077 C 
BRANCH   9  15
ATOM     10  C   UNL     1      -0.019   1.526   0.010  0.00  0.00    +0.005 C 
ATOM     11  C   UNL     1       0.002  -0.004   0.002  0.00  0.00    -0.031 C 
ATOM     12  C   UNL     1       0.724  -0.499  -1.255  0.00  0.00    +0.003 C 
ATOM     13  C   UNL     1       0.808  -2.027  -1.215  0.00  0.00    -0.031 C 
ATOM     14  C   UNL     1       1.518  -2.460   0.070  0.00  0.00    -0.076 C 
ATOM     15  N   UNL     1       0.765  -1.980   1.235  0.00  0.00    +0.380 N 
ATOM     16  C   UNL     1       0.742  -0.512   1.241  0.00  0.00    -0.076 C 
ATOM     17  C   UNL     1       1.595  -2.527  -2.428  0.00  0.00    +0.005 C 
ATOM     18  H   UNL     1      -0.180  -2.330   1.191  0.00  0.00    -0.082 HD
ENDBRANCH   9  15
ENDBRANCH   8   9
ENDBRANCH   7   8
ENDBRANCH   1   7
BRANCH   4  19
ATOM     19  C   UNL     1       0.489  -2.558   9.769  0.00  0.00    +0.115 C 
BRANCH  19  20
ATOM     20  C   UNL     1      -0.532  -2.047  10.788  0.00  0.00    +0.114 C 
BRANCH  20  21
ATOM     21  C   UNL     1      -0.089  -2.428  12.177  0.00  0.00    +0.215 C 
ATOM     22  O   UNL     1       0.941  -3.046  12.337  0.00  0.00    -0.276 OA
ATOM     23  N   UNL     1      -0.839  -2.080  13.242  0.00  0.00    -0.312 N 
ATOM     24  H   UNL     1      -1.663  -1.585  13.114  0.00  0.00    +0.149 HD
BRANCH  23  25
ATOM     25  C   UNL     1      -0.408  -2.450  14.593  0.00  0.00    +0.073 C 
ATOM     26  C   UNL     1       0.522  -1.362  15.167  0.00  0.00    +0.022 C 
ATOM     27  C   UNL     1      -0.418  -0.462  16.006  0.00  0.00    +0.002 C 
ATOM     28  C   UNL     1      -1.392  -1.484  16.643  0.00  0.00    +0.002 C 
ATOM     29  C   UNL     1      -1.625  -2.528  15.531  0.00  0.00    +0.022 C 
ENDBRANCH  23  25
ENDBRANCH  20  21
ENDBRANCH  19  20
ENDBRANCH   4  19
TORSDOF 8
