REMARK  Name = ZINC39545542
REMARK  6 active torsions:
REMARK  status: ('A' for Active; 'I' for Inactive)
REMARK    1  A    between atoms: C_4  and  O_7
REMARK    2  A    between atoms: O_7  and  S_8
REMARK    3  A    between atoms: S_8  and  C_11
REMARK    4  A    between atoms: C_13  and  C_25
REMARK    5  A    between atoms: N_27  and  C_28
REMARK    6  A    between atoms: C_33  and  O_34
REMARK                            x       y       z     vdW  Elec       q    Type
REMARK                         _______ _______ _______ _____ _____    ______ ____
ROOT
ATOM      1  C   UNL     1       3.074  -2.388   1.879  0.00  0.00    +0.142 C 
ATOM      2  C   UNL     1       1.578  -2.369   2.098  0.00  0.00    +0.092 C 
ATOM      3  C   UNL     1       1.243  -3.812   2.522  0.00  0.00    +0.153 C 
ATOM      4  N   UNL     1       2.547  -4.493   2.537  0.00  0.00    -0.368 NA
ATOM      5  C   UNL     1       3.535  -3.588   2.125  0.00  0.00    +0.100 C 
ATOM      6  N   UNL     1       4.872  -4.004   1.992  0.00  0.00    -0.302 N 
ATOM      7  C   UNL     1       5.039  -5.318   1.522  0.00  0.00    +0.037 A 
ATOM      8  C   UNL     1       6.312  -5.797   1.247  0.00  0.00    +0.023 A 
ATOM      9  C   UNL     1       6.476  -7.091   0.793  0.00  0.00    +0.002 A 
ATOM     10  C   UNL     1       5.370  -7.903   0.616  0.00  0.00    +0.000 A 
ATOM     11  C   UNL     1       4.103  -7.425   0.887  0.00  0.00    +0.007 A 
ATOM     12  C   UNL     1       3.927  -6.127   1.337  0.00  0.00    -0.010 A 
ATOM     13  C   UNL     1       2.537  -5.629   1.609  0.00  0.00    +0.124 C 
ATOM     14  H   UNL     1       5.622  -3.428   2.207  0.00  0.00    +0.153 HD
ATOM     15  H   UNL     1       2.751  -4.818   3.471  0.00  0.00    +0.129 HD
ENDROOT
BRANCH   3  16
ATOM     16  C   UNL     1       0.319  -4.456   1.520  0.00  0.00    +0.266 C 
ATOM     17  O   UNL     1       0.299  -4.062   0.373  0.00  0.00    -0.271 OA
ATOM     18  N   UNL     1      -0.485  -5.470   1.899  0.00  0.00    -0.101 N 
ATOM     19  F   UNL     1      -0.464  -5.891   3.129  0.00  0.00    -0.101 F 
BRANCH  18  20
ATOM     20  C   UNL     1      -1.343  -6.068   0.968  0.00  0.00    +0.111 A 
ATOM     21  C   UNL     1      -0.880  -7.090   0.151  0.00  0.00    +0.030 A 
ATOM     22  C   UNL     1      -1.729  -7.679  -0.766  0.00  0.00    +0.002 A 
ATOM     23  C   UNL     1      -3.041  -7.253  -0.874  0.00  0.00    +0.004 A 
ATOM     24  C   UNL     1      -3.509  -6.236  -0.063  0.00  0.00    +0.047 A 
ATOM     25  C   UNL     1      -2.666  -5.644   0.863  0.00  0.00    +0.141 A 
BRANCH  25  26
ATOM     26  O   UNL     1      -3.127  -4.647   1.665  0.00  0.00    -0.505 OA
ATOM     27  H   UNL     1      -3.021  -3.761   1.292  0.00  0.00    +0.292 HD
ENDBRANCH  25  26
ENDBRANCH  18  20
ENDBRANCH   3  16
BRANCH   1  28
ATOM     28  S   UNL     1       4.045  -1.010   1.367  0.00  0.00    +0.150 S 
ATOM     29  O   UNL     1       5.400  -1.439   1.386  0.00  0.00    -0.132 OA
ATOM     30  O   UNL     1       3.589   0.108   2.114  0.00  0.00    -0.132 OA
BRANCH  28  31
ATOM     31  O   UNL     1       3.698  -0.732  -0.089  0.00  0.00    -0.342 OA
BRANCH  31  35
ATOM     32  C   UNL     1       5.334  -3.425  -2.751  0.00  0.00    +0.000 A 
ATOM     33  C   UNL     1       4.122  -3.703  -2.146  0.00  0.00    +0.004 A 
ATOM     34  C   UNL     1       3.572  -2.802  -1.254  0.00  0.00    +0.048 A 
ATOM     35  C   UNL     1       4.237  -1.619  -0.966  0.00  0.00    +0.157 A 
ATOM     36  C   UNL     1       5.453  -1.344  -1.574  0.00  0.00    +0.048 A 
ATOM     37  C   UNL     1       5.999  -2.247  -2.465  0.00  0.00    +0.004 A 
ENDBRANCH  31  35
ENDBRANCH  28  31
ENDBRANCH   1  28
TORSDOF 6
