REMARK  Name = ZINC09694595
REMARK  2 active torsions:
REMARK  status: ('A' for Active; 'I' for Inactive)
REMARK    1  A    between atoms: C_3  and  C_6
REMARK    2  A    between atoms: C_8  and  C_17
REMARK                            x       y       z     vdW  Elec       q    Type
REMARK                         _______ _______ _______ _____ _____    ______ ____
ROOT
ATOM      1  C   UNL     1      -0.106  -0.020   0.789  0.00  0.00    +0.109 A 
ATOM      2  C   UNL     1      -0.130   1.381   0.828  0.00  0.00    +0.040 A 
ATOM      3  C   UNL     1       1.026   2.091   0.536  0.00  0.00    -0.002 A 
ATOM      4  C   UNL     1       2.189   1.355   0.208  0.00  0.00    +0.066 A 
ATOM      5  C   UNL     1       3.411   1.987  -0.104  0.00  0.00    +0.129 A 
ATOM      6  N   UNL     1       4.455   1.222  -0.401  0.00  0.00    -0.220 NA
ATOM      7  C   UNL     1       4.362  -0.097  -0.406  0.00  0.00    +0.225 A 
ATOM      8  N   UNL     1       3.250  -0.736  -0.124  0.00  0.00    -0.216 NA
ATOM      9  C   UNL     1       2.135  -0.059   0.190  0.00  0.00    +0.166 A 
ATOM     10  N   UNL     1       0.996  -0.688   0.479  0.00  0.00    -0.224 NA
ATOM     11  N   UNL     1       3.518   3.362  -0.101  0.00  0.00    -0.343 N 
ATOM     12  H   UNL     1       3.092   3.880   0.599  0.00  0.00    +0.144 HD
ATOM     13  H   UNL     1       4.020   3.810  -0.799  0.00  0.00    +0.144 HD
ENDROOT
BRANCH   3  14
ATOM     14  C   UNL     1       1.042   3.572   0.566  0.00  0.00    -0.017 A 
ATOM     15  C   UNL     1       0.715   4.251   1.740  0.00  0.00    +0.010 A 
ATOM     16  C   UNL     1       0.737   5.630   1.764  0.00  0.00    +0.020 A 
ATOM     17  C   UNL     1       1.071   6.341   0.624  0.00  0.00    +0.041 A 
ATOM     18  C   UNL     1       1.391   5.671  -0.546  0.00  0.00    +0.020 A 
ATOM     19  C   UNL     1       1.378   4.292  -0.580  0.00  0.00    +0.010 A 
ATOM     20 CL   UNL     1       1.090   8.076   0.660  0.00  0.00    -0.084 Cl
ENDBRANCH   3  14
BRANCH   1  23
ATOM     21  C   UNL     1      -2.804  -2.401   1.452  0.00  0.00    +0.042 A 
ATOM     22  C   UNL     1      -1.471  -2.124   1.098  0.00  0.00    +0.051 A 
ATOM     23  C   UNL     1      -1.338  -0.769   1.100  0.00  0.00    +0.153 A 
ATOM     24  O   UNL     1      -2.529  -0.232   1.429  0.00  0.00    -0.461 OA
ATOM     25  C   UNL     1      -3.417  -1.214   1.643  0.00  0.00    +0.196 A 
ENDBRANCH   1  23
TORSDOF 2
