REMARK  Name = ZINC57303691
REMARK  9 active torsions:
REMARK  status: ('A' for Active; 'I' for Inactive)
REMARK    1  A    between atoms: C_1  and  C_2
REMARK    2  A    between atoms: C_2  and  C_3
REMARK    3  A    between atoms: C_2  and  C_4
REMARK    4  A    between atoms: C_4  and  C_6
REMARK    5  A    between atoms: C_4  and  N_17
REMARK    6  A    between atoms: N_17  and  C_18
REMARK    7  A    between atoms: C_18  and  C_19
REMARK    8  A    between atoms: N_21  and  C_22
REMARK    9  A    between atoms: C_23  and  C_31
REMARK                            x       y       z     vdW  Elec       q    Type
REMARK                         _______ _______ _______ _____ _____    ______ ____
ROOT
ATOM      1  C   UNL     1      -1.418  -2.419   1.527  0.00  0.00    +0.178 C 
ENDROOT
BRANCH   1   2
ATOM      2  C   UNL     1      -1.520  -3.921   1.605  0.00  0.00    +0.231 C 
ATOM      3  O   UNL     1      -1.560  -4.579   0.587  0.00  0.00    -0.274 OA
ATOM      4  N   UNL     1      -1.567  -4.532   2.805  0.00  0.00    -0.278 N 
ATOM      5  H   UNL     1      -1.535  -4.005   3.619  0.00  0.00    +0.155 HD
BRANCH   4   6
ATOM      6  C   UNL     1      -1.661  -5.913   2.877  0.00  0.00    +0.084 A 
ATOM      7  C   UNL     1      -1.725  -6.705   4.012  0.00  0.00    +0.068 A 
ATOM      8  C   UNL     1      -1.820  -8.141   3.816  0.00  0.00    -0.023 A 
ATOM      9  C   UNL     1      -1.832  -8.522   2.520  0.00  0.00    -0.004 A 
ATOM     10  S   UNL     1      -1.730  -7.010   1.607  0.00  0.00    -0.077 S 
ATOM     11  C   UNL     1      -1.920  -9.921   1.994  0.00  0.00    +0.043 C 
ATOM     12  C   UNL     1      -1.613 -10.889   3.147  0.00  0.00    +0.005 C 
ATOM     13  C   UNL     1      -2.436 -10.478   4.371  0.00  0.00    +0.005 C 
ATOM     14  C   UNL     1      -1.901  -9.162   4.941  0.00  0.00    +0.037 C 
BRANCH   7  15
ATOM     15  C   UNL     1      -1.698  -6.118   5.355  0.00  0.00    +0.244 C 
ATOM     16  O   UNL     1      -2.739  -5.804   5.903  0.00  0.00    -0.270 OA
ATOM     17  N   UNL     1      -0.521  -5.927   5.984  0.00  0.00    -0.325 N 
ATOM     18  H   UNL     1       0.308  -6.177   5.547  0.00  0.00    +0.145 HD
ATOM     19  H   UNL     1      -0.503  -5.538   6.872  0.00  0.00    +0.145 HD
ENDBRANCH   7  15
ENDBRANCH   4   6
ENDBRANCH   1   2
BRANCH   1  20
ATOM     20  N   UNL     1      -1.383  -2.003   0.119  0.00  0.00    -0.301 NA
ATOM     21  H   UNL     1      -2.227  -2.278  -0.361  0.00  0.00    +0.123 HD
BRANCH  20  22
ATOM     22  C   UNL     1      -1.159  -0.556   0.003  0.00  0.00    +0.087 C 
BRANCH  22  23
ATOM     23  C   UNL     1      -1.715  -0.065  -1.310  0.00  0.00    -0.027 A 
ATOM     24  C   UNL     1      -1.562  -0.829  -2.451  0.00  0.00    +0.009 A 
ATOM     25  C   UNL     1      -2.069  -0.385  -3.659  0.00  0.00    +0.050 A 
ATOM     26  C   UNL     1      -2.732   0.829  -3.721  0.00  0.00    +0.162 A 
ATOM     27  C   UNL     1      -2.886   1.595  -2.575  0.00  0.00    +0.162 A 
ATOM     28  C   UNL     1      -2.381   1.146  -1.366  0.00  0.00    +0.054 A 
ATOM     29  O   UNL     1      -3.543   2.790  -2.646  0.00  0.00    -0.488 OA
ATOM     30  C   UNL     1      -2.880   3.824  -3.376  0.00  0.00    +0.232 C 
ATOM     31  C   UNL     1      -3.169   3.704  -4.864  0.00  0.00    +0.082 C 
ATOM     32  C   UNL     1      -2.600   2.428  -5.463  0.00  0.00    +0.232 C 
ATOM     33  O   UNL     1      -3.239   1.277  -4.906  0.00  0.00    -0.488 OA
ENDBRANCH  22  23
BRANCH  22  35
ATOM     34  C   UNL     1       1.047  -0.994  -1.084  0.00  0.00    +0.009 C 
ATOM     35  C   UNL     1       0.342  -0.265   0.062  0.00  0.00    +0.004 C 
ATOM     36  C   UNL     1       0.576   1.241  -0.071  0.00  0.00    +0.009 C 
ENDBRANCH  22  35
ENDBRANCH  20  22
ENDBRANCH   1  20
TORSDOF 7
