REMARK  Name = ZINC40822107
REMARK  7 active torsions:
REMARK  status: ('A' for Active; 'I' for Inactive)
REMARK    1  A    between atoms: C_1  and  C_2
REMARK    2  A    between atoms: C_6  and  C_7
REMARK    3  A    between atoms: N_9  and  N_10
REMARK    4  A    between atoms: N_15  and  N_16
REMARK    5  A    between atoms: C_17  and  C_19
REMARK    6  A    between atoms: C_19  and  O_20
REMARK    7  A    between atoms: O_20  and  C_21
REMARK                            x       y       z     vdW  Elec       q    Type
REMARK                         _______ _______ _______ _____ _____    ______ ____
ROOT
ATOM      1  C   UNL     1      -0.018   1.503   0.010  0.00  0.00    +0.048 C 
ATOM      2  C   UNL     1       0.002  -0.004   0.002  0.00  0.00    +0.009 A 
ATOM      3  C   UNL     1       0.009  -0.838  -1.123  0.00  0.00    +0.042 A 
ATOM      4  C   UNL     1       0.027  -2.137  -0.673  0.00  0.00    +0.115 A 
ATOM      5  O   UNL     1       0.035  -2.112   0.658  0.00  0.00    -0.454 OA
ATOM      6  C   UNL     1       0.024  -0.830   1.091  0.00  0.00    +0.194 A 
ATOM      7  C   UNL     1       0.034  -3.327  -1.599  0.00  0.00    +0.075 C 
ATOM      8  C   UNL     1      -0.492  -2.903  -2.974  0.00  0.00    +0.014 C 
ATOM      9  C   UNL     1       0.279  -1.685  -3.495  0.00  0.00    +0.058 C 
ATOM     10  C   UNL     1       0.000  -0.512  -2.566  0.00  0.00    +0.070 C 
ATOM     11  N   UNL     1      -0.228   0.686  -3.008  0.00  0.00    -0.184 NA
ENDROOT
BRANCH   6  12
ATOM     12  C   UNL     1       0.031  -0.400   2.493  0.00  0.00    +0.293 C 
ATOM     13  O   UNL     1       0.016   0.786   2.766  0.00  0.00    -0.266 OA
ATOM     14  N   UNL     1       0.053  -1.317   3.480  0.00  0.00    -0.247 N 
ATOM     15  H   UNL     1       0.065  -2.263   3.263  0.00  0.00    +0.169 HD
BRANCH  14  16
ATOM     16  N   UNL     1       0.060  -0.916   4.786  0.00  0.00    -0.254 NA
ATOM     17  H   UNL     1       0.077  -1.710   5.408  0.00  0.00    +0.140 HD
ATOM     18  H   UNL     1       0.834  -0.296   4.970  0.00  0.00    +0.140 HD
ENDBRANCH  14  16
ENDBRANCH   6  12
BRANCH  11  19
ATOM     19  N   UNL     1      -0.224   0.938  -4.386  0.00  0.00    -0.204 N 
ATOM     20  C   UNL     1      -0.461   2.183  -4.845  0.00  0.00    +0.270 C 
ATOM     21  O   UNL     1      -0.678   3.085  -4.064  0.00  0.00    -0.270 OA
ATOM     22  H   UNL     1      -0.050   0.216  -5.010  0.00  0.00    +0.177 HD
BRANCH  20  23
ATOM     23  C   UNL     1      -0.456   2.453  -6.327  0.00  0.00    +0.326 C 
BRANCH  23  24
ATOM     24  O   UNL     1      -0.731   3.836  -6.560  0.00  0.00    -0.481 OA
BRANCH  24  25
ATOM     25  C   UNL     1      -0.763   4.249  -7.854  0.00  0.00    +0.140 A 
ATOM     26  C   UNL     1      -0.540   3.341  -8.879  0.00  0.00    +0.048 A 
ATOM     27  C   UNL     1      -0.574   3.763 -10.194  0.00  0.00    +0.023 A 
ATOM     28  C   UNL     1      -0.828   5.091 -10.490  0.00  0.00    +0.043 A 
ATOM     29  C   UNL     1      -1.050   5.998  -9.470  0.00  0.00    +0.043 A 
ATOM     30  C   UNL     1      -1.024   5.579  -8.153  0.00  0.00    +0.084 A 
ATOM     31 CL   UNL     1      -1.310   6.717  -6.873  0.00  0.00    -0.080 Cl
ATOM     32 CL   UNL     1      -0.869   5.618 -12.144  0.00  0.00    -0.083 Cl
ENDBRANCH  24  25
ENDBRANCH  23  24
ENDBRANCH  20  23
ENDBRANCH  11  19
TORSDOF 6
