REMARK  Name = ZINC60355159
REMARK  7 active torsions:
REMARK  status: ('A' for Active; 'I' for Inactive)
REMARK    1  A    between atoms: C_1  and  C_2
REMARK    2  A    between atoms: C_5  and  C_7
REMARK    3  A    between atoms: C_7  and  C_9
REMARK    4  A    between atoms: C_7  and  N_27
REMARK    5  A    between atoms: C_9  and  N_10
REMARK    6  A    between atoms: C_11  and  C_13
REMARK    7  A    between atoms: C_13  and  C_14
REMARK                            x       y       z     vdW  Elec       q    Type
REMARK                         _______ _______ _______ _____ _____    ______ ____
ROOT
ATOM      1  N   UNL     1       3.139  -4.616  -1.417  0.00  0.00    -0.316 N 
ATOM      2  C   UNL     1       3.698  -5.031  -2.571  0.00  0.00    +0.215 C 
ATOM      3  O   UNL     1       3.300  -4.593  -3.630  0.00  0.00    -0.276 OA
ATOM      4  H   UNL     1       3.457  -4.966  -0.571  0.00  0.00    +0.149 HD
ENDROOT
BRANCH   1   5
ATOM      5  C   UNL     1       2.052  -3.634  -1.442  0.00  0.00    +0.096 C 
BRANCH   5   6
ATOM      6  C   UNL     1       1.514  -3.434  -0.023  0.00  0.00    +0.016 C 
BRANCH   6  11
ATOM      7  C   UNL     1      -1.860  -7.123   0.648  0.00  0.00    +0.086 C 
ATOM      8  C   UNL     1      -0.591  -6.316   0.749  0.00  0.00    +0.102 A 
ATOM      9  C   UNL     1       0.498  -6.649   1.464  0.00  0.00    +0.044 A 
ATOM     10  C   UNL     1       1.444  -5.615   1.276  0.00  0.00    +0.043 A 
ATOM     11  C   UNL     1       0.876  -4.712   0.457  0.00  0.00    +0.093 A 
ATOM     12  O   UNL     1      -0.355  -5.144   0.137  0.00  0.00    -0.466 OA
ENDBRANCH   6  11
BRANCH   6  13
ATOM     13  N   UNL     1       0.514  -2.358  -0.026  0.00  0.00    +0.387 N 
ATOM     14  C   UNL     1      -0.017  -2.148   1.345  0.00  0.00    -0.078 C 
ATOM     15  C   UNL     1      -0.574  -0.703   1.292  0.00  0.00    -0.020 C 
ATOM     16  C   UNL     1       0.455   0.031   0.401  0.00  0.00    -0.020 C 
ATOM     17  C   UNL     1       1.143  -1.077  -0.416  0.00  0.00    -0.078 C 
ATOM     18  H   UNL     1      -0.238  -2.583  -0.660  0.00  0.00    -0.081 HD
ENDBRANCH   6  13
ENDBRANCH   5   6
ENDBRANCH   1   5
BRANCH   2  19
ATOM     19  C   UNL     1       4.816  -6.041  -2.547  0.00  0.00    +0.119 C 
BRANCH  19  20
ATOM     20  C   UNL     1       5.267  -6.338  -3.978  0.00  0.00    +0.146 C 
ATOM     21  C   UNL     1       6.458  -7.260  -3.953  0.00  0.00    +0.231 C 
ATOM     22  O   UNL     1       7.564  -6.777  -4.069  0.00  0.00    -0.274 OA
ATOM     23  N   UNL     1       6.356  -8.577  -3.810  0.00  0.00    -0.284 N 
ATOM     24  C   UNL     1       5.180  -9.321  -3.780  0.00  0.00    +0.048 A 
ATOM     25  C   UNL     1       5.212 -10.621  -3.285  0.00  0.00    +0.044 A 
ATOM     26  C   UNL     1       4.056 -11.376  -3.235  0.00  0.00    +0.043 A 
ATOM     27  C   UNL     1       2.854 -10.849  -3.676  0.00  0.00    +0.021 A 
ATOM     28  C   UNL     1       2.809  -9.559  -4.173  0.00  0.00    +0.018 A 
ATOM     29  C   UNL     1       3.967  -8.800  -4.229  0.00  0.00    +0.030 A 
ATOM     30  S   UNL     1       3.919  -7.155  -4.886  0.00  0.00    -0.110 S 
ATOM     31 CL   UNL     1       4.110 -12.997  -2.616  0.00  0.00    -0.083 Cl
ATOM     32  H   UNL     1       7.186  -9.071  -3.717  0.00  0.00    +0.155 HD
ENDBRANCH  19  20
ENDBRANCH   2  19
TORSDOF 6
