REMARK  Name = ZINC45921363
REMARK  8 active torsions:
REMARK  status: ('A' for Active; 'I' for Inactive)
REMARK    1  A    between atoms: C_1  and  C_2
REMARK    2  A    between atoms: C_2  and  C_3
REMARK    3  A    between atoms: C_3  and  C_5
REMARK    4  A    between atoms: C_3  and  N_6
REMARK    5  A    between atoms: C_7  and  C_9
REMARK    6  A    between atoms: C_18  and  S_21
REMARK    7  A    between atoms: S_21  and  C_22
REMARK    8  A    between atoms: C_25  and  C_28
REMARK                            x       y       z     vdW  Elec       q    Type
REMARK                         _______ _______ _______ _____ _____    ______ ____
ROOT
ATOM      1  C   UNL     1      -4.267   0.500  -2.061  0.00  0.00    +0.078 C 
ATOM      2  C   UNL     1      -3.807   1.935  -2.325  0.00  0.00    +0.031 C 
ATOM      3  C   UNL     1      -4.274   2.370  -3.717  0.00  0.00    +0.107 C 
ATOM      4  N   UNL     1      -5.728   2.175  -3.810  0.00  0.00    -0.314 N 
ATOM      5  C   UNL     1      -6.286   0.855  -3.488  0.00  0.00    +0.107 C 
ATOM      6  C   UNL     1      -5.796   0.438  -2.098  0.00  0.00    +0.031 C 
ATOM      7  C   UNL     1      -6.561   3.224  -4.195  0.00  0.00    +0.144 A 
ATOM      8  C   UNL     1      -6.013   4.403  -4.704  0.00  0.00    +0.048 A 
ATOM      9  C   UNL     1      -6.880   5.415  -5.073  0.00  0.00    +0.040 A 
ATOM     10  C   UNL     1      -8.249   5.195  -4.914  0.00  0.00    +0.124 A 
ATOM     11  N   UNL     1      -8.678   4.043  -4.422  0.00  0.00    -0.141 NA
ATOM     12  N   UNL     1      -7.874   3.102  -4.084  0.00  0.00    -0.133 NA
ENDROOT
BRANCH   1  14
ATOM     13  N   UNL     1      -2.458   0.031  -0.440  0.00  0.00    -0.313 N 
ATOM     14  C   UNL     1      -3.779   0.057  -0.705  0.00  0.00    +0.216 C 
ATOM     15  O   UNL     1      -4.576  -0.275   0.147  0.00  0.00    -0.276 OA
ATOM     16  H   UNL     1      -1.821   0.297  -1.122  0.00  0.00    +0.149 HD
BRANCH  13  17
ATOM     17  C   UNL     1      -1.984  -0.399   0.877  0.00  0.00    +0.070 C 
ATOM     18  C   UNL     1      -1.871  -1.925   0.906  0.00  0.00    +0.028 C 
BRANCH  17  20
ATOM     19  C   UNL     1      -0.747   1.740   1.248  0.00  0.00    +0.005 C 
ATOM     20  C   UNL     1      -0.612   0.219   1.153  0.00  0.00    +0.018 C 
ENDBRANCH  17  20
ENDBRANCH  13  17
ENDBRANCH   1  14
BRANCH  10  21
ATOM     21  S   UNL     1      -9.404   6.447  -5.366  0.00  0.00    -0.068 S 
BRANCH  21  22
ATOM     22  C   UNL     1     -10.956   5.810  -4.828  0.00  0.00    +0.014 A 
ATOM     23  C   UNL     1     -11.432   6.115  -3.558  0.00  0.00    +0.015 A 
ATOM     24  C   UNL     1     -12.649   5.614  -3.140  0.00  0.00    +0.004 A 
ATOM     25  C   UNL     1     -13.394   4.810  -3.983  0.00  0.00    -0.050 A 
ATOM     26  C   UNL     1     -12.924   4.505  -5.248  0.00  0.00    +0.004 A 
ATOM     27  C   UNL     1     -11.710   5.006  -5.674  0.00  0.00    +0.015 A 
ATOM     28  C   UNL     1     -14.722   4.266  -3.523  0.00  0.00    +0.044 C 
ENDBRANCH  21  22
ENDBRANCH  10  21
TORSDOF 5
