REMARK  Name = ZINC41634651
REMARK  5 active torsions:
REMARK  status: ('A' for Active; 'I' for Inactive)
REMARK    1  A    between atoms: C_1  and  C_2
REMARK    2  A    between atoms: N_5  and  C_8
REMARK    3  A    between atoms: C_8  and  C_10
REMARK    4  A    between atoms: C_8  and  C_19
REMARK    5  A    between atoms: C_14  and  N_16
REMARK                            x       y       z     vdW  Elec       q    Type
REMARK                         _______ _______ _______ _____ _____    ______ ____
ROOT
ATOM      1  C   UNL     1      -0.750  -3.952   1.419  0.00  0.00    +0.006 C 
ENDROOT
BRANCH   1   2
ATOM      2  C   UNL     1      -2.185  -4.410   1.475  0.00  0.00    +0.050 A 
ATOM      3  C   UNL     1      -2.820  -5.296   0.699  0.00  0.00    +0.282 A 
ATOM      4  N   UNL     1      -4.147  -5.585   0.908  0.00  0.00    -0.170 N 
ATOM      5  C   UNL     1      -4.774  -4.936   1.928  0.00  0.00    +0.199 A 
ATOM      6  S   UNL     1      -3.482  -3.918   2.601  0.00  0.00    -0.050 S 
ATOM      7  N   UNL     1      -6.019  -5.320   1.992  0.00  0.00    -0.208 NA
ATOM      8  C   UNL     1      -6.253  -6.217   1.036  0.00  0.00    +0.246 A 
ATOM      9  N   UNL     1      -5.157  -6.414   0.353  0.00  0.00    -0.150 NA
ATOM     10  O   UNL     1      -2.146  -5.915  -0.307  0.00  0.00    -0.265 OA
ENDBRANCH   1   2
BRANCH   1  15
ATOM     11  C   UNL     1      -0.019   1.526   0.010  0.00  0.00    +0.007 C 
ATOM     12  C   UNL     1       0.002  -0.004   0.002  0.00  0.00    -0.018 C 
ATOM     13  C   UNL     1      -1.434  -0.536   0.023  0.00  0.00    -0.015 C 
ATOM     14  C   UNL     1      -1.405  -2.064   0.095  0.00  0.00    -0.077 C 
ATOM     15  N   UNL     1      -0.707  -2.487   1.315  0.00  0.00    +0.387 N 
ATOM     16  C   UNL     1       0.691  -2.042   1.269  0.00  0.00    -0.077 C 
ATOM     17  C   UNL     1       0.743  -0.513   1.242  0.00  0.00    -0.015 C 
ATOM     18  H   UNL     1      -1.162  -2.082   2.119  0.00  0.00    -0.080 HD
ENDBRANCH   1  15
BRANCH   1  19
ATOM     19  C   UNL     1      -0.034  -4.388   2.671  0.00  0.00    -0.054 A 
ATOM     20  C   UNL     1      -0.187  -3.667   3.841  0.00  0.00    +0.002 A 
ATOM     21  C   UNL     1       0.469  -4.067   4.990  0.00  0.00    +0.002 A 
ATOM     22  C   UNL     1       1.279  -5.188   4.968  0.00  0.00    +0.033 A 
ATOM     23  C   UNL     1       1.432  -5.908   3.799  0.00  0.00    +0.126 A 
ATOM     24  C   UNL     1       0.771  -5.511   2.651  0.00  0.00    +0.035 A 
BRANCH  23  25
ATOM     25  N   UNL     1       2.299  -7.107   3.776  0.00  0.00    +0.056 N 
ATOM     26  O   UNL     1       2.874  -7.457   4.781  0.00  0.00    -0.126 OA
ATOM     27  O   UNL     1       2.432  -7.738   2.753  0.00  0.00    -0.126 OA
ENDBRANCH  23  25
ENDBRANCH   1  19
TORSDOF 4
