REMARK  Name = ZINC07179947
REMARK  5 active torsions:
REMARK  status: ('A' for Active; 'I' for Inactive)
REMARK    1  A    between atoms: C_1  and  C_2
REMARK    2  A    between atoms: C_7  and  C_8
REMARK    3  A    between atoms: C_11  and  S_13
REMARK    4  A    between atoms: S_13  and  C_14
REMARK    5  A    between atoms: C_14  and  C_15
REMARK                            x       y       z     vdW  Elec       q    Type
REMARK                         _______ _______ _______ _____ _____    ______ ____
ROOT
ATOM      1  S   UNL     1       2.750   7.108   0.013  0.00  0.00    -0.058 S 
ENDROOT
BRANCH   1   5
ATOM      2  C   UNL     1       1.172   3.564   0.009  0.00  0.00    +0.249 A 
ATOM      3  N   UNL     1       0.109   4.331   0.018  0.00  0.00    -0.106 NA
ATOM      4  N   UNL     1       0.473   5.565   0.025  0.00  0.00    -0.101 NA
ATOM      5  C   UNL     1       1.784   5.635   0.014  0.00  0.00    +0.278 A 
ATOM      6  O   UNL     1       2.255   4.373   0.004  0.00  0.00    -0.411 OA
BRANCH   2  13
ATOM      7  C   UNL     1      -1.331   2.113   0.020  0.00  0.00    +0.044 C 
ATOM      8  C   UNL     1      -0.017   1.375   0.010  0.00  0.00    -0.038 A 
ATOM      9  C   UNL     1       0.002  -0.004   0.002  0.00  0.00    +0.004 A 
ATOM     10  C   UNL     1       1.208  -0.682  -0.013  0.00  0.00    +0.000 A 
ATOM     11  C   UNL     1       2.402   0.016  -0.021  0.00  0.00    +0.001 A 
ATOM     12  C   UNL     1       2.398   1.396  -0.014  0.00  0.00    +0.013 A 
ATOM     13  C   UNL     1       1.185   2.087   0.002  0.00  0.00    +0.041 A 
ENDBRANCH   2  13
ENDBRANCH   1   5
BRANCH   1  14
ATOM     14  C   UNL     1       1.432   8.348   0.030  0.00  0.00    +0.155 C 
BRANCH  14  15
ATOM     15  C   UNL     1       2.039   9.728   0.032  0.00  0.00    +0.146 A 
ATOM     16  N   UNL     1       2.310  10.327   1.178  0.00  0.00    -0.199 NA
ATOM     17  C   UNL     1       2.851  11.543   1.183  0.00  0.00    +0.217 A 
ATOM     18  N   UNL     1       3.110  12.159   0.035  0.00  0.00    -0.181 NA
ATOM     19  C   UNL     1       2.832  11.555  -1.115  0.00  0.00    +0.217 A 
ATOM     20  N   UNL     1       2.295  10.336  -1.113  0.00  0.00    -0.199 NA
ATOM     21  N   UNL     1       3.098  12.190  -2.311  0.00  0.00    -0.327 N 
ATOM     22  N   UNL     1       3.138  12.167   2.381  0.00  0.00    -0.327 N 
ATOM     23  H   UNL     1       2.894  11.748  -3.151  0.00  0.00    +0.145 HD
ATOM     24  H   UNL     1       3.489  13.077  -2.312  0.00  0.00    +0.145 HD
ATOM     25  H   UNL     1       3.528  13.054   2.384  0.00  0.00    +0.145 HD
ATOM     26  H   UNL     1       2.949  11.717   3.219  0.00  0.00    +0.145 HD
ENDBRANCH  14  15
ENDBRANCH   1  14
TORSDOF 4
