REMARK  Name = ZINC41006349
REMARK  13 active torsions:
REMARK  status: ('A' for Active; 'I' for Inactive)
REMARK    1  A    between atoms: C_1  and  C_2
REMARK    2  A    between atoms: C_5  and  N_9
REMARK    3  A    between atoms: C_6  and  C_8
REMARK    4  A    between atoms: C_10  and  C_12
REMARK    5  A    between atoms: C_14  and  C_35
REMARK    6  A    between atoms: C_16  and  C_24
REMARK    7  A    between atoms: C_18  and  C_22
REMARK    8  A    between atoms: C_18  and  O_23
REMARK    9  A    between atoms: N_26  and  C_27
REMARK   10  A    between atoms: C_30  and  C_34
REMARK   11  A    between atoms: C_32  and  C_33
REMARK   12  A    between atoms: C_40  and  O_41
REMARK   13  A    between atoms: O_41  and  C_42
REMARK                            x       y       z     vdW  Elec       q    Type
REMARK                         _______ _______ _______ _____ _____    ______ ____
ROOT
ATOM      1  C   UNL     1       1.112  -6.537  -1.861  0.00  0.00    +0.150 C 
ATOM      2  C   UNL     1       0.599  -6.716  -3.294  0.00  0.00    +0.056 C 
ATOM      3  C   UNL     1      -0.824  -6.162  -3.397  0.00  0.00    +0.116 C 
ATOM      4  C   UNL     1      -1.761  -6.971  -2.498  0.00  0.00    +0.082 C 
ATOM      5  C   UNL     1      -1.336  -6.802  -1.036  0.00  0.00    +0.110 C 
ATOM      6  C   UNL     1       0.127  -7.179  -0.909  0.00  0.00    +0.148 C 
ATOM      7  O   UNL     1       0.497  -7.972  -0.077  0.00  0.00    -0.296 OA
ATOM      8  C   UNL     1      -3.195  -6.469  -2.675  0.00  0.00    +0.042 C 
ENDROOT
BRANCH   2   9
ATOM      9  C   UNL     1       1.498  -5.972  -4.247  0.00  0.00    -0.001 A 
ATOM     10  C   UNL     1       1.454  -4.592  -4.304  0.00  0.00    +0.007 A 
ATOM     11  C   UNL     1       2.278  -3.909  -5.178  0.00  0.00    +0.001 A 
ATOM     12  C   UNL     1       3.150  -4.603  -5.997  0.00  0.00    +0.004 A 
ATOM     13  C   UNL     1       3.198  -5.983  -5.943  0.00  0.00    +0.046 A 
ATOM     14  C   UNL     1       2.376  -6.671  -5.062  0.00  0.00    +0.124 A 
BRANCH  14  15
ATOM     15  O   UNL     1       2.425  -8.028  -5.003  0.00  0.00    -0.495 OA
ATOM     16  C   UNL     1       3.353  -8.681  -5.872  0.00  0.00    +0.277 C 
ENDBRANCH  14  15
ENDBRANCH   2   9
BRANCH   1  18
ATOM     17  N   UNL     1       0.693  -4.573  -0.417  0.00  0.00    -0.285 N 
ATOM     18  C   UNL     1       1.236  -5.069  -1.547  0.00  0.00    +0.228 C 
ATOM     19  O   UNL     1       1.823  -4.332  -2.311  0.00  0.00    -0.275 OA
ATOM     20  H   UNL     1       0.271  -5.170   0.220  0.00  0.00    +0.155 HD
BRANCH  17  25
ATOM     21  C   UNL     1       0.881   1.003   0.611  0.00  0.00    +0.044 C 
ATOM     22  C   UNL     1       0.831  -0.478   0.338  0.00  0.00    -0.050 A 
ATOM     23  C   UNL     1       1.759  -1.055  -0.510  0.00  0.00    +0.005 A 
ATOM     24  C   UNL     1       1.716  -2.412  -0.762  0.00  0.00    +0.024 A 
ATOM     25  C   UNL     1       0.740  -3.198  -0.163  0.00  0.00    +0.036 A 
ATOM     26  C   UNL     1      -0.190  -2.616   0.688  0.00  0.00    -0.029 A 
ATOM     27  C   UNL     1      -0.139  -1.259   0.940  0.00  0.00    +0.008 A 
ATOM     28  C   UNL     1      -1.251  -3.465   1.340  0.00  0.00    +0.045 C 
ENDBRANCH  17  25
ENDBRANCH   1  18
BRANCH   3  29
ATOM     29  C   UNL     1      -0.833  -4.721  -2.958  0.00  0.00    +0.224 C 
ATOM     30  O   UNL     1      -0.801  -4.446  -1.778  0.00  0.00    -0.275 OA
ATOM     31  N   UNL     1      -0.876  -3.737  -3.879  0.00  0.00    -0.285 N 
ATOM     32  H   UNL     1      -0.960  -3.956  -4.820  0.00  0.00    +0.155 HD
BRANCH  31  33
ATOM     33  C   UNL     1      -0.799  -2.399  -3.477  0.00  0.00    +0.036 A 
ATOM     34  C   UNL     1      -1.084  -2.050  -2.163  0.00  0.00    +0.024 A 
ATOM     35  C   UNL     1      -1.008  -0.728  -1.769  0.00  0.00    +0.005 A 
ATOM     36  C   UNL     1      -0.649   0.247  -2.681  0.00  0.00    -0.050 A 
ATOM     37  C   UNL     1      -0.366  -0.097  -3.990  0.00  0.00    +0.008 A 
ATOM     38  C   UNL     1      -0.434  -1.418  -4.389  0.00  0.00    -0.029 A 
ATOM     39  C   UNL     1      -0.117  -1.793  -5.814  0.00  0.00    +0.045 C 
ATOM     40  C   UNL     1      -0.568   1.688  -2.248  0.00  0.00    +0.044 C 
ENDBRANCH  31  33
ENDBRANCH   3  29
BRANCH   4  41
ATOM     41  O   UNL     1      -1.692  -8.352  -2.858  0.00  0.00    -0.388 OA
ATOM     42  H   UNL     1      -2.262  -8.926  -2.329  0.00  0.00    +0.210 HD
ENDBRANCH   4  41
TORSDOF 7
