REMARK  Name = ZINC66929663
REMARK  10 active torsions:
REMARK  status: ('A' for Active; 'I' for Inactive)
REMARK    1  A    between atoms: C_1  and  C_2
REMARK    2  A    between atoms: C_2  and  C_3
REMARK    3  A    between atoms: C_2  and  C_4
REMARK    4  A    between atoms: C_4  and  C_6
REMARK    5  A    between atoms: C_4  and  N_21
REMARK    6  A    between atoms: N_8  and  C_9
REMARK    7  A    between atoms: C_9  and  C_10
REMARK    8  A    between atoms: C_10  and  O_20
REMARK    9  A    between atoms: C_22  and  O_24
REMARK   10  A    between atoms: O_24  and  C_25
REMARK                            x       y       z     vdW  Elec       q    Type
REMARK                         _______ _______ _______ _____ _____    ______ ____
ROOT
ATOM      1  C   UNL     1       0.412  -2.032  -1.040  0.00  0.00    +0.234 C 
ATOM      2  O   UNL     1      -0.184  -2.647  -1.899  0.00  0.00    -0.274 OA
ATOM      3  N   UNL     1       1.211  -2.686  -0.175  0.00  0.00    -0.311 N 
ATOM      4  H   UNL     1       1.688  -2.195   0.512  0.00  0.00    +0.149 HD
ENDROOT
BRANCH   1   5
ATOM      5  C   UNL     1       0.258  -0.536  -0.940  0.00  0.00    +0.165 C 
BRANCH   5   6
ATOM      6  N   UNL     1      -0.656  -0.068  -1.985  0.00  0.00    -0.270 N 
ATOM      7  C   UNL     1      -0.577   1.201  -2.432  0.00  0.00    +0.401 C 
ATOM      8  O   UNL     1       0.254   1.957  -1.968  0.00  0.00    -0.226 OA
ATOM      9  H   UNL     1      -1.319  -0.672  -2.355  0.00  0.00    +0.153 HD
BRANCH   7  10
ATOM     10  O   UNL     1      -1.417   1.631  -3.392  0.00  0.00    -0.454 OA
ATOM     11  C   UNL     1      -1.276   2.987  -3.817  0.00  0.00    +0.282 C 
ENDBRANCH   7  10
ENDBRANCH   5   6
BRANCH   5  13
ATOM     12  C   UNL     1      -0.464   1.347   0.535  0.00  0.00    +0.009 C 
ATOM     13  C   UNL     1      -0.308  -0.172   0.434  0.00  0.00    +0.012 C 
ATOM     14  C   UNL     1      -1.673  -0.838   0.616  0.00  0.00    +0.009 C 
ENDBRANCH   5  13
ENDBRANCH   1   5
BRANCH   3  15
ATOM     15  C   UNL     1       1.361  -4.141  -0.272  0.00  0.00    +0.143 C 
BRANCH  15  16
ATOM     16  C   UNL     1       2.206  -4.646   0.899  0.00  0.00    +0.107 C 
ATOM     17  C   UNL     1       1.546  -4.231   2.213  0.00  0.00    +0.041 C 
ATOM     18  C   UNL     1       2.282  -4.927   3.364  0.00  0.00    +0.008 C 
ATOM     19  C   UNL     1       1.967  -6.420   3.305  0.00  0.00    +0.035 C 
ATOM     20  C   UNL     1       2.219  -6.960   1.921  0.00  0.00    -0.041 A 
ATOM     21  C   UNL     1       2.325  -6.145   0.816  0.00  0.00    -0.011 A 
ATOM     22  C   UNL     1       2.552  -6.707  -0.434  0.00  0.00    +0.007 A 
ATOM     23  C   UNL     1       2.675  -8.074  -0.576  0.00  0.00    +0.000 A 
ATOM     24  C   UNL     1       2.572  -8.891   0.534  0.00  0.00    +0.000 A 
ATOM     25  C   UNL     1       2.345  -8.335   1.776  0.00  0.00    +0.004 A 
BRANCH  16  26
ATOM     26  O   UNL     1       3.510  -4.065   0.824  0.00  0.00    -0.382 OA
ATOM     27  H   UNL     1       3.989  -4.277   0.011  0.00  0.00    +0.211 HD
ENDBRANCH  16  26
ENDBRANCH  15  16
ENDBRANCH   3  15
TORSDOF 7
