REMARK  Name = ZINC16884088
REMARK  3 active torsions:
REMARK  status: ('A' for Active; 'I' for Inactive)
REMARK    1  A    between atoms: C_4  and  C_7
REMARK    2  A    between atoms: C_9  and  C_17
REMARK    3  A    between atoms: C_20  and  N_23
REMARK                            x       y       z     vdW  Elec       q    Type
REMARK                         _______ _______ _______ _____ _____    ______ ____
ROOT
ATOM      1  C   UNL     1       3.711  -0.707  -0.038  0.00  0.00    +0.132 C 
ATOM      2  C   UNL     1       3.791  -1.588  -1.292  0.00  0.00    +0.119 C 
ATOM      3  N   UNL     1       2.862  -2.715  -1.104  0.00  0.00    -0.311 N 
ATOM      4  C   UNL     1       2.945  -3.424   0.060  0.00  0.00    +0.170 C 
ATOM      5  N   UNL     1       3.421  -2.852   1.155  0.00  0.00    -0.151 NA
ATOM      6  C   UNL     1       3.815  -1.584   1.184  0.00  0.00    +0.248 C 
ATOM      7  O   UNL     1       4.269  -1.121   2.212  0.00  0.00    -0.273 OA
ATOM      8  N   UNL     1       2.536  -4.723   0.096  0.00  0.00    -0.333 N 
ATOM      9  H   UNL     1       2.187  -5.143  -0.706  0.00  0.00    +0.145 HD
ATOM     10  H   UNL     1       2.595  -5.228   0.922  0.00  0.00    +0.145 HD
ATOM     11  H   UNL     1       2.211  -2.946  -1.786  0.00  0.00    +0.149 HD
ENDROOT
BRANCH   1  15
ATOM     12  C   UNL     1      -0.017   1.378   0.010  0.00  0.00    +0.000 A 
ATOM     13  C   UNL     1       1.171   2.086   0.002  0.00  0.00    +0.000 A 
ATOM     14  C   UNL     1       2.377   1.411  -0.013  0.00  0.00    +0.004 A 
ATOM     15  C   UNL     1       2.396   0.029  -0.020  0.00  0.00    -0.033 A 
ATOM     16  C   UNL     1       1.208  -0.679  -0.012  0.00  0.00    +0.004 A 
ATOM     17  C   UNL     1       0.002  -0.004   0.002  0.00  0.00    +0.000 A 
ENDBRANCH   1  15
BRANCH   2  18
ATOM     18  C   UNL     1       5.196  -2.105  -1.465  0.00  0.00    -0.026 A 
ATOM     19  C   UNL     1       5.628  -3.192  -0.729  0.00  0.00    +0.008 A 
ATOM     20  C   UNL     1       6.916  -3.667  -0.887  0.00  0.00    +0.033 A 
ATOM     21  C   UNL     1       7.773  -3.054  -1.783  0.00  0.00    +0.126 A 
ATOM     22  C   UNL     1       7.341  -1.968  -2.520  0.00  0.00    +0.033 A 
ATOM     23  C   UNL     1       6.051  -1.496  -2.365  0.00  0.00    +0.008 A 
BRANCH  21  24
ATOM     24  N   UNL     1       9.153  -3.562  -1.952  0.00  0.00    +0.056 N 
ATOM     25  O   UNL     1       9.531  -4.512  -1.307  0.00  0.00    -0.126 OA
ATOM     26  O   UNL     1       9.902  -3.026  -2.736  0.00  0.00    -0.126 OA
ENDBRANCH  21  24
ENDBRANCH   2  18
TORSDOF 3
