REMARK  Name = ZINC20503897
REMARK  6 active torsions:
REMARK  status: ('A' for Active; 'I' for Inactive)
REMARK    1  A    between atoms: N_10  and  C_13
REMARK    2  A    between atoms: C_13  and  C_14
REMARK    3  A    between atoms: C_23  and  C_25
REMARK    4  A    between atoms: C_25  and  N_26
REMARK    5  A    between atoms: N_26  and  S_27
REMARK    6  A    between atoms: S_27  and  C_30
REMARK                            x       y       z     vdW  Elec       q    Type
REMARK                         _______ _______ _______ _____ _____    ______ ____
ROOT
ATOM      1  C   UNL     1      -1.168  -0.485  -2.583  0.00  0.00    -0.011 C 
ATOM      2  C   UNL     1       0.228   0.051  -2.256  0.00  0.00    -0.073 C 
ATOM      3  N   UNL     1       0.684  -0.521  -0.981  0.00  0.00    +0.383 N 
ATOM      4  C   UNL     1       0.793  -1.984  -1.071  0.00  0.00    -0.078 C 
ATOM      5  C   UNL     1      -0.587  -2.579  -1.364  0.00  0.00    -0.015 C 
ATOM      6  C   UNL     1      -1.607  -1.438  -1.464  0.00  0.00    -0.012 C 
ATOM      7  C   UNL     1      -1.610  -0.667  -0.138  0.00  0.00    -0.010 C 
ATOM      8  C   UNL     1      -0.202  -0.125   0.122  0.00  0.00    -0.053 C 
ATOM      9  H   UNL     1       1.686  -0.119  -0.769  0.00  0.00    -0.081 HD
ENDROOT
BRANCH   1  10
ATOM     10  C   UNL     1      -2.155   0.680  -2.680  0.00  0.00    +0.086 C 
BRANCH  10  20
ATOM     11  C   UNL     1      -2.157   5.979  -8.388  0.00  0.00    +0.005 A 
ATOM     12  C   UNL     1      -1.358   5.424  -9.380  0.00  0.00    +0.018 A 
ATOM     13  C   UNL     1      -0.928   4.119  -9.251  0.00  0.00    +0.084 A 
ATOM     14  N   UNL     1      -1.265   3.397  -8.199  0.00  0.00    -0.350 N 
ATOM     15  C   UNL     1      -2.024   3.889  -7.233  0.00  0.00    +0.099 A 
ATOM     16  C   UNL     1      -2.499   5.195  -7.301  0.00  0.00    +0.042 A 
ATOM     17  N   UNL     1      -2.355   3.092  -6.143  0.00  0.00    -0.314 N 
ATOM     18  C   UNL     1      -1.760   1.754  -6.269  0.00  0.00    +0.122 C 
ATOM     19  C   UNL     1      -2.212   0.885  -5.093  0.00  0.00    +0.103 C 
ATOM     20  N   UNL     1      -1.805   1.522  -3.832  0.00  0.00    -0.299 NA
ATOM     21  C   UNL     1      -2.400   2.860  -3.706  0.00  0.00    +0.103 C 
ATOM     22  C   UNL     1      -1.948   3.729  -4.882  0.00  0.00    +0.122 C 
ATOM     23  H   UNL     1      -0.913   2.358  -8.110  0.00  0.00    +0.166 HD
ENDBRANCH  10  20
ENDBRANCH   1  10
BRANCH   8  24
ATOM     24  C   UNL     1      -0.251   1.402   0.213  0.00  0.00    +0.091 C 
BRANCH  24  25
ATOM     25  N   UNL     1       1.110   1.928   0.340  0.00  0.00    -0.191 NA
ATOM     26  H   UNL     1       1.907   1.296   0.759  0.00  0.00    +0.148 HD
BRANCH  25  27
ATOM     27  S   UNL     1       1.403   3.538   0.087  0.00  0.00    +0.065 S 
ATOM     28  O   UNL     1       2.792   3.738   0.307  0.00  0.00    -0.153 OA
ATOM     29  O   UNL     1       0.768   3.879  -1.138  0.00  0.00    -0.153 OA
BRANCH  27  30
ATOM     30  C   UNL     1       0.559   4.426   1.354  0.00  0.00    +0.142 A 
ATOM     31  C   UNL     1       1.005   4.791   2.581  0.00  0.00    +0.036 A 
ATOM     32  C   UNL     1       0.160   5.495   3.419  0.00  0.00    +0.010 A 
ATOM     33  C   UNL     1      -1.093   5.789   2.993  0.00  0.00    +0.047 A 
ATOM     34  S   UNL     1      -1.105   5.070   1.359  0.00  0.00    -0.077 S 
ENDBRANCH  27  30
ENDBRANCH  25  27
ENDBRANCH  24  25
ENDBRANCH   8  24
TORSDOF 6
