REMARK  Name = ZINC34262478
REMARK  9 active torsions:
REMARK  status: ('A' for Active; 'I' for Inactive)
REMARK    1  A    between atoms: C_1  and  C_2
REMARK    2  A    between atoms: C_2  and  C_3
REMARK    3  A    between atoms: C_3  and  N_4
REMARK    4  A    between atoms: C_11  and  C_23
REMARK    5  A    between atoms: C_13  and  C_19
REMARK    6  A    between atoms: C_13  and  C_21
REMARK    7  A    between atoms: C_14  and  N_18
REMARK    8  A    between atoms: C_15  and  C_16
REMARK    9  A    between atoms: C_26  and  C_29
REMARK                            x       y       z     vdW  Elec       q    Type
REMARK                         _______ _______ _______ _____ _____    ______ ____
ROOT
ATOM      1  N   UNL     1      -1.086  -1.936  -0.444  0.00  0.00    -0.298 NA
ATOM      2  C   UNL     1      -0.472  -2.351   0.831  0.00  0.00    +0.112 C 
ATOM      3  C   UNL     1      -0.451  -3.859   0.857  0.00  0.00    -0.007 C 
ATOM      4  C   UNL     1      -1.419  -4.542   0.274  0.00  0.00    -0.026 C 
ATOM      5  C   UNL     1      -2.598  -3.887  -0.386  0.00  0.00    +0.044 C 
ATOM      6  C   UNL     1      -2.480  -2.385  -0.503  0.00  0.00    +0.093 C 
ATOM      7  C   UNL     1      -2.815  -4.557  -1.744  0.00  0.00    +0.067 C 
ATOM      8  C   UNL     1      -3.161  -6.029  -1.520  0.00  0.00    +0.188 C 
ATOM      9  C   UNL     1      -2.181  -6.700  -0.606  0.00  0.00    +0.054 C 
ATOM     10  C   UNL     1      -1.369  -6.025   0.248  0.00  0.00    +0.074 C 
ENDROOT
BRANCH   7  11
ATOM     11  C   UNL     1      -3.946  -3.874  -2.469  0.00  0.00    -0.041 A 
ATOM     12  C   UNL     1      -5.109  -3.559  -1.789  0.00  0.00    +0.004 A 
ATOM     13  C   UNL     1      -6.148  -2.934  -2.448  0.00  0.00    +0.009 A 
ATOM     14  C   UNL     1      -6.025  -2.620  -3.800  0.00  0.00    -0.018 A 
ATOM     15  C   UNL     1      -4.851  -2.940  -4.479  0.00  0.00    +0.009 A 
ATOM     16  C   UNL     1      -3.816  -3.560  -3.809  0.00  0.00    +0.004 A 
BRANCH  14  17
ATOM     17  C   UNL     1      -7.139  -1.948  -4.513  0.00  0.00    -0.018 A 
ATOM     18  C   UNL     1      -8.310  -1.624  -3.833  0.00  0.00    +0.008 A 
ATOM     19  C   UNL     1      -9.343  -0.999  -4.501  0.00  0.00    +0.001 A 
ATOM     20  C   UNL     1      -9.217  -0.695  -5.845  0.00  0.00    +0.000 A 
ATOM     21  C   UNL     1      -8.057  -1.015  -6.526  0.00  0.00    +0.001 A 
ATOM     22  C   UNL     1      -7.015  -1.635  -5.865  0.00  0.00    +0.008 A 
ENDBRANCH  14  17
ENDBRANCH   7  11
BRANCH   9  23
ATOM     23  N   UNL     1      -2.102  -8.064  -0.631  0.00  0.00    -0.358 N 
ATOM     24  H   UNL     1      -2.671  -8.572  -1.231  0.00  0.00    +0.142 HD
ATOM     25  H   UNL     1      -1.477  -8.524  -0.050  0.00  0.00    +0.142 HD
ENDBRANCH   9  23
BRANCH  10  26
ATOM     26  C   UNL     1      -0.474  -6.736   1.111  0.00  0.00    +0.101 C 
ATOM     27  N   UNL     1       0.236  -7.300   1.795  0.00  0.00    -0.191 NA
ENDBRANCH  10  26
BRANCH   8  28
ATOM     28  C   UNL     1      -4.507  -6.121  -0.932  0.00  0.00    +0.091 C 
ATOM     29  N   UNL     1      -5.546  -6.192  -0.477  0.00  0.00    -0.194 NA
ENDBRANCH   8  28
BRANCH   8  30
ATOM     30  C   UNL     1      -3.159  -6.725  -2.818  0.00  0.00    +0.091 C 
ATOM     31  N   UNL     1      -3.157  -7.261  -3.819  0.00  0.00    -0.194 NA
ENDBRANCH   8  30
BRANCH   1  32
ATOM     32  C   UNL     1      -0.994  -0.481  -0.624  0.00  0.00    +0.084 C 
BRANCH  32  34
ATOM     33  C   UNL     1       0.568   1.434  -0.992  0.00  0.00    +0.005 C 
ATOM     34  C   UNL     1       0.472  -0.082  -0.805  0.00  0.00    +0.012 C 
ENDBRANCH  32  34
ENDBRANCH   1  32
TORSDOF 8
