REMARK  Name = ZINC57084881
REMARK  5 active torsions:
REMARK  status: ('A' for Active; 'I' for Inactive)
REMARK    1  A    between atoms: C_1  and  C_2
REMARK    2  A    between atoms: N_5  and  C_11
REMARK    3  A    between atoms: C_7  and  C_10
REMARK    4  A    between atoms: C_11  and  C_12
REMARK    5  A    between atoms: N_16  and  C_17
REMARK                            x       y       z     vdW  Elec       q    Type
REMARK                         _______ _______ _______ _____ _____    ______ ____
ROOT
ATOM      1  C   UNL     1      -2.431  -4.052  -0.257  0.00  0.00    +0.124 A 
ATOM      2  C   UNL     1      -2.555  -5.058   0.645  0.00  0.00    +0.289 A 
ATOM      3  N   UNL     1      -2.804  -6.171  -0.059  0.00  0.00    -0.224 N 
ATOM      4  N   UNL     1      -2.833  -5.879  -1.311  0.00  0.00    -0.083 NA
ATOM      5  N   UNL     1      -2.621  -4.621  -1.483  0.00  0.00    -0.214 N 
ATOM      6  O   UNL     1      -2.448  -4.957   1.998  0.00  0.00    -0.264 OA
ATOM      7  H   UNL     1      -2.940  -7.055   0.316  0.00  0.00    +0.194 HD
ENDROOT
BRANCH   5   8
ATOM      8  C   UNL     1      -2.588  -3.953  -2.715  0.00  0.00    +0.067 A 
ATOM      9  C   UNL     1      -3.224  -2.727  -2.858  0.00  0.00    +0.028 A 
ATOM     10  C   UNL     1      -3.190  -2.071  -4.073  0.00  0.00    +0.002 A 
ATOM     11  C   UNL     1      -2.524  -2.634  -5.146  0.00  0.00    +0.000 A 
ATOM     12  C   UNL     1      -1.890  -3.855  -5.007  0.00  0.00    +0.002 A 
ATOM     13  C   UNL     1      -1.916  -4.513  -3.792  0.00  0.00    +0.028 A 
ENDBRANCH   5   8
BRANCH   1  14
ATOM     14  C   UNL     1      -2.148  -2.601   0.035  0.00  0.00    +0.145 C 
BRANCH  14  18
ATOM     15  C   UNL     1       1.359   0.820  -0.440  0.00  0.00    +0.039 C 
ATOM     16  C   UNL     1       1.061  -0.681  -0.422  0.00  0.00    +0.130 C 
ATOM     17  C   UNL     1      -0.439  -0.901  -0.208  0.00  0.00    +0.116 C 
ATOM     18  N   UNL     1      -0.709  -2.343  -0.114  0.00  0.00    -0.292 NA
ATOM     19  C   UNL     1       0.051  -2.944   0.991  0.00  0.00    +0.116 C 
ATOM     20  C   UNL     1       1.546  -2.704   0.766  0.00  0.00    +0.130 C 
ATOM     21  O   UNL     1       1.786  -1.299   0.645  0.00  0.00    -0.371 OA
ATOM     22  C   UNL     1       1.989  -3.410  -0.517  0.00  0.00    +0.039 C 
ENDBRANCH  14  18
ENDBRANCH   1  14
TORSDOF 3
