REMARK  Name = ZINC06938614
REMARK  8 active torsions:
REMARK  status: ('A' for Active; 'I' for Inactive)
REMARK    1  A    between atoms: C_1  and  C_2
REMARK    2  A    between atoms: C_7  and  S_8
REMARK    3  A    between atoms: S_8  and  N_11
REMARK    4  A    between atoms: N_11  and  C_12
REMARK    5  A    between atoms: N_11  and  C_19
REMARK    6  A    between atoms: C_12  and  C_13
REMARK    7  A    between atoms: C_19  and  C_20
REMARK    8  A    between atoms: C_19  and  C_21
REMARK                            x       y       z     vdW  Elec       q    Type
REMARK                         _______ _______ _______ _____ _____    ______ ____
ROOT
ATOM      1  C   UNL     1      -0.454   0.268   0.209  0.00  0.00    +0.046 C 
ATOM      2  C   UNL     1       0.013  -1.147   0.435  0.00  0.00    -0.022 A 
ATOM      3  C   UNL     1       0.083  -2.025  -0.627  0.00  0.00    +0.033 A 
ATOM      4  C   UNL     1       0.514  -3.331  -0.423  0.00  0.00    +0.066 A 
ATOM      5  C   UNL     1       0.875  -3.748   0.860  0.00  0.00    +0.068 A 
ATOM      6  C   UNL     1       0.801  -2.854   1.922  0.00  0.00    +0.056 A 
ATOM      7  C   UNL     1       0.377  -1.558   1.706  0.00  0.00    +0.110 A 
ATOM      8  N   UNL     1       1.308  -5.052   1.085  0.00  0.00    -0.316 N 
ATOM      9  H   UNL     1       1.557  -5.332   1.980  0.00  0.00    +0.169 HD
ATOM     10  C   UNL     1       1.383  -5.926   0.061  0.00  0.00    +0.314 A 
ATOM     11  O   UNL     1       1.760  -7.064   0.253  0.00  0.00    -0.262 OA
ATOM     12  C   UNL     1       0.997  -5.480  -1.309  0.00  0.00    +0.314 A 
ATOM     13  O   UNL     1       1.058  -6.253  -2.245  0.00  0.00    -0.262 OA
ATOM     14  N   UNL     1       0.581  -4.212  -1.498  0.00  0.00    -0.316 N 
ATOM     15  H   UNL     1       0.327  -3.913  -2.386  0.00  0.00    +0.169 HD
ENDROOT
BRANCH   7  16
ATOM     16  S   UNL     1       0.292  -0.426   3.053  0.00  0.00    +0.062 S 
ATOM     17  O   UNL     1      -0.985   0.195   2.981  0.00  0.00    -0.153 OA
ATOM     18  O   UNL     1       0.732  -1.132   4.205  0.00  0.00    -0.153 OA
BRANCH  16  19
ATOM     19  N   UNL     1       1.412   0.760   2.768  0.00  0.00    -0.170 NA
BRANCH  19  20
ATOM     20  C   UNL     1       2.823   0.526   3.084  0.00  0.00    +0.074 C 
ATOM     21  C   UNL     1       3.677   0.810   1.847  0.00  0.00    +0.025 C 
ATOM     22  C   UNL     1       3.251   1.453   4.223  0.00  0.00    +0.025 C 
ENDBRANCH  19  20
BRANCH  19  23
ATOM     23  C   UNL     1       0.991   2.043   2.199  0.00  0.00    +0.144 C 
BRANCH  23  24
ATOM     24  C   UNL     1       0.751   3.031   3.312  0.00  0.00    -0.032 A 
ATOM     25  C   UNL     1      -0.451   3.026   3.994  0.00  0.00    +0.005 A 
ATOM     26  C   UNL     1      -0.671   3.932   5.014  0.00  0.00    +0.000 A 
ATOM     27  C   UNL     1       0.312   4.843   5.353  0.00  0.00    +0.000 A 
ATOM     28  C   UNL     1       1.515   4.847   4.672  0.00  0.00    +0.000 A 
ATOM     29  C   UNL     1       1.736   3.938   3.655  0.00  0.00    +0.005 A 
ENDBRANCH  23  24
ENDBRANCH  19  23
ENDBRANCH  16  19
ENDBRANCH   7  16
TORSDOF 5
