REMARK  Name = ZINC04323506
REMARK  6 active torsions:
REMARK  status: ('A' for Active; 'I' for Inactive)
REMARK    1  A    between atoms: C_1  and  C_2
REMARK    2  A    between atoms: C_5  and  N_9
REMARK    3  A    between atoms: N_9  and  C_10
REMARK    4  A    between atoms: C_10  and  N_12
REMARK    5  A    between atoms: N_12  and  C_13
REMARK    6  A    between atoms: C_18  and  N_19
REMARK                            x       y       z     vdW  Elec       q    Type
REMARK                         _______ _______ _______ _____ _____    ______ ____
ROOT
ATOM      1  C   UNL     1      -0.037   1.904  -0.785  0.00  0.00    +0.139 C 
ATOM      2  S   UNL     1       0.037   0.399  -1.599  0.00  0.00    -0.018 S 
ENDROOT
BRANCH   1   3
ATOM      3  N   UNL     1       1.097   2.574  -0.502  0.00  0.00    -0.297 N 
ATOM      4  H   UNL     1       1.052   3.453  -0.096  0.00  0.00    +0.154 HD
BRANCH   3   9
ATOM      5  C   UNL     1       6.137   0.249  -1.680  0.00  0.00    +0.045 C 
ATOM      6  C   UNL     1       4.798   0.867  -1.367  0.00  0.00    -0.032 A 
ATOM      7  C   UNL     1       4.586   1.470  -0.141  0.00  0.00    +0.006 A 
ATOM      8  C   UNL     1       3.362   2.041   0.147  0.00  0.00    +0.023 A 
ATOM      9  C   UNL     1       2.339   2.000  -0.793  0.00  0.00    +0.034 A 
ATOM     10  C   UNL     1       2.554   1.394  -2.023  0.00  0.00    +0.043 A 
ATOM     11  C   UNL     1       3.783   0.829  -2.308  0.00  0.00    +0.046 A 
ATOM     12 CL   UNL     1       4.054   0.070  -3.845  0.00  0.00    -0.083 Cl
ENDBRANCH   3   9
ENDBRANCH   1   3
BRANCH   1  13
ATOM     13  N   UNL     1      -1.231   2.420  -0.433  0.00  0.00    -0.295 N 
ATOM     14  H   UNL     1      -1.275   3.285   0.005  0.00  0.00    +0.154 HD
BRANCH  13  15
ATOM     15  C   UNL     1      -2.407   1.710  -0.698  0.00  0.00    +0.063 A 
ATOM     16  C   UNL     1      -2.458   0.340  -0.475  0.00  0.00    +0.027 A 
ATOM     17  C   UNL     1      -3.619  -0.359  -0.738  0.00  0.00    +0.022 A 
ATOM     18  C   UNL     1      -4.733   0.305  -1.223  0.00  0.00    +0.043 A 
ATOM     19  C   UNL     1      -4.685   1.670  -1.446  0.00  0.00    +0.054 A 
ATOM     20  C   UNL     1      -3.527   2.374  -1.180  0.00  0.00    +0.149 A 
ATOM     21 CL   UNL     1      -6.192  -0.577  -1.553  0.00  0.00    -0.083 Cl
BRANCH  20  22
ATOM     22  N   UNL     1      -3.479   3.835  -1.413  0.00  0.00    +0.058 N 
ATOM     23  O   UNL     1      -4.482   4.429  -1.767  0.00  0.00    -0.126 OA
ATOM     24  O   UNL     1      -2.436   4.444  -1.251  0.00  0.00    -0.126 OA
ENDBRANCH  20  22
ENDBRANCH  13  15
ENDBRANCH   1  13
TORSDOF 5
