REMARK  Name = ZINC46907034
REMARK  8 active torsions:
REMARK  status: ('A' for Active; 'I' for Inactive)
REMARK    1  A    between atoms: C_1  and  C_2
REMARK    2  A    between atoms: C_4  and  C_8
REMARK    3  A    between atoms: C_5  and  C_7
REMARK    4  A    between atoms: N_10  and  N_11
REMARK    5  A    between atoms: N_14  and  C_15
REMARK    6  A    between atoms: C_22  and  C_26
REMARK    7  A    between atoms: C_23  and  C_24
REMARK    8  A    between atoms: C_23  and  C_25
REMARK                            x       y       z     vdW  Elec       q    Type
REMARK                         _______ _______ _______ _____ _____    ______ ____
ROOT
ATOM      1  N   UNL     1      -3.414  -4.449  -0.060  0.00  0.00    -0.218 N 
ATOM      2  C   UNL     1      -4.761  -4.409  -0.063  0.00  0.00    +0.316 C 
ATOM      3  O   UNL     1      -5.400  -5.431  -0.222  0.00  0.00    -0.251 OA
ATOM      4  N   UNL     1      -5.401  -3.235   0.111  0.00  0.00    -0.295 N 
ATOM      5  H   UNL     1      -2.954  -5.294  -0.185  0.00  0.00    +0.174 HD
ATOM      6  H   UNL     1      -4.891  -2.419   0.238  0.00  0.00    +0.151 HD
ENDROOT
BRANCH   4   7
ATOM      7  C   UNL     1      -6.865  -3.191   0.108  0.00  0.00    +0.081 C 
ATOM      8  C   UNL     1      -7.400  -3.148  -1.342  0.00  0.00    +0.027 C 
ATOM      9  C   UNL     1      -8.178  -1.800  -1.435  0.00  0.00    -0.003 C 
ATOM     10  C   UNL     1      -9.456  -2.026  -0.571  0.00  0.00    +0.005 C 
ATOM     11  C   UNL     1      -8.939  -2.079   0.885  0.00  0.00    +0.009 C 
ATOM     12  C   UNL     1      -7.370  -1.866   0.757  0.00  0.00    -0.008 C 
ATOM     13  C   UNL     1      -7.314  -0.900  -0.483  0.00  0.00    -0.025 C 
ATOM     14  C   UNL     1      -7.989   0.443  -0.194  0.00  0.00    +0.012 C 
ATOM     15  C   UNL     1      -5.888  -0.717  -1.004  0.00  0.00    +0.012 C 
ATOM     16  C   UNL     1      -6.635  -1.417   2.021  0.00  0.00    +0.013 C 
ENDBRANCH   4   7
BRANCH   1  19
ATOM     17  C   UNL     1      -1.331  -3.312   0.126  0.00  0.00    +0.263 C 
ATOM     18  O   UNL     1      -0.755  -4.370  -0.031  0.00  0.00    -0.269 OA
ATOM     19  N   UNL     1      -2.679  -3.271   0.123  0.00  0.00    -0.229 N 
ATOM     20  H   UNL     1      -3.139  -2.426   0.248  0.00  0.00    +0.173 HD
BRANCH  17  24
ATOM     21  C   UNL     1      -0.060   1.572   0.875  0.00  0.00    +0.086 C 
ATOM     22  C   UNL     1      -0.017   0.083   0.650  0.00  0.00    +0.103 A 
ATOM     23  C   UNL     1      -1.087  -0.716   0.522  0.00  0.00    +0.057 A 
ATOM     24  C   UNL     1      -0.557  -2.072   0.319  0.00  0.00    +0.079 A 
ATOM     25  C   UNL     1       0.800  -1.944   0.347  0.00  0.00    +0.114 A 
ATOM     26  O   UNL     1       1.099  -0.655   0.538  0.00  0.00    -0.464 OA
ATOM     27  C   UNL     1       1.795  -3.064   0.183  0.00  0.00    +0.087 C 
ENDBRANCH  17  24
ENDBRANCH   1  19
TORSDOF 3
