REMARK  Name = ZINC36536334
REMARK  17 active torsions:
REMARK  status: ('A' for Active; 'I' for Inactive)
REMARK    1  A    between atoms: C_1  and  C_2
REMARK    2  A    between atoms: C_2  and  C_3
REMARK    3  A    between atoms: C_2  and  C_4
REMARK    4  A    between atoms: C_2  and  C_5
REMARK    5  A    between atoms: C_5  and  C_6
REMARK    6  A    between atoms: C_6  and  C_7
REMARK    7  A    between atoms: C_6  and  C_8
REMARK    8  A    between atoms: C_6  and  N_9
REMARK    9  A    between atoms: C_10  and  C_12
REMARK   10  A    between atoms: C_12  and  C_14
REMARK   11  A    between atoms: C_12  and  N_23
REMARK   12  A    between atoms: C_15  and  O_22
REMARK   13  A    between atoms: C_17  and  O_21
REMARK   14  A    between atoms: C_19  and  O_20
REMARK   15  A    between atoms: N_23  and  C_24
REMARK   16  A    between atoms: C_25  and  C_27
REMARK   17  A    between atoms: C_27  and  O_28
REMARK                            x       y       z     vdW  Elec       q    Type
REMARK                         _______ _______ _______ _____ _____    ______ ____
ROOT
ATOM      1  C   UNL     1       5.184  -0.490  -4.401  0.00  0.00    +0.199 C 
ENDROOT
BRANCH   1   2
ATOM      2  C   UNL     1       4.831   0.627  -5.349  0.00  0.00    +0.065 A 
ATOM      3  C   UNL     1       5.315   0.613  -6.649  0.00  0.00    +0.129 A 
ATOM      4  C   UNL     1       4.990   1.641  -7.521  0.00  0.00    +0.091 A 
ATOM      5  C   UNL     1       4.182   2.683  -7.094  0.00  0.00    +0.124 A 
ATOM      6  C   UNL     1       3.698   2.698  -5.795  0.00  0.00    +0.091 A 
ATOM      7  C   UNL     1       4.019   1.667  -4.924  0.00  0.00    +0.129 A 
BRANCH   7   8
ATOM      8  O   UNL     1       3.541   1.679  -3.652  0.00  0.00    -0.506 OA
ATOM      9  H   UNL     1       4.115   2.132  -3.019  0.00  0.00    +0.292 HD
ENDBRANCH   7   8
BRANCH   5  10
ATOM     10  O   UNL     1       3.865   3.691  -7.949  0.00  0.00    -0.507 OA
ATOM     11  H   UNL     1       3.058   3.536  -8.458  0.00  0.00    +0.292 HD
ENDBRANCH   5  10
BRANCH   3  12
ATOM     12  O   UNL     1       6.107  -0.409  -7.068  0.00  0.00    -0.506 OA
ATOM     13  H   UNL     1       5.628  -1.118  -7.519  0.00  0.00    +0.292 HD
ENDBRANCH   3  12
ENDBRANCH   1   2
BRANCH   1  15
ATOM     14  N   UNL     1       2.998  -1.037  -3.382  0.00  0.00    -0.308 N 
ATOM     15  C   UNL     1       4.221  -0.488  -3.242  0.00  0.00    +0.239 C 
ATOM     16  O   UNL     1       4.546   0.008  -2.184  0.00  0.00    -0.273 OA
ATOM     17  H   UNL     1       2.738  -1.434  -4.228  0.00  0.00    +0.149 HD
BRANCH  14  18
ATOM     18  C   UNL     1       2.062  -1.036  -2.255  0.00  0.00    +0.030 C 
ATOM     19  C   UNL     1       1.918   0.388  -1.713  0.00  0.00    +0.031 C 
ATOM     20  C   UNL     1       2.592  -1.951  -1.149  0.00  0.00    +0.031 C 
BRANCH  18  21
ATOM     21  C   UNL     1       0.697  -1.542  -2.725  0.00  0.00    +0.031 C 
BRANCH  21  23
ATOM     22  C   UNL     1       1.092  -1.658  -5.189  0.00  0.00    +0.010 C 
ATOM     23  C   UNL     1       0.356  -0.910  -4.076  0.00  0.00    -0.036 C 
ATOM     24  C   UNL     1       0.788   0.558  -4.076  0.00  0.00    +0.010 C 
ATOM     25  C   UNL     1      -1.153  -0.997  -4.314  0.00  0.00    +0.010 C 
ENDBRANCH  21  23
ENDBRANCH  18  21
ENDBRANCH  14  18
ENDBRANCH   1  15
BRANCH   1  26
ATOM     26  N   UNL     1       6.548  -0.295  -3.903  0.00  0.00    -0.287 N 
ATOM     27  C   UNL     1       7.561  -1.331  -4.119  0.00  0.00    +0.133 C 
ATOM     28  C   UNL     1       6.870   0.837  -3.247  0.00  0.00    +0.242 C 
ATOM     29  O   UNL     1       6.019   1.670  -3.020  0.00  0.00    -0.273 OA
BRANCH  28  30
ATOM     30  C   UNL     1       8.290   1.067  -2.795  0.00  0.00    +0.251 C 
BRANCH  30  31
ATOM     31  O   UNL     1       8.378   2.328  -2.128  0.00  0.00    -0.386 OA
ATOM     32  H   UNL     1       9.265   2.543  -1.809  0.00  0.00    +0.210 HD
ENDBRANCH  30  31
ENDBRANCH  28  30
ENDBRANCH   1  26
TORSDOF 11
