REMARK  Name = ZINC58014090
REMARK  3 active torsions:
REMARK  status: ('A' for Active; 'I' for Inactive)
REMARK    1  A    between atoms: C_3  and  N_11
REMARK    2  A    between atoms: C_4  and  C_8
REMARK    3  A    between atoms: C_6  and  N_7
REMARK                            x       y       z     vdW  Elec       q    Type
REMARK                         _______ _______ _______ _____ _____    ______ ____
ROOT
ATOM      1  C   UNL     1       0.089   1.546  -0.025  0.00  0.00    +0.024 A 
ATOM      2  C   UNL     1       1.360   2.085  -0.096  0.00  0.00    +0.024 A 
ATOM      3  C   UNL     1       2.466   1.260  -0.078  0.00  0.00    +0.028 A 
ATOM      4  C   UNL     1       2.303  -0.125   0.013  0.00  0.00    +0.084 A 
ATOM      5  C   UNL     1       1.019  -0.668   0.085  0.00  0.00    +0.039 A 
ATOM      6  C   UNL     1      -0.085   0.170   0.066  0.00  0.00    +0.025 A 
ENDROOT
BRANCH   3   7
ATOM      7  N   UNL     1       3.749   1.809  -0.151  0.00  0.00    -0.393 NA
ATOM      8  C   UNL     1       3.940   2.749   0.960  0.00  0.00    +0.085 C 
ATOM      9  C   UNL     1       5.367   3.304   0.932  0.00  0.00    +0.021 C 
ATOM     10  C   UNL     1       5.596   4.023  -0.399  0.00  0.00    -0.005 C 
ATOM     11  C   UNL     1       7.036   4.528  -0.484  0.00  0.00    +0.004 C 
ATOM     12  C   UNL     1       7.240   5.248  -1.819  0.00  0.00    +0.000 C 
ATOM     13  C   UNL     1       6.964   4.282  -2.973  0.00  0.00    +0.000 C 
ATOM     14  C   UNL     1       5.527   3.764  -2.880  0.00  0.00    +0.005 C 
ATOM     15  C   UNL     1       5.336   3.042  -1.546  0.00  0.00    +0.008 C 
ATOM     16  C   UNL     1       3.909   2.506  -1.434  0.00  0.00    +0.088 C 
ATOM     17  H   UNL     1       4.434   1.071  -0.083  0.00  0.00    +0.126 HD
ENDBRANCH   3   7
BRANCH   6  18
ATOM     18  N   UNL     1      -1.373  -0.368   0.138  0.00  0.00    -0.358 N 
ATOM     19  H   UNL     1      -2.145   0.219   0.124  0.00  0.00    +0.142 HD
ATOM     20  H   UNL     1      -1.494  -1.328   0.201  0.00  0.00    +0.142 HD
ENDBRANCH   6  18
BRANCH   4  21
ATOM     21  C   UNL     1       3.483  -1.010   0.032  0.00  0.00    +0.388 C 
ATOM     22  O   UNL     1       3.600  -1.891  -0.808  0.00  0.00    -0.241 OA
ATOM     23  O   UNL     1       4.344  -0.863   0.888  0.00  0.00    -0.241 OA
ENDBRANCH   4  21
TORSDOF 3
