REMARK  Name = ZINC12727607
REMARK  7 active torsions:
REMARK  status: ('A' for Active; 'I' for Inactive)
REMARK    1  A    between atoms: C_1  and  C_2
REMARK    2  A    between atoms: C_7  and  N_8
REMARK    3  A    between atoms: C_9  and  C_11
REMARK    4  A    between atoms: C_11  and  C_12
REMARK    5  A    between atoms: C_12  and  C_13
REMARK    6  A    between atoms: C_13  and  C_14
REMARK    7  A    between atoms: C_14  and  C_15
REMARK                            x       y       z     vdW  Elec       q    Type
REMARK                         _______ _______ _______ _____ _____    ______ ____
ROOT
ATOM      1  C   UNL     1       5.688   2.089   4.857  0.00  0.00    +0.002 C 
ENDROOT
BRANCH   1   2
ATOM      2  C   UNL     1       4.163   2.217   4.872  0.00  0.00    +0.009 C 
BRANCH   2   3
ATOM      3  C   UNL     1       3.602   1.790   3.514  0.00  0.00    +0.096 C 
BRANCH   3   5
ATOM      4  N   UNL     1       1.386   1.592   2.433  0.00  0.00    -0.285 N 
ATOM      5  C   UNL     1       2.100   1.915   3.530  0.00  0.00    +0.217 C 
ATOM      6  O   UNL     1       1.535   2.308   4.528  0.00  0.00    -0.275 OA
ATOM      7  H   UNL     1       1.831   1.217   1.658  0.00  0.00    +0.155 HD
BRANCH   4  14
ATOM      8  C   UNL     1       0.174   2.358  -0.024  0.00  0.00    +0.046 C 
ATOM      9  C   UNL     1      -0.630   2.171   1.236  0.00  0.00    -0.028 A 
ATOM     10  C   UNL     1      -1.996   2.377   1.222  0.00  0.00    +0.020 A 
ATOM     11  C   UNL     1      -2.736   2.202   2.377  0.00  0.00    +0.018 A 
ATOM     12  C   UNL     1      -2.108   1.829   3.553  0.00  0.00    +0.017 A 
ATOM     13  C   UNL     1      -0.743   1.626   3.575  0.00  0.00    +0.024 A 
ATOM     14  C   UNL     1       0.002   1.797   2.415  0.00  0.00    +0.036 A 
ATOM     15 BR   UNL     1      -4.606   2.479   2.352  0.00  0.00    -0.050 Br
ENDBRANCH   4  14
ENDBRANCH   3   5
ENDBRANCH   2   3
ENDBRANCH   1   2
BRANCH   1  16
ATOM     16  C   UNL     1       6.249   2.516   6.215  0.00  0.00    +0.028 C 
BRANCH  16  17
ATOM     17  C   UNL     1       7.774   2.389   6.199  0.00  0.00    +0.152 C 
ATOM     18  C   UNL     1       8.388   2.928   7.509  0.00  0.00    +0.120 C 
ATOM     19  C   UNL     1       9.563   2.093   8.027  0.00  0.00    +0.117 C 
ATOM     20  C   UNL     1       9.907   0.883   7.131  0.00  0.00    +0.190 C 
ATOM     21  S   UNL     1       8.291   0.618   6.256  0.00  0.00    -0.025 S 
ATOM     22  O   UNL     1       7.397  -0.107   7.088  0.00  0.00    -0.174 OA
ATOM     23  O   UNL     1       8.554   0.163   4.936  0.00  0.00    -0.174 OA
ATOM     24  N   UNL     1      10.699   3.028   8.014  0.00  0.00    -0.293 N 
ATOM     25  C   UNL     1      10.279   4.219   7.566  0.00  0.00    +0.300 C 
ATOM     26  O   UNL     1      11.013   5.182   7.452  0.00  0.00    -0.253 OA
ATOM     27  N   UNL     1       8.985   4.248   7.253  0.00  0.00    -0.293 N 
ATOM     28  H   UNL     1      11.606   2.817   8.286  0.00  0.00    +0.151 HD
ATOM     29  H   UNL     1       8.512   5.023   6.910  0.00  0.00    +0.151 HD
ENDBRANCH  16  17
ENDBRANCH   1  16
TORSDOF 6
