REMARK  Name = ZINC03342753
REMARK  14 active torsions:
REMARK  status: ('A' for Active; 'I' for Inactive)
REMARK    1  A    between atoms: C_1  and  C_2
REMARK    2  A    between atoms: C_3  and  C_24
REMARK    3  A    between atoms: C_4  and  N_10
REMARK    4  A    between atoms: C_6  and  C_7
REMARK    5  A    between atoms: C_11  and  C_13
REMARK    6  A    between atoms: C_13  and  N_14
REMARK    7  A    between atoms: N_14  and  C_15
REMARK    8  A    between atoms: C_18  and  O_22
REMARK    9  A    between atoms: O_22  and  C_23
REMARK   10  A    between atoms: C_24  and  O_26
REMARK   11  A    between atoms: O_26  and  C_27
REMARK   12  A    between atoms: C_27  and  C_28
REMARK   13  A    between atoms: C_28  and  O_29
REMARK   14  A    between atoms: O_29  and  C_30
REMARK                            x       y       z     vdW  Elec       q    Type
REMARK                         _______ _______ _______ _____ _____    ______ ____
ROOT
ATOM      1  C   UNL     1     -10.944   5.023   0.134  0.00  0.00    +0.046 C 
ATOM      2  C   UNL     1      -9.453   5.239   0.121  0.00  0.00    -0.015 A 
ATOM      3  C   UNL     1      -8.572   4.168   0.106  0.00  0.00    +0.091 A 
ATOM      4  C   UNL     1      -7.202   4.452   0.095  0.00  0.00    +0.087 A 
ATOM      5  S   UNL     1      -7.166   6.185   0.111  0.00  0.00    -0.068 S 
ATOM      6  C   UNL     1      -8.920   6.500   0.124  0.00  0.00    +0.079 A 
ENDROOT
BRANCH   6   7
ATOM      7  C   UNL     1      -9.618   7.787   0.139  0.00  0.00    +0.248 C 
ATOM      8  O   UNL     1     -10.835   7.820   0.151  0.00  0.00    -0.270 OA
ATOM      9  N   UNL     1      -8.913   8.936   0.139  0.00  0.00    -0.325 N 
ATOM     10  H   UNL     1      -7.944   8.910   0.129  0.00  0.00    +0.145 HD
ATOM     11  H   UNL     1      -9.375   9.788   0.148  0.00  0.00    +0.145 HD
ENDBRANCH   6   7
BRANCH   4  12
ATOM     12  N   UNL     1      -6.140   3.569   0.080  0.00  0.00    -0.278 N 
ATOM     13  C   UNL     1      -4.876   4.035   0.070  0.00  0.00    +0.235 C 
ATOM     14  O   UNL     1      -4.670   5.230   0.075  0.00  0.00    -0.274 OA
ATOM     15  H   UNL     1      -6.304   2.613   0.076  0.00  0.00    +0.155 HD
BRANCH  13  16
ATOM     16  C   UNL     1      -3.717   3.072   0.054  0.00  0.00    +0.198 C 
BRANCH  16  17
ATOM     17  N   UNL     1      -2.459   3.821   0.046  0.00  0.00    -0.335 N 
ATOM     18  H   UNL     1      -2.472   4.791   0.051  0.00  0.00    +0.147 HD
BRANCH  17  19
ATOM     19  C   UNL     1      -1.237   3.138   0.031  0.00  0.00    +0.029 A 
ATOM     20  C   UNL     1      -1.218   1.750   0.017  0.00  0.00    +0.026 A 
ATOM     21  C   UNL     1      -0.013   1.076   0.008  0.00  0.00    +0.049 A 
ATOM     22  C   UNL     1       1.179   1.785   0.000  0.00  0.00    +0.138 A 
ATOM     23  C   UNL     1       1.161   3.173   0.008  0.00  0.00    +0.084 A 
ATOM     24  C   UNL     1      -0.044   3.849   0.023  0.00  0.00    +0.046 A 
ATOM     25 CL   UNL     1       2.654   4.060  -0.001  0.00  0.00    -0.080 Cl
BRANCH  22  26
ATOM     26  O   UNL     1       2.366   1.121  -0.015  0.00  0.00    -0.494 OA
ATOM     27  C   UNL     1       2.309  -0.307  -0.023  0.00  0.00    +0.277 C 
ENDBRANCH  22  26
ENDBRANCH  17  19
ENDBRANCH  16  17
ENDBRANCH  13  16
ENDBRANCH   4  12
BRANCH   3  28
ATOM     28  C   UNL     1      -9.060   2.784   0.102  0.00  0.00    +0.342 C 
ATOM     29  O   UNL     1      -9.252   2.204   1.154  0.00  0.00    -0.245 OA
BRANCH  28  30
ATOM     30  O   UNL     1      -9.295   2.156  -1.067  0.00  0.00    -0.459 OA
BRANCH  30  31
ATOM     31  C   UNL     1      -9.777   0.788  -0.995  0.00  0.00    +0.260 C 
BRANCH  31  32
ATOM     32  C   UNL     1      -9.985   0.245  -2.411  0.00  0.00    +0.200 C 
BRANCH  32  33
ATOM     33  O   UNL     1      -8.725   0.168  -3.081  0.00  0.00    -0.380 OA
ATOM     34  C   UNL     1      -8.808  -0.330  -4.418  0.00  0.00    +0.194 C 
ENDBRANCH  32  33
ENDBRANCH  31  32
ENDBRANCH  30  31
ENDBRANCH  28  30
ENDBRANCH   3  28
TORSDOF 11
