REMARK  Name = ZINC15004951
REMARK  5 active torsions:
REMARK  status: ('A' for Active; 'I' for Inactive)
REMARK    1  A    between atoms: C_8  and  N_56
REMARK    2  A    between atoms: C_11  and  S_22
REMARK    3  A    between atoms: C_14  and  C_16
REMARK    4  A    between atoms: N_18  and  C_19
REMARK    5  A    between atoms: S_22  and  C_23
REMARK                            x       y       z     vdW  Elec       q    Type
REMARK                         _______ _______ _______ _____ _____    ______ ____
ROOT
ATOM      1  C   UNL     1      -0.297   7.958  -1.889  0.00  0.00    -0.063 C 
ATOM      2  C   UNL     1      -0.360   7.898  -0.348  0.00  0.00    +0.037 C 
ATOM      3  C   UNL     1      -0.918   9.269   0.084  0.00  0.00    +0.006 C 
ATOM      4  C   UNL     1      -1.145  10.043  -1.232  0.00  0.00    +0.021 C 
ATOM      5  N   UNL     1      -0.233   9.396  -2.173  0.00  0.00    +0.390 N 
ATOM      6  H   UNL     1       0.723   9.742  -2.027  0.00  0.00    -0.080 HD
ENDROOT
BRANCH   5  14
ATOM      7  C   UNL     1      -1.784   7.713  -7.767  0.00  0.00    +0.000 A 
ATOM      8  C   UNL     1      -3.062   7.991  -7.320  0.00  0.00    +0.000 A 
ATOM      9  C   UNL     1      -3.254   8.490  -6.046  0.00  0.00    +0.004 A 
ATOM     10  C   UNL     1      -2.169   8.712  -5.214  0.00  0.00    -0.046 A 
ATOM     11  C   UNL     1      -0.891   8.433  -5.661  0.00  0.00    -0.046 A 
ATOM     12  C   UNL     1      -0.701   7.933  -6.938  0.00  0.00    +0.004 A 
ATOM     13  C   UNL     1       0.112   8.758  -4.575  0.00  0.00    +0.020 C 
ATOM     14  C   UNL     1      -0.644   9.670  -3.586  0.00  0.00    -0.059 C 
ATOM     15  C   UNL     1      -2.114   9.248  -3.797  0.00  0.00    +0.020 C 
ENDBRANCH   5  14
BRANCH   4  16
ATOM     16  C   UNL     1      -0.801  11.499  -1.052  0.00  0.00    +0.200 C 
ATOM     17  O   UNL     1       0.323  11.890  -1.287  0.00  0.00    -0.278 OA
ATOM     18  N   UNL     1      -1.742  12.367  -0.631  0.00  0.00    -0.314 N 
ATOM     19  H   UNL     1      -2.641  12.054  -0.443  0.00  0.00    +0.149 HD
BRANCH  18  20
ATOM     20  C   UNL     1      -1.408  13.782  -0.456  0.00  0.00    +0.073 C 
ATOM     21  C   UNL     1      -1.922  14.479   0.805  0.00  0.00    +0.024 C 
ATOM     22  C   UNL     1      -2.550  14.796  -0.554  0.00  0.00    +0.024 C 
ENDBRANCH  18  20
ENDBRANCH   4  16
BRANCH   2  23
ATOM     23  S   UNL     1      -1.470   6.571   0.184  0.00  0.00    -0.086 S 
BRANCH  23  24
ATOM     24  C   UNL     1      -0.563   5.169  -0.378  0.00  0.00    +0.167 A 
ATOM     25  N   UNL     1      -0.957   3.869  -0.232  0.00  0.00    -0.333 N 
ATOM     26  H   UNL     1      -1.797   3.549   0.206  0.00  0.00    +0.168 HD
ATOM     27  C   UNL     1       0.025   3.076  -0.803  0.00  0.00    +0.067 A 
ATOM     28  C   UNL     1       0.182   1.708  -0.965  0.00  0.00    +0.028 A 
ATOM     29  C   UNL     1       1.308   1.215  -1.592  0.00  0.00    +0.002 A 
ATOM     30  C   UNL     1       2.280   2.080  -2.072  0.00  0.00    +0.002 A 
ATOM     31  C   UNL     1       2.138   3.442  -1.925  0.00  0.00    +0.030 A 
ATOM     32  C   UNL     1       1.006   3.957  -1.288  0.00  0.00    +0.090 A 
ATOM     33  N   UNL     1       0.590   5.218  -0.999  0.00  0.00    -0.222 NA
ENDBRANCH  23  24
ENDBRANCH   2  23
TORSDOF 5
