REMARK  Name = ZINC06721284
REMARK  2 active torsions:
REMARK  status: ('A' for Active; 'I' for Inactive)
REMARK    1  A    between atoms: C_6  and  C_7
REMARK    2  A    between atoms: C_17  and  C_19
REMARK                            x       y       z     vdW  Elec       q    Type
REMARK                         _______ _______ _______ _____ _____    ______ ____
ROOT
ATOM      1  C   UNL     1      -1.181  -0.891   0.009  0.00  0.00    +0.129 A 
ATOM      2  N   UNL     1      -2.455  -0.565   0.018  0.00  0.00    -0.237 NA
ATOM      3  C   UNL     1      -3.437  -1.487   0.022  0.00  0.00    +0.080 A 
ATOM      4  C   UNL     1      -4.835  -1.274   0.031  0.00  0.00    +0.046 A 
ATOM      5  C   UNL     1      -5.696  -2.331   0.035  0.00  0.00    +0.042 A 
ATOM      6  C   UNL     1      -5.272  -3.686   0.030  0.00  0.00    +0.080 A 
ATOM      7  C   UNL     1      -3.874  -3.899   0.022  0.00  0.00    +0.046 A 
ATOM      8  C   UNL     1      -3.014  -2.841   0.018  0.00  0.00    +0.042 A 
ATOM      9  S   UNL     1      -1.242  -2.676   0.000  0.00  0.00    -0.066 S 
ATOM     10  N   UNL     1      -6.254  -4.607   0.034  0.00  0.00    -0.237 NA
ATOM     11  C   UNL     1      -7.529  -4.281   0.042  0.00  0.00    +0.127 A 
ATOM     12  S   UNL     1      -7.467  -2.495   0.044  0.00  0.00    -0.066 S 
ENDROOT
BRANCH   1  18
ATOM     13  C   UNL     1      -0.017   1.406   0.010  0.00  0.00    +0.051 A 
ATOM     14  C   UNL     1       1.262   1.837  -0.000  0.00  0.00    +0.105 A 
ATOM     15  N   UNL     1       2.069   0.754  -0.014  0.00  0.00    -0.284 N 
ATOM     16  H   UNL     1       3.039   0.766  -0.022  0.00  0.00    +0.188 HD
ATOM     17  N   UNL     1       1.262  -0.391  -0.012  0.00  0.00    -0.172 NA
ATOM     18  C   UNL     1       0.002  -0.004   0.002  0.00  0.00    +0.117 A 
ENDBRANCH   1  18
BRANCH  11  19
ATOM     19  C   UNL     1      -8.708  -5.164   0.046  0.00  0.00    +0.091 A 
ATOM     20  C   UNL     1     -10.029  -4.767   0.048  0.00  0.00    +0.051 A 
ATOM     21  C   UNL     1     -10.816  -5.917   0.052  0.00  0.00    +0.135 A 
ATOM     22  N   UNL     1     -10.030  -6.964   0.052  0.00  0.00    -0.182 NA
ATOM     23  N   UNL     1      -8.699  -6.529   0.043  0.00  0.00    -0.275 N 
ATOM     24  H   UNL     1      -7.912  -7.096   0.037  0.00  0.00    +0.189 HD
ENDBRANCH  11  19
TORSDOF 2
