REMARK  Name = ZINC42139589
REMARK  8 active torsions:
REMARK  status: ('A' for Active; 'I' for Inactive)
REMARK    1  A    between atoms: C_1  and  C_2
REMARK    2  A    between atoms: C_5  and  C_19
REMARK    3  A    between atoms: C_6  and  O_8
REMARK    4  A    between atoms: O_8  and  C_9
REMARK    5  A    between atoms: C_10  and  C_16
REMARK    6  A    between atoms: C_12  and  N_15
REMARK    7  A    between atoms: C_19  and  C_20
REMARK    8  A    between atoms: C_19  and  C_21
REMARK                            x       y       z     vdW  Elec       q    Type
REMARK                         _______ _______ _______ _____ _____    ______ ____
ROOT
ATOM      1  C   UNL     1       1.238  -3.265   2.794  0.00  0.00    +0.233 A 
ATOM      2  C   UNL     1       1.278  -4.074   3.939  0.00  0.00    +0.100 A 
ATOM      3  C   UNL     1       2.512  -4.570   4.373  0.00  0.00    +0.042 A 
ATOM      4  C   UNL     1       3.648  -4.238   3.645  0.00  0.00    +0.044 A 
ATOM      5  C   UNL     1       3.523  -3.431   2.521  0.00  0.00    +0.137 A 
ATOM      6  N   UNL     1       2.346  -2.981   2.132  0.00  0.00    -0.219 NA
ENDROOT
BRANCH   2   7
ATOM      7  C   UNL     1       0.040  -4.395   4.675  0.00  0.00    +0.247 C 
ATOM      8  O   UNL     1      -1.027  -3.958   4.289  0.00  0.00    -0.270 OA
ATOM      9  N   UNL     1       0.091  -5.173   5.774  0.00  0.00    -0.325 N 
ATOM     10  H   UNL     1       0.943  -5.522   6.082  0.00  0.00    +0.145 HD
ATOM     11  H   UNL     1      -0.723  -5.385   6.257  0.00  0.00    +0.145 HD
ENDBRANCH   2   7
BRANCH   4  12
ATOM     12  N   UNL     1       4.905  -4.710   4.041  0.00  0.00    -0.357 N 
ATOM     13  H   UNL     1       4.986  -5.273   4.827  0.00  0.00    +0.142 HD
ATOM     14  H   UNL     1       5.695  -4.475   3.529  0.00  0.00    +0.142 HD
ENDBRANCH   4  12
BRANCH   1  15
ATOM     15  O   UNL     1       0.051  -2.776   2.358  0.00  0.00    -0.437 OA
BRANCH  15  21
ATOM     16  C   UNL     1       0.243   1.510   0.029  0.00  0.00    +0.044 C 
ATOM     17  C   UNL     1       0.129   0.007   0.016  0.00  0.00    -0.047 A 
ATOM     18  C   UNL     1       0.010  -0.666  -1.187  0.00  0.00    +0.004 A 
ATOM     19  C   UNL     1      -0.094  -2.044  -1.203  0.00  0.00    +0.008 A 
ATOM     20  C   UNL     1      -0.081  -2.753  -0.017  0.00  0.00    -0.002 A 
ATOM     21  C   UNL     1       0.038  -2.081   1.191  0.00  0.00    +0.134 A 
ATOM     22  C   UNL     1       0.148  -0.697   1.204  0.00  0.00    +0.050 A 
BRANCH  20  23
ATOM     23  C   UNL     1      -0.196  -4.256  -0.035  0.00  0.00    +0.016 C 
ATOM     24  C   UNL     1      -1.518  -4.658  -0.691  0.00  0.00    +0.012 C 
ATOM     25  C   UNL     1       0.970  -4.847  -0.832  0.00  0.00    +0.012 C 
ENDBRANCH  20  23
ENDBRANCH  15  21
ENDBRANCH   1  15
TORSDOF 5
