REMARK  Name = ZINC00027804
REMARK  5 active torsions:
REMARK  status: ('A' for Active; 'I' for Inactive)
REMARK    1  A    between atoms: C_1  and  O_2
REMARK    2  A    between atoms: O_2  and  C_3
REMARK    3  A    between atoms: C_8  and  C_9
REMARK    4  A    between atoms: N_10  and  N_11
REMARK    5  A    between atoms: C_12  and  C_14
REMARK                            x       y       z     vdW  Elec       q    Type
REMARK                         _______ _______ _______ _____ _____    ______ ____
ROOT
ATOM      1  N   UNL     1       2.413  -4.185  -0.043  0.00  0.00    -0.202 N 
ATOM      2  C   UNL     1       3.592  -4.837  -0.057  0.00  0.00    +0.288 C 
ATOM      3  O   UNL     1       4.634  -4.210  -0.064  0.00  0.00    -0.267 OA
ATOM      4  H   UNL     1       1.582  -4.686  -0.037  0.00  0.00    +0.178 HD
ENDROOT
BRANCH   2   5
ATOM      5  C   UNL     1       3.620  -6.317  -0.065  0.00  0.00    +0.211 A 
ATOM      6  C   UNL     1       4.793  -7.222  -0.081  0.00  0.00    +0.193 A 
ATOM      7  N   UNL     1       4.235  -8.411  -0.081  0.00  0.00    -0.033 NA
ATOM      8  O   UNL     1       3.033  -8.292  -0.068  0.00  0.00    -0.240 OA
ATOM      9  N   UNL     1       2.610  -7.160  -0.053  0.00  0.00    -0.042 NA
ATOM     10  N   UNL     1       6.141  -6.896  -0.092  0.00  0.00    -0.339 N 
ATOM     11  H   UNL     1       6.415  -5.965  -0.090  0.00  0.00    +0.144 HD
ATOM     12  H   UNL     1       6.811  -7.598  -0.102  0.00  0.00    +0.144 HD
ENDBRANCH   2   5
BRANCH   1  14
ATOM     13  C   UNL     1       1.250  -2.157  -0.021  0.00  0.00    +0.142 C 
ATOM     14  N   UNL     1       2.387  -2.785  -0.035  0.00  0.00    -0.187 NA
BRANCH  13  20
ATOM     15  C   UNL     1       2.421   0.044  -0.021  0.00  0.00    +0.129 A 
ATOM     16  C   UNL     1       2.384   1.429  -0.013  0.00  0.00    +0.047 A 
ATOM     17  C   UNL     1       1.170   2.090   0.002  0.00  0.00    +0.019 A 
ATOM     18  C   UNL     1      -0.017   1.375   0.010  0.00  0.00    +0.019 A 
ATOM     19  C   UNL     1       0.002  -0.004   0.002  0.00  0.00    +0.028 A 
ATOM     20  C   UNL     1       1.222  -0.683  -0.013  0.00  0.00    +0.037 A 
ATOM     21 BR   UNL     1      -1.669   2.295   0.022  0.00  0.00    -0.050 Br
BRANCH  15  23
ATOM     22  C   UNL     1       4.792   0.201  -0.043  0.00  0.00    +0.277 C 
ATOM     23  O   UNL     1       3.613  -0.606  -0.036  0.00  0.00    -0.494 OA
ENDBRANCH  15  23
ENDBRANCH  13  20
ENDBRANCH   1  14
TORSDOF 4
