REMARK  Name = ZINC01432810
REMARK  6 active torsions:
REMARK  status: ('A' for Active; 'I' for Inactive)
REMARK    1  A    between atoms: C_1  and  C_2
REMARK    2  A    between atoms: C_9  and  N_30
REMARK    3  A    between atoms: C_10  and  C_28
REMARK    4  A    between atoms: C_11  and  C_13
REMARK    5  A    between atoms: C_15  and  C_18
REMARK    6  A    between atoms: C_18  and  N_19
REMARK                            x       y       z     vdW  Elec       q    Type
REMARK                         _______ _______ _______ _____ _____    ______ ____
ROOT
ATOM      1  C   UNL     1      -0.018   1.503   0.010  0.00  0.00    +0.065 C 
ATOM      2  C   UNL     1       0.002  -0.004   0.002  0.00  0.00    +0.041 A 
ATOM      3  C   UNL     1       0.008  -0.790  -1.085  0.00  0.00    +0.049 A 
ATOM      4  C   UNL     1       0.030  -2.135  -0.654  0.00  0.00    +0.245 A 
ATOM      5  N   UNL     1       0.036  -2.141   0.647  0.00  0.00    -0.135 NA
ATOM      6  N   UNL     1       0.024  -0.809   1.090  0.00  0.00    -0.278 N 
ATOM      7  H   UNL     1       0.028  -0.516   2.015  0.00  0.00    +0.189 HD
ATOM      8  O   UNL     1       0.045  -3.173  -1.533  0.00  0.00    -0.421 OA
ATOM      9  C   UNL     1       0.309  -2.890  -2.824  0.00  0.00    +0.201 C 
ATOM     10  C   UNL     1       0.305  -1.648  -3.351  0.00  0.00    +0.099 C 
ATOM     11  C   UNL     1      -0.006  -0.413  -2.545  0.00  0.00    +0.108 C 
ENDROOT
BRANCH  11  12
ATOM     12  C   UNL     1      -1.368   0.111  -2.922  0.00  0.00    +0.003 A 
ATOM     13  C   UNL     1      -1.707   1.325  -3.419  0.00  0.00    +0.017 A 
ATOM     14  C   UNL     1      -3.036   1.589  -3.696  0.00  0.00    -0.020 A 
ATOM     15  C   UNL     1      -3.960   0.625  -3.461  0.00  0.00    +0.051 A 
ATOM     16  S   UNL     1      -2.951  -0.709  -2.837  0.00  0.00    -0.100 S 
BRANCH  14  17
ATOM     17  C   UNL     1      -3.451   2.928  -4.249  0.00  0.00    +0.159 C 
BRANCH  17  18
ATOM     18  N   UNL     1      -3.413   2.885  -5.713  0.00  0.00    -0.326 N 
ATOM     19  C   UNL     1      -2.378   3.276  -6.504  0.00  0.00    +0.200 A 
ATOM     20  N   UNL     1      -2.682   3.100  -7.757  0.00  0.00    -0.236 NA
ATOM     21  C   UNL     1      -3.934   2.584  -7.855  0.00  0.00    +0.089 A 
ATOM     22  C   UNL     1      -4.418   2.433  -6.544  0.00  0.00    +0.069 A 
ATOM     23  C   UNL     1      -5.688   1.916  -6.333  0.00  0.00    +0.028 A 
ATOM     24  C   UNL     1      -6.465   1.550  -7.412  0.00  0.00    +0.002 A 
ATOM     25  C   UNL     1      -5.985   1.696  -8.705  0.00  0.00    +0.002 A 
ATOM     26  C   UNL     1      -4.740   2.209  -8.933  0.00  0.00    +0.030 A 
ENDBRANCH  17  18
ENDBRANCH  14  17
ENDBRANCH  11  12
BRANCH   9  27
ATOM     27  N   UNL     1       0.604  -3.938  -3.660  0.00  0.00    -0.328 N 
ATOM     28  H   UNL     1       0.617  -4.845  -3.315  0.00  0.00    +0.145 HD
ATOM     29  H   UNL     1       0.800  -3.772  -4.595  0.00  0.00    +0.145 HD
ENDBRANCH   9  27
BRANCH  10  30
ATOM     30  C   UNL     1       0.611  -1.496  -4.742  0.00  0.00    +0.101 C 
ATOM     31  N   UNL     1       0.853  -1.376  -5.846  0.00  0.00    -0.191 NA
ENDBRANCH  10  30
TORSDOF 5
