REMARK  Name = ZINC14653497
REMARK  11 active torsions:
REMARK  status: ('A' for Active; 'I' for Inactive)
REMARK    1  A    between atoms: C_1  and  C_2
REMARK    2  A    between atoms: C_2  and  C_3
REMARK    3  A    between atoms: C_3  and  O_4
REMARK    4  A    between atoms: O_4  and  C_5
REMARK    5  A    between atoms: C_10  and  C_11
REMARK    6  A    between atoms: N_13  and  C_14
REMARK    7  A    between atoms: C_14  and  N_16
REMARK    8  A    between atoms: N_16  and  C_17
REMARK    9  A    between atoms: C_22  and  C_23
REMARK   10  A    between atoms: N_25  and  C_26
REMARK   11  A    between atoms: C_26  and  C_27
REMARK                            x       y       z     vdW  Elec       q    Type
REMARK                         _______ _______ _______ _____ _____    ______ ____
ROOT
ATOM      1  N   UNL     1      -2.425   5.798  -4.434  0.00  0.00    -0.296 N 
ATOM      2  H   UNL     1      -2.504   4.831  -4.452  0.00  0.00    +0.154 HD
ENDROOT
BRANCH   1   3
ATOM      3  C   UNL     1      -1.904   6.433  -3.310  0.00  0.00    +0.045 A 
ATOM      4  C   UNL     1      -2.526   7.562  -2.796  0.00  0.00    +0.024 A 
ATOM      5  C   UNL     1      -2.004   8.194  -1.685  0.00  0.00    +0.002 A 
ATOM      6  C   UNL     1      -0.862   7.705  -1.072  0.00  0.00    +0.001 A 
ATOM      7  C   UNL     1      -0.234   6.581  -1.565  0.00  0.00    +0.015 A 
ATOM      8  C   UNL     1      -0.750   5.931  -2.688  0.00  0.00    +0.058 A 
BRANCH   8   9
ATOM      9  C   UNL     1      -0.084   4.728  -3.221  0.00  0.00    +0.246 C 
ATOM     10  O   UNL     1      -0.588   4.110  -4.139  0.00  0.00    -0.270 OA
ATOM     11  N   UNL     1       1.084   4.314  -2.691  0.00  0.00    -0.309 N 
ATOM     12  H   UNL     1       1.486   4.807  -1.958  0.00  0.00    +0.149 HD
BRANCH  11  13
ATOM     13  C   UNL     1       1.746   3.119  -3.220  0.00  0.00    +0.136 C 
BRANCH  13  14
ATOM     14  C   UNL     1       3.043   2.871  -2.448  0.00  0.00    +0.135 C 
ATOM     15  C   UNL     1       3.748   1.616  -2.997  0.00  0.00    +0.035 C 
ATOM     16  C   UNL     1       5.137   2.128  -3.450  0.00  0.00    +0.031 C 
ATOM     17  C   UNL     1       5.280   3.440  -2.638  0.00  0.00    +0.160 C 
ATOM     18  O   UNL     1       3.941   3.979  -2.630  0.00  0.00    -0.375 OA
ENDBRANCH  13  14
ENDBRANCH  11  13
ENDBRANCH   8   9
ENDBRANCH   1   3
BRANCH   1  19
ATOM     19  C   UNL     1      -2.819   6.526  -5.498  0.00  0.00    +0.141 C 
ATOM     20  S   UNL     1      -2.559   8.218  -5.520  0.00  0.00    -0.018 S 
BRANCH  19  23
ATOM     21  C   UNL     1      -3.811   6.651  -7.607  0.00  0.00    +0.253 C 
ATOM     22  O   UNL     1      -3.627   7.852  -7.623  0.00  0.00    -0.270 OA
ATOM     23  N   UNL     1      -3.417   5.923  -6.544  0.00  0.00    -0.263 N 
ATOM     24  H   UNL     1      -3.564   4.964  -6.531  0.00  0.00    +0.157 HD
BRANCH  21  30
ATOM     25  C   UNL     1      -4.877   6.744  -9.859  0.00  0.00    +0.133 A 
ATOM     26  C   UNL     1      -5.492   6.112 -10.930  0.00  0.00    +0.047 A 
ATOM     27  C   UNL     1      -5.697   4.747 -10.905  0.00  0.00    +0.019 A 
ATOM     28  C   UNL     1      -5.291   3.998  -9.811  0.00  0.00    +0.019 A 
ATOM     29  C   UNL     1      -4.674   4.608  -8.740  0.00  0.00    +0.032 A 
ATOM     30  C   UNL     1      -4.466   5.990  -8.751  0.00  0.00    +0.080 A 
ATOM     31 BR   UNL     1      -5.580   2.129  -9.791  0.00  0.00    -0.050 Br
BRANCH  25  32
ATOM     32  O   UNL     1      -4.676   8.085  -9.883  0.00  0.00    -0.491 OA
BRANCH  32  33
ATOM     33  C   UNL     1      -5.122   8.787 -11.046  0.00  0.00    +0.229 C 
BRANCH  33  35
ATOM     34  C   UNL     1      -5.288  11.029 -12.136  0.00  0.00    +0.007 C 
ATOM     35  C   UNL     1      -4.811  10.277 -10.892  0.00  0.00    +0.038 C 
ENDBRANCH  33  35
ENDBRANCH  32  33
ENDBRANCH  25  32
ENDBRANCH  21  30
ENDBRANCH  19  23
ENDBRANCH   1  19
TORSDOF 10
