REMARK  Name = ZINC64816716
REMARK  7 active torsions:
REMARK  status: ('A' for Active; 'I' for Inactive)
REMARK    1  A    between atoms: C_1  and  C_2
REMARK    2  A    between atoms: N_8  and  C_9
REMARK    3  A    between atoms: C_9  and  C_10
REMARK    4  A    between atoms: C_10  and  N_11
REMARK    5  A    between atoms: C_12  and  C_14
REMARK    6  A    between atoms: C_17  and  C_20
REMARK    7  A    between atoms: C_20  and  N_21
REMARK                            x       y       z     vdW  Elec       q    Type
REMARK                         _______ _______ _______ _____ _____    ______ ____
ROOT
ATOM      1  C   UNL     1       0.129   0.498   7.260  0.00  0.00    +0.037 A 
ATOM      2  C   UNL     1      -1.046   1.244   7.153  0.00  0.00    +0.013 A 
ATOM      3  C   UNL     1      -1.645   1.748   8.289  0.00  0.00    +0.006 A 
ATOM      4  C   UNL     1      -1.084   1.515   9.532  0.00  0.00    -0.030 A 
ATOM      5  C   UNL     1       0.081   0.776   9.645  0.00  0.00    +0.006 A 
ATOM      6  C   UNL     1       0.687   0.262   8.517  0.00  0.00    +0.013 A 
ENDROOT
BRANCH   1   8
ATOM      7  N   UNL     1       0.236   0.185   4.834  0.00  0.00    -0.313 N 
ATOM      8  C   UNL     1       0.777  -0.045   6.046  0.00  0.00    +0.244 C 
ATOM      9  O   UNL     1       1.797  -0.699   6.143  0.00  0.00    -0.270 OA
ATOM     10  H   UNL     1      -0.578   0.707   4.757  0.00  0.00    +0.149 HD
BRANCH   7  11
ATOM     11  C   UNL     1       0.877  -0.353   3.631  0.00  0.00    +0.086 C 
BRANCH  11  12
ATOM     12  C   UNL     1       0.067   0.050   2.397  0.00  0.00    -0.059 C 
BRANCH  12  19
ATOM     13  C   UNL     1      -0.019   1.526   0.010  0.00  0.00    -0.013 C 
ATOM     14  C   UNL     1       0.002  -0.004   0.002  0.00  0.00    -0.072 C 
ATOM     15  C   UNL     1       0.717  -0.497  -1.258  0.00  0.00    -0.016 C 
ATOM     16  C   UNL     1       0.735  -2.028  -1.262  0.00  0.00    -0.003 C 
ATOM     17  C   UNL     1       1.410  -2.524   0.020  0.00  0.00    -0.019 C 
ATOM     18  C   UNL     1       0.669  -1.956   1.232  0.00  0.00    -0.078 C 
ATOM     19  N   UNL     1       0.711  -0.490   1.192  0.00  0.00    +0.382 N 
ATOM     20  H   UNL     1       1.671  -0.182   1.159  0.00  0.00    -0.081 HD
ENDBRANCH  12  19
ENDBRANCH  11  12
ENDBRANCH   7  11
ENDBRANCH   1   8
BRANCH   4  21
ATOM     21  C   UNL     1      -1.744   2.068  10.769  0.00  0.00    +0.150 C 
BRANCH  21  22
ATOM     22  N   UNL     1      -2.703   1.091  11.289  0.00  0.00    -0.252 N 
ATOM     23  C   UNL     1      -4.034   1.087  10.868  0.00  0.00    +0.126 A 
ATOM     24  C   UNL     1      -4.618   1.709   9.822  0.00  0.00    +0.065 A 
ATOM     25  C   UNL     1      -5.981   1.382   9.840  0.00  0.00    +0.136 A 
ATOM     26  N   UNL     1      -6.203   0.590  10.863  0.00  0.00    -0.178 NA
ATOM     27  N   UNL     1      -4.997   0.387  11.526  0.00  0.00    -0.250 N 
ATOM     28  C   UNL     1      -4.714  -0.416  12.718  0.00  0.00    +0.155 C 
ATOM     29  C   UNL     1      -3.274  -0.927  12.637  0.00  0.00    +0.119 C 
ATOM     30  C   UNL     1      -2.331   0.155  12.191  0.00  0.00    +0.223 C 
ATOM     31  O   UNL     1      -1.211   0.192  12.656  0.00  0.00    -0.275 OA
ENDBRANCH  21  22
ENDBRANCH   4  21
TORSDOF 6
