REMARK  Name = ZINC53071222
REMARK  8 active torsions:
REMARK  status: ('A' for Active; 'I' for Inactive)
REMARK    1  A    between atoms: C_1  and  C_2
REMARK    2  A    between atoms: C_2  and  C_3
REMARK    3  A    between atoms: C_3  and  C_4
REMARK    4  A    between atoms: C_3  and  C_6
REMARK    5  A    between atoms: C_3  and  N_8
REMARK    6  A    between atoms: C_4  and  C_5
REMARK    7  A    between atoms: C_6  and  O_7
REMARK    8  A    between atoms: C_9  and  C_11
REMARK                            x       y       z     vdW  Elec       q    Type
REMARK                         _______ _______ _______ _____ _____    ______ ____
ROOT
ATOM      1  N   UNL     1       2.077   0.091   1.294  0.00  0.00    -0.304 N 
ATOM      2  C   UNL     1       2.949  -0.115   0.287  0.00  0.00    +0.245 C 
ATOM      3  O   UNL     1       2.628  -0.800  -0.664  0.00  0.00    -0.270 OA
ATOM      4  H   UNL     1       2.333   0.638   2.053  0.00  0.00    +0.150 HD
ENDROOT
BRANCH   2   5
ATOM      5  C   UNL     1       4.302   0.495   0.340  0.00  0.00    +0.047 A 
ATOM      6  C   UNL     1       4.681   1.284   1.427  0.00  0.00    +0.083 A 
ATOM      7  C   UNL     1       5.952   1.844   1.454  0.00  0.00    +0.252 A 
ATOM      8  N   UNL     1       6.818   1.631   0.438  0.00  0.00    -0.290 N 
ATOM      9  C   UNL     1       6.472   0.871  -0.625  0.00  0.00    +0.252 A 
ATOM     10  C   UNL     1       5.215   0.284  -0.694  0.00  0.00    +0.083 A 
ATOM     11  O   UNL     1       7.351   0.677  -1.617  0.00  0.00    -0.268 OA
ATOM     12  O   UNL     1       6.322   2.602   2.495  0.00  0.00    -0.268 OA
ATOM     13  H   UNL     1       7.701   2.030   0.472  0.00  0.00    +0.172 HD
ENDBRANCH   2   5
BRANCH   1  14
ATOM     14  C   UNL     1       0.742  -0.511   1.242  0.00  0.00    +0.057 C 
BRANCH  14  16
ATOM     15  C   UNL     1      -0.019   1.526   0.010  0.00  0.00    +0.006 C 
ATOM     16  C   UNL     1       0.002  -0.004   0.002  0.00  0.00    +0.024 C 
ENDBRANCH  14  16
BRANCH  14  17
ATOM     17  C   UNL     1      -0.042  -0.124   2.497  0.00  0.00    +0.024 C 
ATOM     18  C   UNL     1      -1.435  -0.752   2.443  0.00  0.00    +0.006 C 
ENDBRANCH  14  17
BRANCH  14  19
ATOM     19  C   UNL     1       0.872  -2.034   1.171  0.00  0.00    +0.181 C 
BRANCH  19  20
ATOM     20  O   UNL     1       1.563  -2.507   2.329  0.00  0.00    -0.393 OA
ATOM     21  H   UNL     1       1.682  -3.466   2.351  0.00  0.00    +0.209 HD
ENDBRANCH  19  20
ENDBRANCH  14  19
ENDBRANCH   1  14
TORSDOF 6
