REMARK  Name = ZINC37542811
REMARK  5 active torsions:
REMARK  status: ('A' for Active; 'I' for Inactive)
REMARK    1  A    between atoms: C_5  and  S_7
REMARK    2  A    between atoms: S_7  and  N_10
REMARK    3  A    between atoms: N_10  and  C_11
REMARK    4  A    between atoms: N_10  and  C_15
REMARK    5  A    between atoms: C_11  and  C_12
REMARK                            x       y       z     vdW  Elec       q    Type
REMARK                         _______ _______ _______ _____ _____    ______ ____
ROOT
ATOM      1  N   UNL     1       1.765  -2.915  -1.518  0.00  0.00    -0.165 NA
ENDROOT
BRANCH   1   2
ATOM      2  C   UNL     1       0.835  -2.878  -2.649  0.00  0.00    +0.077 C 
ATOM      3  C   UNL     1       0.918  -4.196  -3.424  0.00  0.00    +0.001 C 
ATOM      4  C   UNL     1       0.004  -4.120  -4.649  0.00  0.00    -0.081 C 
ATOM      5  N   UNL     1       0.430  -3.014  -5.514  0.00  0.00    +0.379 N 
ATOM      6  C   UNL     1       0.284  -1.739  -4.801  0.00  0.00    -0.081 C 
ATOM      7  C   UNL     1       1.210  -1.723  -3.583  0.00  0.00    +0.001 C 
ATOM      8  H   UNL     1       1.396  -3.144  -5.774  0.00  0.00    -0.086 HD
ATOM      9  H   UNL     1      -0.141  -3.000  -6.346  0.00  0.00    -0.086 HD
ENDBRANCH   1   2
BRANCH   1  10
ATOM     10  S   UNL     1       1.185  -2.892   0.033  0.00  0.00    +0.063 S 
ATOM     11  O   UNL     1       2.085  -3.665   0.815  0.00  0.00    -0.153 OA
ATOM     12  O   UNL     1      -0.203  -3.189  -0.049  0.00  0.00    -0.153 OA
BRANCH  10  17
ATOM     13  C   UNL     1       2.325   0.390   2.051  0.00  0.00    +0.002 A 
ATOM     14  C   UNL     1       1.509   1.371   1.521  0.00  0.00    +0.001 A 
ATOM     15  C   UNL     1       0.593   1.052   0.537  0.00  0.00    +0.017 A 
ATOM     16  C   UNL     1       0.494  -0.251   0.082  0.00  0.00    +0.044 A 
ATOM     17  C   UNL     1       1.311  -1.232   0.612  0.00  0.00    +0.119 A 
ATOM     18  C   UNL     1       2.227  -0.912   1.597  0.00  0.00    +0.029 A 
ATOM     19 BR   UNL     1      -0.759  -0.689  -1.265  0.00  0.00    -0.048 Br
ENDBRANCH  10  17
ENDBRANCH   1  10
BRANCH   1  20
ATOM     20  C   UNL     1       3.209  -2.972  -1.759  0.00  0.00    +0.205 C 
BRANCH  20  21
ATOM     21  C   UNL     1       3.636  -4.409  -1.911  0.00  0.00    +0.226 C 
ATOM     22  O   UNL     1       2.815  -5.298  -1.827  0.00  0.00    -0.275 OA
ATOM     23  N   UNL     1       4.931  -4.707  -2.141  0.00  0.00    -0.328 N 
ATOM     24  H   UNL     1       5.587  -3.996  -2.208  0.00  0.00    +0.145 HD
ATOM     25  H   UNL     1       5.205  -5.632  -2.239  0.00  0.00    +0.145 HD
ENDBRANCH  20  21
ENDBRANCH   1  20
TORSDOF 5
