REMARK  Name = ZINC50649903
REMARK  6 active torsions:
REMARK  status: ('A' for Active; 'I' for Inactive)
REMARK    1  A    between atoms: C_1  and  C_2
REMARK    2  A    between atoms: C_7  and  N_8
REMARK    3  A    between atoms: N_8  and  S_9
REMARK    4  A    between atoms: S_9  and  C_12
REMARK    5  A    between atoms: C_15  and  N_19
REMARK    6  A    between atoms: C_17  and  N_18
REMARK                            x       y       z     vdW  Elec       q    Type
REMARK                         _______ _______ _______ _____ _____    ______ ____
ROOT
ATOM      1  S   UNL     1       0.777  -0.683   3.812  0.00  0.00    +0.074 S 
ATOM      2  O   UNL     1       0.572   0.104   4.977  0.00  0.00    -0.150 OA
ATOM      3  O   UNL     1       0.380  -2.046   3.734  0.00  0.00    -0.150 OA
ENDROOT
BRANCH   1   4
ATOM      4  C   UNL     1       2.506  -0.643   3.475  0.00  0.00    +0.129 A 
ATOM      5  C   UNL     1       3.194  -1.819   3.248  0.00  0.00    +0.033 A 
ATOM      6  C   UNL     1       4.550  -1.788   2.983  0.00  0.00    +0.035 A 
ATOM      7  C   UNL     1       5.223  -0.581   2.944  0.00  0.00    +0.128 A 
ATOM      8  C   UNL     1       4.542   0.599   3.170  0.00  0.00    +0.057 A 
ATOM      9  C   UNL     1       3.177   0.572   3.431  0.00  0.00    +0.054 A 
BRANCH   9  10
ATOM     10  N   UNL     1       2.484   1.764   3.654  0.00  0.00    -0.356 N 
ATOM     11  H   UNL     1       1.518   1.753   3.746  0.00  0.00    +0.142 HD
ATOM     12  H   UNL     1       2.968   2.602   3.717  0.00  0.00    +0.142 HD
ENDBRANCH   9  10
BRANCH   7  13
ATOM     13  N   UNL     1       6.676  -0.552   2.660  0.00  0.00    +0.056 N 
ATOM     14  O   UNL     1       7.273  -1.585   2.463  0.00  0.00    -0.126 OA
ATOM     15  O   UNL     1       7.264   0.503   2.626  0.00  0.00    -0.126 OA
ENDBRANCH   7  13
ENDBRANCH   1   4
BRANCH   1  16
ATOM     16  N   UNL     1       0.017   0.103   2.569  0.00  0.00    -0.216 N 
ATOM     17  H   UNL     1      -0.521   0.890   2.749  0.00  0.00    +0.174 HD
BRANCH  16  24
ATOM     18  C   UNL     1       0.113   2.011   0.461  0.00  0.00    +0.046 C 
ATOM     19  C   UNL     1       0.201   0.530   0.201  0.00  0.00    -0.028 A 
ATOM     20  C   UNL     1       0.338   0.062  -1.092  0.00  0.00    +0.005 A 
ATOM     21  C   UNL     1       0.419  -1.297  -1.332  0.00  0.00    +0.000 A 
ATOM     22  C   UNL     1       0.362  -2.193  -0.280  0.00  0.00    +0.002 A 
ATOM     23  C   UNL     1       0.226  -1.732   1.015  0.00  0.00    +0.025 A 
ATOM     24  C   UNL     1       0.150  -0.367   1.260  0.00  0.00    +0.051 A 
ENDBRANCH  16  24
ENDBRANCH   1  16
TORSDOF 5
