REMARK  Name = ZINC20463921
REMARK  5 active torsions:
REMARK  status: ('A' for Active; 'I' for Inactive)
REMARK    1  A    between atoms: C_4  and  N_7
REMARK    2  A    between atoms: N_10  and  C_11
REMARK    3  A    between atoms: C_20  and  N_25
REMARK    4  A    between atoms: C_22  and  O_24
REMARK    5  A    between atoms: C_28  and  C_31
REMARK                            x       y       z     vdW  Elec       q    Type
REMARK                         _______ _______ _______ _____ _____    ______ ____
ROOT
ATOM      1  C   UNL     1       0.202   3.631   0.958  0.00  0.00    +0.132 C 
ATOM      2  C   UNL     1      -1.064   2.771   0.814  0.00  0.00    +0.169 C 
ATOM      3  C   UNL     1      -1.403   2.681  -0.692  0.00  0.00    +0.196 C 
ATOM      4  O   UNL     1      -0.691   1.503  -1.175  0.00  0.00    -0.350 OA
ATOM      5  C   UNL     1       0.032   0.988  -0.042  0.00  0.00    +0.240 C 
ATOM      6  O   UNL     1      -0.693   1.407   1.136  0.00  0.00    -0.345 OA
ATOM      7  C   UNL     1       1.410   1.665  -0.003  0.00  0.00    +0.019 C 
ATOM      8  C   UNL     1       1.219   3.183  -0.097  0.00  0.00    +0.129 C 
ENDROOT
BRANCH   7   9
ATOM      9  N   UNL     1       2.087   1.332   1.258  0.00  0.00    +0.387 N 
ATOM     10  C   UNL     1       3.459   1.856   1.274  0.00  0.00    -0.077 C 
ATOM     11  C   UNL     1       4.081   1.618   2.652  0.00  0.00    -0.006 C 
ATOM     12  C   UNL     1       4.085   0.117   2.953  0.00  0.00    +0.071 C 
ATOM     13  C   UNL     1       2.650  -0.413   2.882  0.00  0.00    -0.006 C 
ATOM     14  C   UNL     1       2.069  -0.117   1.498  0.00  0.00    -0.077 C 
ATOM     15  H   UNL     1       1.534   1.814   2.078  0.00  0.00    -0.081 HD
BRANCH  12  16
ATOM     16  C   UNL     1       4.642  -0.120   4.333  0.00  0.00    +0.213 C 
ATOM     17  O   UNL     1       3.960  -0.660   5.178  0.00  0.00    -0.276 OA
ATOM     18  N   UNL     1       5.899   0.268   4.628  0.00  0.00    -0.329 N 
ATOM     19  H   UNL     1       6.306   0.095   5.635  0.00  0.00    +0.145 HD
ATOM     20  H   UNL     1       6.517   0.757   3.861  0.00  0.00    +0.145 HD
ENDBRANCH  12  16
ENDBRANCH   7   9
BRANCH   1  24
ATOM     21  N   UNL     1       0.846   4.036   4.556  0.00  0.00    -0.297 N 
ATOM     22  C   UNL     1       0.323   4.201   3.324  0.00  0.00    +0.300 C 
ATOM     23  O   UNL     1      -0.550   5.027   3.140  0.00  0.00    -0.253 OA
ATOM     24  N   UNL     1       0.769   3.452   2.297  0.00  0.00    -0.292 N 
ATOM     25  H   UNL     1       1.636   3.289   4.722  0.00  0.00    +0.151 HD
ATOM     26  H   UNL     1       1.560   2.705   2.463  0.00  0.00    +0.151 HD
BRANCH  21  30
ATOM     27  C   UNL     1       0.846   6.293   8.176  0.00  0.00    +0.000 C 
ATOM     28  C   UNL     1       0.097   4.959   8.155  0.00  0.00    +0.002 C 
ATOM     29  C   UNL     1       0.603   4.108   6.988  0.00  0.00    +0.022 C 
ATOM     30  C   UNL     1       0.361   4.851   5.672  0.00  0.00    +0.074 C 
ATOM     31  C   UNL     1       1.110   6.184   5.694  0.00  0.00    +0.022 C 
ATOM     32  C   UNL     1       0.604   7.035   6.860  0.00  0.00    +0.002 C 
ENDBRANCH  21  30
ENDBRANCH   1  24
BRANCH   8  33
ATOM     33  O   UNL     1       0.738   3.523  -1.399  0.00  0.00    -0.391 OA
ATOM     34  H   UNL     1       1.337   3.277  -2.288  0.00  0.00    +0.210 HD
ENDBRANCH   8  33
TORSDOF 5
