REMARK  Name = ZINC38979657
REMARK  7 active torsions:
REMARK  status: ('A' for Active; 'I' for Inactive)
REMARK    1  A    between atoms: C_1  and  C_2
REMARK    2  A    between atoms: C_2  and  O_3
REMARK    3  A    between atoms: O_3  and  C_4
REMARK    4  A    between atoms: C_6  and  C_11
REMARK    5  A    between atoms: C_9  and  O_10
REMARK    6  A    between atoms: N_12  and  N_13
REMARK    7  A    between atoms: C_14  and  C_20
REMARK                            x       y       z     vdW  Elec       q    Type
REMARK                         _______ _______ _______ _____ _____    ______ ____
ROOT
ATOM      1  N   UNL     1       1.578  -7.079   0.071  0.00  0.00    -0.173 N 
ATOM      2  C   UNL     1       1.604  -8.554   0.076  0.00  0.00    +0.266 C 
ATOM      3  N   UNL     1       3.036  -8.871   0.197  0.00  0.00    -0.169 NA
ATOM      4  N   UNL     1       3.657  -7.806   0.248  0.00  0.00    -0.096 NA
ATOM      5  C   UNL     1       2.877  -6.720   0.175  0.00  0.00    +0.198 C 
ATOM      6  S   UNL     1       3.444  -5.106   0.211  0.00  0.00    -0.013 S 
ENDROOT
BRANCH   2   7
ATOM      7  C   UNL     1       1.035  -9.107  -1.232  0.00  0.00    +0.201 C 
ATOM      8  C   UNL     1       1.005 -10.621  -1.207  0.00  0.00    -0.017 C 
ATOM      9  C   UNL     1       1.802 -10.994  -2.206  0.00  0.00    +0.065 C 
ATOM     10  C   UNL     1       1.854 -12.509  -2.285  0.00  0.00    +0.057 C 
ATOM     11  C   UNL     1       1.315 -13.002  -0.924  0.00  0.00    +0.011 C 
ATOM     12  C   UNL     1       0.426 -11.815  -0.491  0.00  0.00    +0.035 C 
ATOM     13  N   UNL     1       2.309  -9.895  -2.828  0.00  0.00    -0.158 NA
ATOM     14  N   UNL     1       1.938  -8.814  -2.359  0.00  0.00    -0.176 NA
ENDBRANCH   2   7
BRANCH   1  16
ATOM     15  C   UNL     1      -0.736  -6.747  -0.013  0.00  0.00    +0.138 C 
ATOM     16  N   UNL     1       0.460  -6.239  -0.025  0.00  0.00    -0.184 NA
BRANCH  15  19
ATOM     17  C   UNL     1      -4.288  -5.604  -0.431  0.00  0.00    +0.162 A 
ATOM     18  C   UNL     1      -3.194  -6.423  -0.223  0.00  0.00    +0.059 A 
ATOM     19  C   UNL     1      -1.906  -5.879  -0.235  0.00  0.00    -0.002 A 
ATOM     20  C   UNL     1      -1.732  -4.510  -0.458  0.00  0.00    +0.013 A 
ATOM     21  C   UNL     1      -2.828  -3.701  -0.665  0.00  0.00    +0.050 A 
ATOM     22  C   UNL     1      -4.106  -4.242  -0.658  0.00  0.00    +0.158 A 
BRANCH  22  23
ATOM     23  O   UNL     1      -5.183  -3.440  -0.869  0.00  0.00    -0.503 OA
ATOM     24  H   UNL     1      -5.551  -3.056  -0.061  0.00  0.00    +0.292 HD
ENDBRANCH  22  23
BRANCH  17  25
ATOM     25  O   UNL     1      -5.542  -6.130  -0.420  0.00  0.00    -0.489 OA
BRANCH  25  27
ATOM     26  C   UNL     1      -7.130  -7.939  -0.206  0.00  0.00    +0.048 C 
ATOM     27  C   UNL     1      -5.654  -7.535  -0.182  0.00  0.00    +0.226 C 
ENDBRANCH  25  27
ENDBRANCH  17  25
ENDBRANCH  15  19
ENDBRANCH   1  16
TORSDOF 6
