REMARK  Name = ZINC00885305
REMARK  12 active torsions:
REMARK  status: ('A' for Active; 'I' for Inactive)
REMARK    1  A    between atoms: C_1  and  C_2
REMARK    2  A    between atoms: C_6  and  C_15
REMARK    3  A    between atoms: C_13  and  C_14
REMARK    4  A    between atoms: C_15  and  N_16
REMARK    5  A    between atoms: N_16  and  C_17
REMARK    6  A    between atoms: N_16  and  C_27
REMARK    7  A    between atoms: C_17  and  C_18
REMARK    8  A    between atoms: C_27  and  N_29
REMARK    9  A    between atoms: N_29  and  C_30
REMARK   10  A    between atoms: C_35  and  C_36
REMARK   11  A    between atoms: C_36  and  O_38
REMARK   12  A    between atoms: O_38  and  C_39
REMARK                            x       y       z     vdW  Elec       q    Type
REMARK                         _______ _______ _______ _____ _____    ______ ____
ROOT
ATOM      1  N   UNL     1       1.572  -5.580  -4.071  0.00  0.00    -0.304 N 
ENDROOT
BRANCH   1   2
ATOM      2  C   UNL     1       2.304  -4.667  -4.740  0.00  0.00    +0.138 C 
ATOM      3  S   UNL     1       1.779  -3.040  -4.817  0.00  0.00    -0.018 S 
BRANCH   2   4
ATOM      4  N   UNL     1       3.449  -5.036  -5.348  0.00  0.00    -0.296 N 
ATOM      5  H   UNL     1       3.789  -5.937  -5.236  0.00  0.00    +0.154 HD
BRANCH   4   6
ATOM      6  C   UNL     1       4.143  -4.123  -6.137  0.00  0.00    +0.047 A 
ATOM      7  C   UNL     1       3.464  -3.347  -7.067  0.00  0.00    +0.024 A 
ATOM      8  C   UNL     1       4.154  -2.442  -7.848  0.00  0.00    +0.002 A 
ATOM      9  C   UNL     1       5.526  -2.301  -7.711  0.00  0.00    +0.001 A 
ATOM     10  C   UNL     1       6.217  -3.062  -6.794  0.00  0.00    +0.017 A 
ATOM     11  C   UNL     1       5.531  -3.979  -5.992  0.00  0.00    +0.080 A 
BRANCH  11  12
ATOM     12  C   UNL     1       6.263  -4.793  -5.005  0.00  0.00    +0.341 C 
ATOM     13  O   UNL     1       5.658  -5.562  -4.285  0.00  0.00    -0.245 OA
BRANCH  12  14
ATOM     14  O   UNL     1       7.602  -4.683  -4.902  0.00  0.00    -0.464 OA
ATOM     15  C   UNL     1       8.245  -5.503  -3.924  0.00  0.00    +0.280 C 
ENDBRANCH  12  14
ENDBRANCH  11  12
ENDBRANCH   4   6
ENDBRANCH   2   4
ENDBRANCH   1   2
BRANCH   1  16
ATOM     16  C   UNL     1       0.327  -5.180  -3.410  0.00  0.00    +0.147 C 
BRANCH  16  22
ATOM     17  C   UNL     1       1.806   0.044   1.704  0.00  0.00    +0.044 C 
ATOM     18  C   UNL     1       1.580  -1.397   1.324  0.00  0.00    -0.047 A 
ATOM     19  C   UNL     1       1.314  -1.721   0.023  0.00  0.00    +0.013 A 
ATOM     20  C   UNL     1       1.105  -3.058  -0.329  0.00  0.00    -0.001 A 
ATOM     21  C   UNL     1       0.818  -3.440  -1.713  0.00  0.00    +0.020 A 
ATOM     22  C   UNL     1       0.625  -4.752  -1.996  0.00  0.00    +0.035 A 
ATOM     23  C   UNL     1       0.700  -5.719  -0.970  0.00  0.00    +0.254 A 
ATOM     24  O   UNL     1       0.523  -6.893  -1.246  0.00  0.00    -0.268 OA
ATOM     25  N   UNL     1       0.963  -5.378   0.303  0.00  0.00    -0.322 N 
ATOM     26  H   UNL     1       1.009  -6.068   0.984  0.00  0.00    +0.169 HD
ATOM     27  C   UNL     1       1.170  -4.061   0.656  0.00  0.00    +0.049 A 
ATOM     28  C   UNL     1       1.441  -3.707   1.974  0.00  0.00    +0.030 A 
ATOM     29  C   UNL     1       1.650  -2.384   2.297  0.00  0.00    -0.046 A 
ATOM     30  C   UNL     1       1.951  -2.003   3.724  0.00  0.00    +0.044 C 
ENDBRANCH  16  22
ENDBRANCH   1  16
BRANCH   1  31
ATOM     31  C   UNL     1       2.021  -6.973  -4.005  0.00  0.00    +0.142 C 
BRANCH  31  32
ATOM     32  C   UNL     1       1.451  -7.741  -5.169  0.00  0.00    -0.026 A 
ATOM     33  C   UNL     1       0.224  -8.367  -5.049  0.00  0.00    +0.009 A 
ATOM     34  C   UNL     1      -0.303  -9.072  -6.114  0.00  0.00    +0.050 A 
ATOM     35  C   UNL     1       0.398  -9.153  -7.307  0.00  0.00    +0.166 A 
ATOM     36  C   UNL     1       1.633  -8.522  -7.428  0.00  0.00    +0.167 A 
ATOM     37  C   UNL     1       2.153  -7.813  -6.358  0.00  0.00    +0.054 A 
ATOM     38  O   UNL     1       2.116  -8.748  -8.685  0.00  0.00    -0.453 OA
ATOM     39  C   UNL     1       1.357  -9.860  -9.195  0.00  0.00    +0.466 C 
ATOM     40  O   UNL     1       0.106  -9.774  -8.487  0.00  0.00    -0.453 OA
ENDBRANCH  31  32
ENDBRANCH   1  31
TORSDOF 9
