REMARK  Name = ZINC03847534
REMARK  8 active torsions:
REMARK  status: ('A' for Active; 'I' for Inactive)
REMARK    1  A    between atoms: C_1  and  C_2
REMARK    2  A    between atoms: C_2  and  C_28
REMARK    3  A    between atoms: C_5  and  C_8
REMARK    4  A    between atoms: C_8  and  C_10
REMARK    5  A    between atoms: C_8  and  N_19
REMARK    6  A    between atoms: N_19  and  C_20
REMARK    7  A    between atoms: N_19  and  O_27
REMARK    8  A    between atoms: C_20  and  C_21
REMARK                            x       y       z     vdW  Elec       q    Type
REMARK                         _______ _______ _______ _____ _____    ______ ____
ROOT
ATOM      1  C   UNL     1       1.738   3.172  -0.643  0.00  0.00    +0.181 C 
ENDROOT
BRANCH   1   2
ATOM      2  C   UNL     1       3.243   3.225  -0.683  0.00  0.00    +0.128 A 
ATOM      3  C   UNL     1       4.008   3.943   0.150  0.00  0.00    +0.055 A 
ATOM      4  C   UNL     1       5.398   3.694  -0.253  0.00  0.00    +0.020 A 
ATOM      5  C   UNL     1       6.639   4.134   0.204  0.00  0.00    +0.011 A 
ATOM      6  C   UNL     1       7.781   3.699  -0.410  0.00  0.00    +0.001 A 
ATOM      7  C   UNL     1       7.710   2.824  -1.484  0.00  0.00    +0.004 A 
ATOM      8  C   UNL     1       6.492   2.378  -1.950  0.00  0.00    +0.047 A 
ATOM      9  C   UNL     1       5.320   2.808  -1.340  0.00  0.00    +0.135 A 
ATOM     10  O   UNL     1       4.014   2.553  -1.556  0.00  0.00    -0.458 OA
ENDBRANCH   1   2
BRANCH   1  15
ATOM     11  C   UNL     1       1.352  -1.134   0.869  0.00  0.00    +0.074 C 
ATOM     12  C   UNL     1       0.789  -0.307  -0.288  0.00  0.00    +0.165 C 
ATOM     13  O   UNL     1      -0.438   0.314   0.116  0.00  0.00    -0.347 OA
ATOM     14  C   UNL     1      -0.250   1.740   0.017  0.00  0.00    +0.197 C 
ATOM     15  C   UNL     1       1.291   1.895   0.070  0.00  0.00    +0.174 C 
ATOM     16  O   UNL     1       1.730   0.718  -0.651  0.00  0.00    -0.342 OA
ATOM     17  C   UNL     1       0.533  -1.218  -1.490  0.00  0.00    +0.074 C 
ENDBRANCH   1  15
BRANCH   1  18
ATOM     18  N   UNL     1       1.211   3.178  -2.014  0.00  0.00    -0.174 NA
BRANCH  18  19
ATOM     19  O   UNL     1       1.728   2.043  -2.779  0.00  0.00    -0.311 OA
ATOM     20  H   UNL     1       1.408   2.005  -3.690  0.00  0.00    +0.237 HD
ENDBRANCH  18  19
BRANCH  18  21
ATOM     21  C   UNL     1       1.512   4.448  -2.688  0.00  0.00    +0.150 C 
BRANCH  21  22
ATOM     22  C   UNL     1       0.690   4.555  -3.947  0.00  0.00    -0.031 A 
ATOM     23  C   UNL     1       1.191   4.075  -5.142  0.00  0.00    +0.005 A 
ATOM     24  C   UNL     1       0.435   4.168  -6.296  0.00  0.00    +0.000 A 
ATOM     25  C   UNL     1      -0.817   4.752  -6.256  0.00  0.00    +0.000 A 
ATOM     26  C   UNL     1      -1.316   5.238  -5.062  0.00  0.00    +0.000 A 
ATOM     27  C   UNL     1      -0.562   5.139  -3.907  0.00  0.00    +0.005 A 
ENDBRANCH  21  22
ENDBRANCH  18  21
ENDBRANCH   1  18
TORSDOF 6
