REMARK  Name = ZINC67582323
REMARK  12 active torsions:
REMARK  status: ('A' for Active; 'I' for Inactive)
REMARK    1  A    between atoms: C_1  and  C_2
REMARK    2  A    between atoms: C_6  and  C_29
REMARK    3  A    between atoms: C_7  and  O_8
REMARK    4  A    between atoms: O_8  and  C_9
REMARK    5  A    between atoms: C_9  and  C_10
REMARK    6  A    between atoms: C_10  and  C_12
REMARK    7  A    between atoms: C_10  and  O_28
REMARK    8  A    between atoms: C_12  and  N_13
REMARK    9  A    between atoms: N_16  and  C_17
REMARK   10  A    between atoms: C_21  and  N_23
REMARK   11  A    between atoms: C_24  and  O_26
REMARK   12  A    between atoms: O_26  and  C_27
REMARK                            x       y       z     vdW  Elec       q    Type
REMARK                         _______ _______ _______ _____ _____    ______ ____
ROOT
ATOM      1  N   UNL     1      -2.195   1.977   6.225  0.00  0.00    -0.297 N 
ATOM      2  C   UNL     1      -3.259   2.281   6.995  0.00  0.00    +0.304 C 
ATOM      3  O   UNL     1      -4.378   1.968   6.638  0.00  0.00    -0.253 OA
ATOM      4  N   UNL     1      -3.081   2.933   8.162  0.00  0.00    -0.269 N 
ATOM      5  H   UNL     1      -1.302   2.228   6.510  0.00  0.00    +0.150 HD
ATOM      6  H   UNL     1      -2.185   3.124   8.479  0.00  0.00    +0.156 HD
ENDROOT
BRANCH   4   7
ATOM      7  C   UNL     1      -4.191   3.334   8.915  0.00  0.00    +0.037 A 
ATOM      8  C   UNL     1      -4.154   4.528   9.625  0.00  0.00    +0.023 A 
ATOM      9  C   UNL     1      -5.249   4.925  10.369  0.00  0.00    +0.004 A 
ATOM     10  C   UNL     1      -6.383   4.137  10.408  0.00  0.00    +0.023 A 
ATOM     11  C   UNL     1      -6.426   2.943   9.700  0.00  0.00    +0.038 A 
ATOM     12  C   UNL     1      -5.330   2.544   8.947  0.00  0.00    +0.046 A 
BRANCH  11  13
ATOM     13  N   UNL     1      -7.575   2.145   9.740  0.00  0.00    -0.251 N 
ATOM     14  C   UNL     1      -8.793   2.720   9.804  0.00  0.00    +0.404 C 
ATOM     15  O   UNL     1      -8.890   3.927   9.912  0.00  0.00    -0.226 OA
ATOM     16  H   UNL     1      -7.496   1.179   9.721  0.00  0.00    +0.158 HD
BRANCH  14  17
ATOM     17  O   UNL     1      -9.901   1.958   9.749  0.00  0.00    -0.453 OA
ATOM     18  C   UNL     1     -11.158   2.634   9.823  0.00  0.00    +0.282 C 
ENDBRANCH  14  17
ENDBRANCH  11  13
ENDBRANCH   4   7
BRANCH   1  19
ATOM     19  C   UNL     1      -2.388   1.268   4.957  0.00  0.00    +0.140 C 
BRANCH  19  20
ATOM     20  C   UNL     1      -1.031   1.049   4.285  0.00  0.00    +0.169 C 
BRANCH  20  21
ATOM     21  O   UNL     1      -0.413   2.313   4.035  0.00  0.00    -0.387 OA
ATOM     22  H   UNL     1      -0.927   2.894   3.458  0.00  0.00    +0.210 HD
ENDBRANCH  20  21
BRANCH  20  23
ATOM     23  C   UNL     1      -1.232   0.309   2.961  0.00  0.00    +0.261 C 
BRANCH  23  24
ATOM     24  O   UNL     1       0.041   0.001   2.389  0.00  0.00    -0.489 OA
BRANCH  24  31
ATOM     25  C   UNL     1       0.021   1.556   0.031  0.00  0.00    +0.047 C 
ATOM     26  C   UNL     1       0.031   0.049   0.011  0.00  0.00    -0.009 A 
ATOM     27  C   UNL     1       0.036  -0.626  -1.194  0.00  0.00    +0.007 A 
ATOM     28  C   UNL     1       0.045  -2.009  -1.214  0.00  0.00    +0.001 A 
ATOM     29  C   UNL     1       0.049  -2.719  -0.027  0.00  0.00    +0.007 A 
ATOM     30  C   UNL     1       0.043  -2.049   1.181  0.00  0.00    -0.009 A 
ATOM     31  C   UNL     1       0.040  -0.661   1.202  0.00  0.00    +0.126 A 
ATOM     32  C   UNL     1       0.047  -2.823   2.473  0.00  0.00    +0.047 C 
ENDBRANCH  24  31
ENDBRANCH  23  24
ENDBRANCH  20  23
ENDBRANCH  19  20
ENDBRANCH   1  19
TORSDOF 9
