REMARK  Name = ZINC11635336
REMARK  5 active torsions:
REMARK  status: ('A' for Active; 'I' for Inactive)
REMARK    1  A    between atoms: C_1  and  C_2
REMARK    2  A    between atoms: C_2  and  N_3
REMARK    3  A    between atoms: N_3  and  S_4
REMARK    4  A    between atoms: S_4  and  C_7
REMARK    5  A    between atoms: C_12  and  C_13
REMARK                            x       y       z     vdW  Elec       q    Type
REMARK                         _______ _______ _______ _____ _____    ______ ____
ROOT
ATOM      1  C   UNL     1       0.945   2.745   0.051  0.00  0.00    +0.110 A 
ATOM      2  C   UNL     1      -0.242   3.284   0.506  0.00  0.00    +0.056 A 
ATOM      3  C   UNL     1      -1.327   2.457   0.750  0.00  0.00    +0.069 A 
ATOM      4  C   UNL     1      -1.218   1.082   0.529  0.00  0.00    +0.067 A 
ATOM      5  C   UNL     1      -0.020   0.549   0.078  0.00  0.00    +0.033 A 
ATOM      6  C   UNL     1       1.056   1.382  -0.163  0.00  0.00    -0.022 A 
ATOM      7  C   UNL     1       2.355   0.803  -0.660  0.00  0.00    +0.046 C 
ATOM      8  N   UNL     1      -2.453   0.523   0.849  0.00  0.00    -0.306 N 
ATOM      9  H   UNL     1      -2.680  -0.418   0.799  0.00  0.00    +0.170 HD
ATOM     10  C   UNL     1      -3.277   1.513   1.241  0.00  0.00    +0.325 A 
ATOM     11  O   UNL     1      -4.434   1.365   1.590  0.00  0.00    -0.247 OA
ATOM     12  N   UNL     1      -2.624   2.690   1.201  0.00  0.00    -0.306 N 
ATOM     13  H   UNL     1      -2.998   3.554   1.435  0.00  0.00    +0.170 HD
ENDROOT
BRANCH   1  14
ATOM     14  S   UNL     1       2.325   3.796  -0.260  0.00  0.00    +0.059 S 
ATOM     15  O   UNL     1       1.884   5.125  -0.021  0.00  0.00    -0.153 OA
ATOM     16  O   UNL     1       3.432   3.226   0.425  0.00  0.00    -0.153 OA
BRANCH  14  17
ATOM     17  N   UNL     1       2.665   3.693  -1.877  0.00  0.00    -0.190 NA
ATOM     18  H   UNL     1       3.498   3.293  -2.173  0.00  0.00    +0.148 HD
BRANCH  17  20
ATOM     19  C   UNL     1       2.387   4.308  -4.228  0.00  0.00    +0.022 C 
ATOM     20  C   UNL     1       1.708   4.204  -2.861  0.00  0.00    +0.102 C 
ENDBRANCH  17  20
ENDBRANCH  14  17
ENDBRANCH   1  14
TORSDOF 3
