REMARK  Name = ZINC63373627
REMARK  5 active torsions:
REMARK  status: ('A' for Active; 'I' for Inactive)
REMARK    1  A    between atoms: C_1  and  C_2
REMARK    2  A    between atoms: C_7  and  N_8
REMARK    3  A    between atoms: C_11  and  C_18
REMARK    4  A    between atoms: C_25  and  O_30
REMARK    5  A    between atoms: O_30  and  C_31
REMARK                            x       y       z     vdW  Elec       q    Type
REMARK                         _______ _______ _______ _____ _____    ______ ____
ROOT
ATOM      1  N   UNL     1       1.241   1.084   4.145  0.00  0.00    -0.228 N 
ATOM      2  C   UNL     1       0.094   1.415   4.772  0.00  0.00    +0.270 A 
ATOM      3  O   UNL     1       0.122   2.077   5.795  0.00  0.00    -0.267 OA
ATOM      4  C   UNL     1      -1.135   0.992   4.237  0.00  0.00    +0.101 A 
ATOM      5  C   UNL     1      -1.140   0.253   3.091  0.00  0.00    +0.263 A 
ATOM      6  N   UNL     1       0.051  -0.061   2.485  0.00  0.00    -0.274 N 
ATOM      7  H   UNL     1       0.052  -0.587   1.670  0.00  0.00    +0.173 HD
ATOM      8  C   UNL     1       1.215   0.359   3.013  0.00  0.00    +0.337 A 
ATOM      9  O   UNL     1       2.260   0.075   2.459  0.00  0.00    -0.246 OA
ATOM     10  O   UNL     1      -2.307  -0.166   2.556  0.00  0.00    -0.267 OA
ENDROOT
BRANCH   4  11
ATOM     11  C   UNL     1      -2.430   1.349   4.920  0.00  0.00    +0.121 C 
ATOM     12  C   UNL     1      -3.222   0.075   5.223  0.00  0.00    +0.128 C 
ATOM     13  C   UNL     1      -3.617  -0.512   3.873  0.00  0.00    -0.035 C 
ATOM     14  C   UNL     1      -3.188  -1.766   3.870  0.00  0.00    +0.003 A 
ATOM     15  C   UNL     1      -3.341  -2.857   2.895  0.00  0.00    +0.055 A 
ATOM     16  C   UNL     1      -2.748  -4.043   3.206  0.00  0.00    +0.121 A 
ATOM     17  C   UNL     1      -2.019  -4.270   4.382  0.00  0.00    +0.047 A 
ATOM     18  C   UNL     1      -1.821  -3.339   5.350  0.00  0.00    +0.029 A 
ATOM     19  C   UNL     1      -2.419  -2.015   5.130  0.00  0.00    +0.043 A 
ATOM     20  N   UNL     1      -2.415  -0.942   5.895  0.00  0.00    -0.376 N 
ATOM     21  C   UNL     1      -4.274   0.328   2.806  0.00  0.00    +0.048 C 
ATOM     22  C   UNL     1      -3.442   1.619   2.702  0.00  0.00    +0.086 C 
ATOM     23  N   UNL     1      -3.240   2.199   4.034  0.00  0.00    -0.307 NA
ATOM     24  H   UNL     1      -4.123   2.432   4.464  0.00  0.00    +0.123 HD
ATOM     25  H   UNL     1      -1.960  -0.836   6.745  0.00  0.00    +0.160 HD
BRANCH  16  26
ATOM     26  O   UNL     1      -2.873  -5.069   2.324  0.00  0.00    -0.495 OA
ATOM     27  C   UNL     1      -2.243  -6.304   2.672  0.00  0.00    +0.277 C 
ENDBRANCH  16  26
ENDBRANCH   4  11
BRANCH   1  34
ATOM     28  C   UNL     1       2.559  -0.622   6.002  0.00  0.00    +0.046 C 
ATOM     29  C   UNL     1       3.145   0.702   5.583  0.00  0.00    -0.026 A 
ATOM     30  C   UNL     1       4.358   1.115   6.099  0.00  0.00    +0.007 A 
ATOM     31  C   UNL     1       4.896   2.329   5.716  0.00  0.00    +0.020 A 
ATOM     32  C   UNL     1       4.222   3.134   4.815  0.00  0.00    +0.043 A 
ATOM     33  C   UNL     1       3.008   2.726   4.295  0.00  0.00    +0.046 A 
ATOM     34  C   UNL     1       2.468   1.504   4.675  0.00  0.00    +0.059 A 
ATOM     35 CL   UNL     1       4.901   4.659   4.337  0.00  0.00    -0.083 Cl
ENDBRANCH   1  34
TORSDOF 3
