REMARK  Name = ZINC13643708
REMARK  6 active torsions:
REMARK  status: ('A' for Active; 'I' for Inactive)
REMARK    1  A    between atoms: C_1  and  N_2
REMARK    2  A    between atoms: N_2  and  C_3
REMARK    3  A    between atoms: N_2  and  C_4
REMARK    4  A    between atoms: C_7  and  C_10
REMARK    5  A    between atoms: C_21  and  N_27
REMARK    6  A    between atoms: C_23  and  O_26
REMARK                            x       y       z     vdW  Elec       q    Type
REMARK                         _______ _______ _______ _____ _____    ______ ____
ROOT
ATOM      1  C   UNL     1      -0.716   0.671  -2.378  0.00  0.00    +0.105 C 
ATOM      2  C   UNL     1      -0.818   1.611  -1.188  0.00  0.00    +0.029 C 
ATOM      3  C   UNL     1      -0.011   1.052   0.010  0.00  0.00    +0.033 C 
ATOM      4  C   UNL     1      -0.778   1.560   1.216  0.00  0.00    -0.030 C 
ATOM      5  C   UNL     1      -2.013   1.855   0.879  0.00  0.00    -0.023 C 
ATOM      6  C   UNL     1      -2.243   1.588  -0.599  0.00  0.00    +0.049 C 
ATOM      7  C   UNL     1      -2.876   0.229  -0.749  0.00  0.00    -0.014 A 
ATOM      8  C   UNL     1      -4.138   0.043  -0.196  0.00  0.00    +0.039 A 
ATOM      9  C   UNL     1      -4.778  -1.175  -0.298  0.00  0.00    +0.130 A 
ATOM     10  C   UNL     1      -4.165  -2.228  -0.954  0.00  0.00    +0.080 A 
ATOM     11  C   UNL     1      -2.910  -2.053  -1.506  0.00  0.00    +0.140 A 
ATOM     12  C   UNL     1      -2.261  -0.818  -1.405  0.00  0.00    +0.074 A 
ATOM     13  N   UNL     1      -0.993  -0.694  -1.980  0.00  0.00    -0.334 N 
ATOM     14  H   UNL     1      -0.885  -1.330  -2.756  0.00  0.00    +0.147 HD
ENDROOT
BRANCH   1  18
ATOM     15  C   UNL     1       3.215   0.907  -4.040  0.00  0.00    +0.029 A 
ATOM     16  C   UNL     1       2.166   1.599  -4.633  0.00  0.00    +0.023 A 
ATOM     17  C   UNL     1       0.897   1.521  -4.093  0.00  0.00    +0.007 A 
ATOM     18  C   UNL     1       0.670   0.754  -2.964  0.00  0.00    -0.027 A 
ATOM     19  C   UNL     1       1.713   0.069  -2.369  0.00  0.00    +0.007 A 
ATOM     20  C   UNL     1       2.983   0.138  -2.907  0.00  0.00    +0.023 A 
BRANCH  15  22
ATOM     21  C   UNL     1       4.719   1.692  -5.847  0.00  0.00    +0.129 C 
ATOM     22  N   UNL     1       4.499   0.985  -4.583  0.00  0.00    -0.336 N 
ATOM     23  C   UNL     1       5.627   0.358  -3.889  0.00  0.00    +0.129 C 
ENDBRANCH  15  22
ENDBRANCH   1  18
BRANCH   9  24
ATOM     24  N   UNL     1      -6.121  -1.356   0.296  0.00  0.00    +0.057 N 
ATOM     25  O   UNL     1      -6.661  -0.429   0.874  0.00  0.00    -0.126 OA
ATOM     26  O   UNL     1      -6.687  -2.430   0.207  0.00  0.00    -0.126 OA
ENDBRANCH   9  24
BRANCH  11  27
ATOM     27  O   UNL     1      -2.304  -3.086  -2.152  0.00  0.00    -0.505 OA
ATOM     28  H   UNL     1      -2.499  -3.127  -3.098  0.00  0.00    +0.292 HD
ENDBRANCH  11  27
TORSDOF 4
