REMARK  Name = ZINC59334313
REMARK  10 active torsions:
REMARK  status: ('A' for Active; 'I' for Inactive)
REMARK    1  A    between atoms: C_1  and  C_2
REMARK    2  A    between atoms: C_2  and  C_4
REMARK    3  A    between atoms: C_2  and  N_11
REMARK    4  A    between atoms: N_11  and  C_12
REMARK    5  A    between atoms: N_11  and  C_23
REMARK    6  A    between atoms: C_12  and  C_13
REMARK    7  A    between atoms: N_18  and  C_19
REMARK    8  A    between atoms: C_19  and  C_20
REMARK    9  A    between atoms: C_20  and  C_21
REMARK   10  A    between atoms: C_20  and  C_22
REMARK                            x       y       z     vdW  Elec       q    Type
REMARK                         _______ _______ _______ _____ _____    ______ ____
ROOT
ATOM      1  N   UNL     1      -1.370  -0.513   0.133  0.00  0.00    +0.392 N 
ATOM      2  H   UNL     1      -1.883  -0.217  -0.683  0.00  0.00    -0.080 HD
ENDROOT
BRANCH   1   3
ATOM      3  C   UNL     1      -1.991   0.058   1.336  0.00  0.00    -0.067 C 
ATOM      4  C   UNL     1      -3.409   0.617   1.201  0.00  0.00    -0.017 C 
ATOM      5  C   UNL     1      -2.223   1.570   1.361  0.00  0.00    -0.017 C 
ENDBRANCH   1   3
BRANCH   1   7
ATOM      6  C   UNL     1       0.040   1.477  -0.091  0.00  0.00    -0.008 C 
ATOM      7  C   UNL     1       0.020  -0.048   0.032  0.00  0.00    -0.038 C 
BRANCH   7   8
ATOM      8  C   UNL     1       0.667  -0.659  -1.184  0.00  0.00    -0.043 A 
ATOM      9  C   UNL     1      -0.111  -1.060  -2.253  0.00  0.00    +0.003 A 
ATOM     10  C   UNL     1       0.482  -1.620  -3.369  0.00  0.00    +0.000 A 
ATOM     11  C   UNL     1       1.855  -1.780  -3.416  0.00  0.00    +0.001 A 
ATOM     12  C   UNL     1       2.634  -1.380  -2.347  0.00  0.00    +0.020 A 
ATOM     13  C   UNL     1       2.041  -0.814  -1.232  0.00  0.00    +0.043 A 
ATOM     14 CL   UNL     1       3.020  -0.304   0.108  0.00  0.00    -0.083 Cl
ENDBRANCH   7   8
ENDBRANCH   1   7
BRANCH   1  15
ATOM     15  C   UNL     1      -1.390  -1.979   0.220  0.00  0.00    +0.020 C 
BRANCH  15  16
ATOM     16  C   UNL     1      -2.817  -2.464   0.200  0.00  0.00    +0.204 C 
ATOM     17  O   UNL     1      -3.727  -1.666   0.121  0.00  0.00    -0.277 OA
ATOM     18  N   UNL     1      -3.082  -3.783   0.270  0.00  0.00    -0.242 N 
ATOM     19  C   UNL     1      -4.358  -4.216   0.252  0.00  0.00    +0.306 C 
ATOM     20  O   UNL     1      -5.270  -3.417   0.172  0.00  0.00    -0.252 OA
ATOM     21  N   UNL     1      -4.623  -5.536   0.322  0.00  0.00    -0.299 N 
ATOM     22  H   UNL     1      -2.354  -4.421   0.333  0.00  0.00    +0.159 HD
ATOM     23  H   UNL     1      -3.895  -6.174   0.385  0.00  0.00    +0.150 HD
BRANCH  21  24
ATOM     24  C   UNL     1      -6.010  -6.007   0.302  0.00  0.00    +0.108 C 
BRANCH  24  25
ATOM     25  C   UNL     1      -6.032  -7.534   0.392  0.00  0.00    -0.000 C 
ATOM     26  C   UNL     1      -5.475  -7.973   1.748  0.00  0.00    +0.009 C 
ATOM     27  C   UNL     1      -7.471  -8.034   0.247  0.00  0.00    +0.009 C 
ENDBRANCH  24  25
ENDBRANCH  21  24
ENDBRANCH  15  16
ENDBRANCH   1  15
TORSDOF 7
