REMARK  Name = ZINC39851829
REMARK  8 active torsions:
REMARK  status: ('A' for Active; 'I' for Inactive)
REMARK    1  A    between atoms: C_1  and  C_2
REMARK    2  A    between atoms: C_6  and  C_7
REMARK    3  A    between atoms: N_9  and  N_10
REMARK    4  A    between atoms: C_11  and  C_13
REMARK    5  A    between atoms: C_13  and  O_14
REMARK    6  A    between atoms: O_14  and  C_15
REMARK    7  A    between atoms: C_24  and  C_28
REMARK    8  A    between atoms: C_24  and  C_29
REMARK                            x       y       z     vdW  Elec       q    Type
REMARK                         _______ _______ _______ _____ _____    ______ ____
ROOT
ATOM      1  C   UNL     1       0.031  -0.394   2.491  0.00  0.00    +0.296 C 
ATOM      2  O   UNL     1       0.017   0.793   2.760  0.00  0.00    -0.265 OA
ATOM      3  N   UNL     1       0.053  -1.309   3.480  0.00  0.00    -0.228 N 
ATOM      4  H   UNL     1       0.065  -2.255   3.266  0.00  0.00    +0.173 HD
ENDROOT
BRANCH   1  10
ATOM      5  C   UNL     1      -0.018   1.503   0.010  0.00  0.00    +0.048 C 
ATOM      6  C   UNL     1       0.002  -0.004   0.002  0.00  0.00    +0.011 A 
ATOM      7  C   UNL     1       0.009  -0.840  -1.125  0.00  0.00    +0.062 A 
ATOM      8  C   UNL     1       0.027  -2.151  -0.662  0.00  0.00    +0.117 A 
ATOM      9  O   UNL     1       0.035  -2.113   0.663  0.00  0.00    -0.454 OA
ATOM     10  C   UNL     1       0.024  -0.829   1.089  0.00  0.00    +0.194 A 
ATOM     11  C   UNL     1       0.032  -3.344  -1.585  0.00  0.00    +0.082 C 
ATOM     12  C   UNL     1      -0.489  -2.920  -2.961  0.00  0.00    -0.021 C 
ATOM     13  C   UNL     1       0.284  -1.704  -3.482  0.00  0.00    +0.086 C 
ATOM     14  C   UNL     1       0.002  -0.526  -2.562  0.00  0.00    +0.167 C 
ATOM     15  O   UNL     1      -0.214   0.592  -2.982  0.00  0.00    -0.292 OA
ATOM     16  C   UNL     1      -1.973  -2.564  -2.851  0.00  0.00    +0.012 C 
ATOM     17  C   UNL     1      -0.322  -4.082  -3.942  0.00  0.00    +0.012 C 
ENDBRANCH   1  10
BRANCH   3  18
ATOM     18  N   UNL     1       0.060  -0.894   4.818  0.00  0.00    -0.231 N 
ATOM     19  C   UNL     1       0.082  -1.809   5.808  0.00  0.00    +0.267 C 
ATOM     20  O   UNL     1       0.097  -2.991   5.540  0.00  0.00    -0.271 OA
ATOM     21  H   UNL     1       0.048   0.052   5.033  0.00  0.00    +0.173 HD
BRANCH  19  22
ATOM     22  C   UNL     1       0.089  -1.362   7.247  0.00  0.00    +0.326 C 
BRANCH  22  23
ATOM     23  O   UNL     1       0.114  -2.508   8.101  0.00  0.00    -0.481 OA
BRANCH  23  24
ATOM     24  C   UNL     1       0.123  -2.278   9.441  0.00  0.00    +0.140 A 
ATOM     25  C   UNL     1       0.103  -0.978   9.923  0.00  0.00    +0.048 A 
ATOM     26  C   UNL     1       0.113  -0.747  11.285  0.00  0.00    +0.023 A 
ATOM     27  C   UNL     1       0.142  -1.811  12.169  0.00  0.00    +0.043 A 
ATOM     28  C   UNL     1       0.162  -3.109  11.691  0.00  0.00    +0.043 A 
ATOM     29  C   UNL     1       0.147  -3.345  10.329  0.00  0.00    +0.084 A 
ATOM     30 CL   UNL     1       0.164  -4.974   9.729  0.00  0.00    -0.080 Cl
ATOM     31 CL   UNL     1       0.154  -1.517  13.880  0.00  0.00    -0.083 Cl
ENDBRANCH  23  24
ENDBRANCH  22  23
ENDBRANCH  19  22
ENDBRANCH   3  18
TORSDOF 5
