REMARK  Name = ZINC18180061
REMARK  2 active torsions:
REMARK  status: ('A' for Active; 'I' for Inactive)
REMARK    1  A    between atoms: C_4  and  C_7
REMARK    2  A    between atoms: N_15  and  C_18
REMARK                            x       y       z     vdW  Elec       q    Type
REMARK                         _______ _______ _______ _____ _____    ______ ____
ROOT
ATOM      1  C   UNL     1       3.711  -0.707  -0.038  0.00  0.00    +0.163 C 
ATOM      2  C   UNL     1       4.080  -1.088  -1.461  0.00  0.00    +0.125 C 
ATOM      3  C   UNL     1       3.280  -2.450  -1.531  0.00  0.00    +0.138 C 
ATOM      4  C   UNL     1       3.294  -2.709  -2.950  0.00  0.00    +0.234 C 
ATOM      5  O   UNL     1       3.360  -3.786  -3.502  0.00  0.00    -0.274 OA
ATOM      6  N   UNL     1       3.214  -1.471  -3.539  0.00  0.00    -0.210 N 
ATOM      7  C   UNL     1       3.446  -0.436  -2.647  0.00  0.00    +0.233 C 
ATOM      8  O   UNL     1       3.201   0.743  -2.791  0.00  0.00    -0.274 OA
ATOM      9  C   UNL     1       3.676  -3.067  -0.259  0.00  0.00    +0.206 C 
ATOM     10  O   UNL     1       3.595  -1.961   0.691  0.00  0.00    -0.348 OA
ATOM     11  C   UNL     1       5.074  -3.627  -0.249  0.00  0.00    +0.204 C 
ATOM     12  O   UNL     1       6.088  -3.037  -0.555  0.00  0.00    -0.288 OA
ATOM     13  C   UNL     1       4.977  -5.027   0.204  0.00  0.00    +0.031 A 
ATOM     14  C   UNL     1       5.967  -5.995   0.389  0.00  0.00    +0.012 A 
ATOM     15  C   UNL     1       5.626  -7.259   0.830  0.00  0.00    +0.001 A 
ATOM     16  C   UNL     1       4.305  -7.578   1.091  0.00  0.00    +0.001 A 
ATOM     17  C   UNL     1       3.310  -6.636   0.913  0.00  0.00    +0.012 A 
ATOM     18  C   UNL     1       3.633  -5.352   0.468  0.00  0.00    +0.031 A 
ATOM     19  C   UNL     1       2.774  -4.182   0.200  0.00  0.00    +0.204 C 
ATOM     20  O   UNL     1       1.570  -4.129   0.327  0.00  0.00    -0.288 OA
ENDROOT
BRANCH   6  21
ATOM     21  C   UNL     1       2.929  -1.272  -4.898  0.00  0.00    +0.044 A 
ATOM     22  C   UNL     1       2.702  -2.363  -5.727  0.00  0.00    +0.027 A 
ATOM     23  C   UNL     1       2.421  -2.165  -7.064  0.00  0.00    +0.040 A 
ATOM     24  C   UNL     1       2.365  -0.881  -7.579  0.00  0.00    +0.124 A 
ATOM     25  C   UNL     1       2.591   0.208  -6.754  0.00  0.00    +0.040 A 
ATOM     26  C   UNL     1       2.867   0.015  -5.414  0.00  0.00    +0.027 A 
ATOM     27  F   UNL     1       2.091  -0.690  -8.888  0.00  0.00    -0.205 F 
ENDBRANCH   6  21
BRANCH   1  31
ATOM     28  C   UNL     1      -0.017   1.378   0.010  0.00  0.00    +0.000 A 
ATOM     29  C   UNL     1       1.171   2.086   0.002  0.00  0.00    +0.000 A 
ATOM     30  C   UNL     1       2.377   1.411  -0.013  0.00  0.00    +0.006 A 
ATOM     31  C   UNL     1       2.396   0.029  -0.020  0.00  0.00    -0.018 A 
ATOM     32  C   UNL     1       1.208  -0.679  -0.012  0.00  0.00    +0.006 A 
ATOM     33  C   UNL     1       0.002  -0.004   0.002  0.00  0.00    +0.000 A 
ENDBRANCH   1  31
TORSDOF 2
