REMARK  Name = ZINC67630026
REMARK  13 active torsions:
REMARK  status: ('A' for Active; 'I' for Inactive)
REMARK    1  A    between atoms: C_1  and  N_2
REMARK    2  A    between atoms: N_2  and  C_3
REMARK    3  A    between atoms: N_2  and  C_4
REMARK    4  A    between atoms: C_4  and  C_6
REMARK    5  A    between atoms: C_4  and  C_23
REMARK    6  A    between atoms: C_6  and  N_7
REMARK    7  A    between atoms: N_10  and  C_11
REMARK    8  A    between atoms: C_11  and  C_12
REMARK    9  A    between atoms: C_15  and  N_18
REMARK   10  A    between atoms: N_18  and  C_19
REMARK   11  A    between atoms: C_19  and  C_20
REMARK   12  A    between atoms: C_20  and  O_21
REMARK   13  A    between atoms: O_21  and  C_22
REMARK                            x       y       z     vdW  Elec       q    Type
REMARK                         _______ _______ _______ _____ _____    ______ ____
ROOT
ATOM      1  N   UNL     1      -1.766   1.531  -1.169  0.00  0.00    -0.301 N 
ATOM      2  C   UNL     1      -2.260   2.263  -2.188  0.00  0.00    +0.300 C 
ATOM      3  O   UNL     1      -2.936   1.731  -3.047  0.00  0.00    -0.253 OA
ATOM      4  N   UNL     1      -2.004   3.585  -2.254  0.00  0.00    -0.295 N 
ATOM      5  H   UNL     1      -1.227   1.956  -0.484  0.00  0.00    +0.150 HD
ATOM      6  H   UNL     1      -1.465   4.009  -1.569  0.00  0.00    +0.151 HD
ENDROOT
BRANCH   1   7
ATOM      7  C   UNL     1      -2.044   0.095  -1.098  0.00  0.00    +0.095 C 
BRANCH   7   8
ATOM      8  C   UNL     1      -1.281  -0.514   0.081  0.00  0.00    -0.021 C 
BRANCH   8   9
ATOM      9  C   UNL     1      -1.799   0.070   1.370  0.00  0.00    -0.059 A 
ATOM     10  C   UNL     1      -2.967  -0.414   1.928  0.00  0.00    +0.005 A 
ATOM     11  C   UNL     1      -3.443   0.120   3.110  0.00  0.00    +0.038 A 
ATOM     12  C   UNL     1      -2.748   1.141   3.736  0.00  0.00    +0.123 A 
ATOM     13  C   UNL     1      -1.578   1.625   3.177  0.00  0.00    +0.038 A 
ATOM     14  C   UNL     1      -1.102   1.086   1.997  0.00  0.00    +0.005 A 
ATOM     15  F   UNL     1      -3.212   1.665   4.892  0.00  0.00    -0.205 F 
ENDBRANCH   8   9
BRANCH   8  17
ATOM     16  C   UNL     1      -0.970  -2.540  -1.166  0.00  0.00    -0.096 C 
ATOM     17  N   UNL     1      -1.476  -1.970   0.090  0.00  0.00    +0.382 N 
ATOM     18  C   UNL     1      -0.744  -2.555   1.222  0.00  0.00    -0.096 C 
ATOM     19  H   UNL     1      -2.459  -2.178   0.182  0.00  0.00    -0.082 HD
ENDBRANCH   8  17
ENDBRANCH   7   8
ENDBRANCH   1   7
BRANCH   4  20
ATOM     20  C   UNL     1      -2.541   4.380  -3.361  0.00  0.00    +0.141 C 
BRANCH  20  21
ATOM     21  C   UNL     1      -2.113   5.816  -3.201  0.00  0.00    -0.030 A 
ATOM     22  C   UNL     1      -2.903   6.696  -2.483  0.00  0.00    +0.007 A 
ATOM     23  C   UNL     1      -2.514   8.012  -2.335  0.00  0.00    +0.023 A 
ATOM     24  C   UNL     1      -1.327   8.453  -2.908  0.00  0.00    +0.027 A 
ATOM     25  C   UNL     1      -0.537   7.567  -3.628  0.00  0.00    +0.023 A 
ATOM     26  C   UNL     1      -0.929   6.250  -3.768  0.00  0.00    +0.007 A 
BRANCH  24  27
ATOM     27  N   UNL     1      -0.931   9.784  -2.760  0.00  0.00    -0.342 N 
ATOM     28  H   UNL     1      -1.484  10.402  -2.257  0.00  0.00    +0.146 HD
BRANCH  27  29
ATOM     29  C   UNL     1       0.320  10.247  -3.365  0.00  0.00    +0.129 C 
BRANCH  29  30
ATOM     30  C   UNL     1       0.517  11.733  -3.055  0.00  0.00    +0.178 C 
BRANCH  30  31
ATOM     31  O   UNL     1       0.690  11.907  -1.648  0.00  0.00    -0.381 OA
ATOM     32  C   UNL     1       0.883  13.266  -1.250  0.00  0.00    +0.194 C 
ENDBRANCH  30  31
ENDBRANCH  29  30
ENDBRANCH  27  29
ENDBRANCH  24  27
ENDBRANCH  20  21
ENDBRANCH   4  20
TORSDOF 10
