REMARK  Name = ZINC39466022
REMARK  6 active torsions:
REMARK  status: ('A' for Active; 'I' for Inactive)
REMARK    1  A    between atoms: C_1  and  C_2
REMARK    2  A    between atoms: C_2  and  O_3
REMARK    3  A    between atoms: O_3  and  C_4
REMARK    4  A    between atoms: P_15  and  S_21
REMARK    5  A    between atoms: S_21  and  O_24
REMARK    6  A    between atoms: O_24  and  C_25
REMARK                            x       y       z     vdW  Elec       q    Type
REMARK                         _______ _______ _______ _____ _____    ______ ____
ROOT
ATOM      1  C   UNL     1       0.802  -1.825   1.306  0.00  0.00    +0.156 A 
ATOM      2  C   UNL     1       0.262  -2.674   0.354  0.00  0.00    +0.052 A 
ATOM      3  C   UNL     1       0.371  -4.048   0.500  0.00  0.00    -0.038 A 
ATOM      4  C   UNL     1       1.020  -4.576   1.595  0.00  0.00    -0.021 A 
ATOM      5  C   UNL     1       1.563  -3.727   2.550  0.00  0.00    +0.047 A 
ATOM      6  C   UNL     1       1.461  -2.357   2.407  0.00  0.00    +0.165 A 
ATOM      7  F   UNL     1       1.996  -1.537   3.338  0.00  0.00    -0.202 F 
ATOM      8  C   UNL     1       1.168  -6.061   1.799  0.00  0.00    +0.130 C 
ATOM      9  C   UNL     1       0.902  -6.393   3.270  0.00  0.00    +0.195 C 
ATOM     10  O   UNL     1       1.160  -7.795   3.481  0.00  0.00    -0.296 OA
ATOM     11  P   UNL     1       0.475  -8.866   2.466  0.00  0.00    +0.458 P 
ATOM     12  O   UNL     1       1.244 -10.130   2.461  0.00  0.00    -0.243 OA
ATOM     13  N   UNL     1       0.526  -8.159   0.973  0.00  0.00    -0.158 NA
ATOM     14  N   UNL     1       0.252  -6.807   0.936  0.00  0.00    -0.224 NA
ATOM     15  C   UNL     1       0.338  -6.335  -0.455  0.00  0.00    +0.108 C 
ATOM     16  C   UNL     1      -0.235  -4.934  -0.558  0.00  0.00    +0.052 C 
ATOM     17  H   UNL     1       0.730  -8.670   0.174  0.00  0.00    +0.152 HD
ENDROOT
BRANCH  11  18
ATOM     18  S   UNL     1      -1.533  -9.235   3.038  0.00  0.00    +0.211 S 
ATOM     19  O   UNL     1      -2.172  -7.968   3.116  0.00  0.00    -0.126 OA
ATOM     20  O   UNL     1      -2.009 -10.277   2.198  0.00  0.00    -0.126 OA
BRANCH  18  21
ATOM     21  O   UNL     1      -1.503  -9.795   4.452  0.00  0.00    -0.339 OA
BRANCH  21  22
ATOM     22  C   UNL     1      -1.250  -8.864   5.410  0.00  0.00    +0.157 A 
ATOM     23  C   UNL     1       0.057  -8.594   5.788  0.00  0.00    +0.048 A 
ATOM     24  C   UNL     1       0.312  -7.647   6.761  0.00  0.00    +0.004 A 
ATOM     25  C   UNL     1      -0.735  -6.970   7.359  0.00  0.00    +0.000 A 
ATOM     26  C   UNL     1      -2.039  -7.238   6.985  0.00  0.00    +0.004 A 
ATOM     27  C   UNL     1      -2.298  -8.180   6.008  0.00  0.00    +0.048 A 
ENDBRANCH  21  22
ENDBRANCH  18  21
ENDBRANCH  11  18
BRANCH   1  28
ATOM     28  O   UNL     1       0.693  -0.477   1.160  0.00  0.00    -0.489 OA
BRANCH  28  30
ATOM     29  C   UNL     1      -0.019   1.526   0.010  0.00  0.00    +0.048 C 
ATOM     30  C   UNL     1       0.002  -0.004   0.002  0.00  0.00    +0.226 C 
ENDBRANCH  28  30
ENDBRANCH   1  28
TORSDOF 5
