REMARK  Name = ZINC29876558
REMARK  4 active torsions:
REMARK  status: ('A' for Active; 'I' for Inactive)
REMARK    1  A    between atoms: C_5  and  S_7
REMARK    2  A    between atoms: S_7  and  N_10
REMARK    3  A    between atoms: N_10  and  C_11
REMARK    4  A    between atoms: C_13  and  C_19
REMARK                            x       y       z     vdW  Elec       q    Type
REMARK                         _______ _______ _______ _____ _____    ______ ____
ROOT
ATOM      1  C   UNL     1       3.109  -2.671  -1.851  0.00  0.00    +0.110 A 
ATOM      2  C   UNL     1       4.124  -2.697  -0.909  0.00  0.00    +0.044 A 
ATOM      3  C   UNL     1       5.422  -2.343  -1.278  0.00  0.00    +0.056 A 
ATOM      4  C   UNL     1       5.688  -1.953  -2.593  0.00  0.00    +0.137 A 
ATOM      5  C   UNL     1       4.668  -1.925  -3.525  0.00  0.00    +0.079 A 
ATOM      6  C   UNL     1       3.382  -2.281  -3.159  0.00  0.00    +0.151 A 
ATOM      7  F   UNL     1       2.388  -2.252  -4.074  0.00  0.00    -0.203 F 
ATOM      8  F   UNL     1       6.943  -1.605  -2.954  0.00  0.00    -0.205 F 
ENDROOT
BRANCH   3   9
ATOM      9  C   UNL     1       6.512  -2.375  -0.279  0.00  0.00    +0.167 A 
ATOM     10  N   UNL     1       7.396  -1.426  -0.051  0.00  0.00    -0.129 NA
ATOM     11  N   UNL     1       8.191  -1.790   0.893  0.00  0.00    -0.134 NA
ATOM     12  C   UNL     1       7.862  -2.977   1.319  0.00  0.00    +0.134 A 
ATOM     13  N   UNL     1       6.792  -3.391   0.588  0.00  0.00    -0.311 N 
ATOM     14  C   UNL     1       6.109  -4.680   0.696  0.00  0.00    +0.125 C 
ATOM     15  C   UNL     1       6.248  -5.206   2.128  0.00  0.00    +0.022 C 
ATOM     16  C   UNL     1       7.518  -6.046   2.247  0.00  0.00    +0.002 C 
ATOM     17  C   UNL     1       8.752  -5.200   1.945  0.00  0.00    +0.008 C 
ATOM     18  C   UNL     1       8.520  -3.764   2.424  0.00  0.00    +0.076 C 
ENDBRANCH   3   9
BRANCH   1  19
ATOM     19  N   UNL     1       1.806  -3.030  -1.485  0.00  0.00    -0.095 NA
BRANCH  19  20
ATOM     20  S   UNL     1       0.964  -2.102  -0.401  0.00  0.00    +0.094 S 
ATOM     21  O   UNL     1       1.839  -1.861   0.692  0.00  0.00    -0.148 OA
ATOM     22  O   UNL     1      -0.306  -2.719  -0.239  0.00  0.00    -0.148 OA
BRANCH  20  27
ATOM     23  C   UNL     1      -0.861   1.073  -2.059  0.00  0.00    +0.004 A 
ATOM     24  C   UNL     1       0.133   1.932  -2.389  0.00  0.00    +0.031 A 
ATOM     25  C   UNL     1       1.484   1.592  -2.119  0.00  0.00    +0.102 A 
ATOM     26  C   UNL     1       1.764   0.307  -1.485  0.00  0.00    +0.126 A 
ATOM     27  C   UNL     1       0.673  -0.542  -1.167  0.00  0.00    +0.138 A 
ATOM     28  C   UNL     1      -0.593  -0.155  -1.453  0.00  0.00    +0.031 A 
ATOM     29  N   UNL     1       3.068   0.119  -1.291  0.00  0.00    -0.189 NA
ATOM     30  S   UNL     1       3.782   1.399  -1.845  0.00  0.00    +0.117 S 
ATOM     31  N   UNL     1       2.596   2.284  -2.360  0.00  0.00    -0.191 NA
ENDBRANCH  20  27
ENDBRANCH  19  20
ENDBRANCH   1  19
TORSDOF 4
