REMARK  Name = ZINC13337145
REMARK  11 active torsions:
REMARK  status: ('A' for Active; 'I' for Inactive)
REMARK    1  A    between atoms: C_1  and  C_2
REMARK    2  A    between atoms: C_2  and  C_4
REMARK    3  A    between atoms: C_2  and  N_6
REMARK    4  A    between atoms: N_6  and  S_7
REMARK    5  A    between atoms: S_7  and  C_10
REMARK    6  A    between atoms: C_13  and  C_16
REMARK    7  A    between atoms: C_16  and  C_32
REMARK    8  A    between atoms: N_17  and  N_18
REMARK    9  A    between atoms: N_18  and  C_19
REMARK   10  A    between atoms: C_22  and  C_28
REMARK   11  A    between atoms: C_24  and  N_25
REMARK                            x       y       z     vdW  Elec       q    Type
REMARK                         _______ _______ _______ _____ _____    ______ ____
ROOT
ATOM      1  C   UNL     1       2.326   1.053  -0.077  0.00  0.00    +0.063 C 
ATOM      2  N   UNL     1       1.192   1.686  -0.051  0.00  0.00    -0.187 NA
ATOM      3  C   UNL     1       2.348  -0.454  -0.075  0.00  0.00    +0.068 C 
ENDROOT
BRANCH   1   7
ATOM      4  C   UNL     1       5.969   3.228  -0.171  0.00  0.00    +0.105 A 
ATOM      5  C   UNL     1       4.763   3.906  -0.143  0.00  0.00    +0.029 A 
ATOM      6  C   UNL     1       3.575   3.206  -0.112  0.00  0.00    +0.011 A 
ATOM      7  C   UNL     1       3.591   1.809  -0.110  0.00  0.00    -0.002 A 
ATOM      8  C   UNL     1       4.813   1.131  -0.133  0.00  0.00    +0.011 A 
ATOM      9  C   UNL     1       5.993   1.845  -0.170  0.00  0.00    +0.029 A 
BRANCH   4  10
ATOM     10  S   UNL     1       7.481   4.131  -0.210  0.00  0.00    +0.059 S 
ATOM     11  O   UNL     1       8.454   3.269  -0.784  0.00  0.00    -0.153 OA
ATOM     12  O   UNL     1       7.178   5.408  -0.756  0.00  0.00    -0.153 OA
BRANCH  10  13
ATOM     13  N   UNL     1       7.941   4.385   1.360  0.00  0.00    -0.176 NA
ATOM     14  H   UNL     1       7.974   5.287   1.716  0.00  0.00    +0.149 HD
BRANCH  13  16
ATOM     15  C   UNL     1       9.814   3.046   2.185  0.00  0.00    +0.038 C 
ATOM     16  C   UNL     1       8.297   3.248   2.212  0.00  0.00    +0.186 C 
BRANCH  16  17
ATOM     17  C   UNL     1       7.852   3.520   3.626  0.00  0.00    +0.374 C 
ATOM     18  O   UNL     1       7.294   4.558   3.894  0.00  0.00    -0.245 OA
ATOM     19  O   UNL     1       8.075   2.610   4.587  0.00  0.00    -0.245 OA
ENDBRANCH  16  17
ENDBRANCH  13  16
ENDBRANCH  10  13
ENDBRANCH   4  10
ENDBRANCH   1   7
BRANCH   2  20
ATOM     20  N   UNL     1      -0.010   0.968  -0.020  0.00  0.00    -0.235 N 
ATOM     21  H   UNL     1       0.004  -0.002  -0.018  0.00  0.00    +0.174 HD
BRANCH  20  22
ATOM     22  C   UNL     1      -1.228   1.648   0.003  0.00  0.00    +0.078 A 
ATOM     23  C   UNL     1      -1.251   3.034   0.110  0.00  0.00    +0.027 A 
ATOM     24  C   UNL     1      -2.458   3.703   0.132  0.00  0.00    +0.014 A 
ATOM     25  C   UNL     1      -3.644   2.997   0.048  0.00  0.00    +0.057 A 
ATOM     26  C   UNL     1      -3.626   1.618  -0.058  0.00  0.00    +0.047 A 
ATOM     27  C   UNL     1      -2.422   0.942  -0.086  0.00  0.00    +0.149 A 
BRANCH  25  28
ATOM     28  C   UNL     1      -4.960   3.731   0.072  0.00  0.00    +0.417 C 
ATOM     29  F   UNL     1      -4.724   5.106   0.184  0.00  0.00    -0.166 F 
ATOM     30  F   UNL     1      -5.660   3.473  -1.111  0.00  0.00    -0.166 F 
ATOM     31  F   UNL     1      -5.716   3.297   1.166  0.00  0.00    -0.166 F 
ENDBRANCH  25  28
BRANCH  27  32
ATOM     32  N   UNL     1      -2.403  -0.533  -0.206  0.00  0.00    +0.058 N 
ATOM     33  O   UNL     1      -3.442  -1.143  -0.388  0.00  0.00    -0.126 OA
ATOM     34  O   UNL     1      -1.349  -1.138  -0.123  0.00  0.00    -0.126 OA
ENDBRANCH  27  32
ENDBRANCH  20  22
ENDBRANCH   2  20
TORSDOF 9
