REMARK  Name = ZINC39895311
REMARK  11 active torsions:
REMARK  status: ('A' for Active; 'I' for Inactive)
REMARK    1  A    between atoms: C_1  and  C_2
REMARK    2  A    between atoms: C_2  and  C_3
REMARK    3  A    between atoms: C_2  and  C_4
REMARK    4  A    between atoms: C_7  and  N_10
REMARK    5  A    between atoms: N_10  and  C_11
REMARK    6  A    between atoms: C_12  and  C_29
REMARK    7  A    between atoms: C_16  and  C_23
REMARK    8  A    between atoms: C_17  and  C_21
REMARK    9  A    between atoms: C_18  and  N_20
REMARK   10  A    between atoms: N_31  and  C_32
REMARK   11  A    between atoms: C_32  and  C_33
REMARK                            x       y       z     vdW  Elec       q    Type
REMARK                         _______ _______ _______ _____ _____    ______ ____
ROOT
ATOM      1  C   UNL     1       2.071  -2.606   5.553  0.00  0.00    +0.085 A 
ATOM      2  C   UNL     1       2.538  -3.060   6.780  0.00  0.00    +0.091 A 
ATOM      3  C   UNL     1       1.618  -3.815   7.630  0.00  0.00    +0.095 A 
ATOM      4  C   UNL     1       0.331  -4.000   7.091  0.00  0.00    +0.049 A 
ATOM      5  S   UNL     1       0.384  -3.179   5.520  0.00  0.00    -0.071 S 
ATOM      6  C   UNL     1      -0.656  -4.695   7.774  0.00  0.00    +0.019 A 
ATOM      7  C   UNL     1      -0.333  -5.223   9.045  0.00  0.00    +0.100 A 
ATOM      8  C   UNL     1       0.968  -5.009   9.536  0.00  0.00    +0.135 A 
ATOM      9  N   UNL     1       1.866  -4.343   8.848  0.00  0.00    -0.230 NA
ENDROOT
BRANCH   6  10
ATOM     10  C   UNL     1      -2.004  -4.878   7.190  0.00  0.00    -0.015 A 
ATOM     11  C   UNL     1      -2.825  -3.773   6.965  0.00  0.00    +0.008 A 
ATOM     12  C   UNL     1      -4.081  -3.950   6.420  0.00  0.00    +0.001 A 
ATOM     13  C   UNL     1      -4.526  -5.219   6.098  0.00  0.00    +0.000 A 
ATOM     14  C   UNL     1      -3.716  -6.319   6.319  0.00  0.00    +0.001 A 
ATOM     15  C   UNL     1      -2.456  -6.155   6.857  0.00  0.00    +0.008 A 
ENDBRANCH   6  10
BRANCH   2  16
ATOM     16  C   UNL     1       3.910  -2.791   7.209  0.00  0.00    +0.249 C 
ATOM     17  O   UNL     1       4.163  -1.781   7.842  0.00  0.00    -0.270 OA
ATOM     18  N   UNL     1       4.894  -3.660   6.905  0.00  0.00    -0.304 N 
ATOM     19  H   UNL     1       4.692  -4.464   6.401  0.00  0.00    +0.149 HD
BRANCH  18  20
ATOM     20  C   UNL     1       6.268  -3.390   7.335  0.00  0.00    +0.179 C 
BRANCH  20  21
ATOM     21  C   UNL     1       7.168  -4.506   6.871  0.00  0.00    +0.122 A 
ATOM     22  C   UNL     1       7.828  -4.550   5.700  0.00  0.00    +0.046 A 
ATOM     23  C   UNL     1       8.546  -5.767   5.679  0.00  0.00    +0.041 A 
ATOM     24  C   UNL     1       8.282  -6.395   6.839  0.00  0.00    +0.195 A 
ATOM     25  O   UNL     1       7.451  -5.624   7.560  0.00  0.00    -0.466 OA
ENDBRANCH  20  21
ENDBRANCH  18  20
ENDBRANCH   2  16
BRANCH   8  26
ATOM     26  N   UNL     1       1.311  -5.516  10.780  0.00  0.00    -0.342 N 
ATOM     27  H   UNL     1       0.658  -6.010  11.299  0.00  0.00    +0.144 HD
ATOM     28  H   UNL     1       2.204  -5.376  11.131  0.00  0.00    +0.144 HD
ENDBRANCH   8  26
BRANCH   1  29
ATOM     29  N   UNL     1       2.745  -1.883   4.597  0.00  0.00    -0.308 N 
ATOM     30  H   UNL     1       3.693  -1.705   4.702  0.00  0.00    +0.153 HD
BRANCH  29  34
ATOM     31  C   UNL     1       0.719  -0.455   1.250  0.00  0.00    -0.045 A 
ATOM     32  C   UNL     1       0.070  -0.531   2.469  0.00  0.00    +0.006 A 
ATOM     33  C   UNL     1       0.739  -1.004   3.581  0.00  0.00    +0.023 A 
ATOM     34  C   UNL     1       2.065  -1.404   3.474  0.00  0.00    +0.032 A 
ATOM     35  C   UNL     1       2.714  -1.327   2.248  0.00  0.00    +0.023 A 
ATOM     36  C   UNL     1       2.038  -0.857   1.139  0.00  0.00    +0.006 A 
BRANCH  31  38
ATOM     37  C   UNL     1      -1.230  -0.825  -0.237  0.00  0.00    +0.012 C 
ATOM     38  C   UNL     1      -0.014   0.062   0.039  0.00  0.00    +0.013 C 
ATOM     39  C   UNL     1      -0.477   1.497   0.297  0.00  0.00    +0.012 C 
ENDBRANCH  31  38
ENDBRANCH  29  34
ENDBRANCH   1  29
BRANCH   7  40
ATOM     40  C   UNL     1      -1.301  -5.952   9.809  0.00  0.00    +0.103 C 
ATOM     41  N   UNL     1      -2.068  -6.529  10.415  0.00  0.00    -0.191 NA
ENDBRANCH   7  40
TORSDOF 9
