REMARK  Name = ZINC12606492
REMARK  7 active torsions:
REMARK  status: ('A' for Active; 'I' for Inactive)
REMARK    1  A    between atoms: C_1  and  N_2
REMARK    2  A    between atoms: C_3  and  C_5
REMARK    3  A    between atoms: C_10  and  N_11
REMARK    4  A    between atoms: N_11  and  C_12
REMARK    5  A    between atoms: C_12  and  C_13
REMARK    6  A    between atoms: N_15  and  C_16
REMARK    7  A    between atoms: C_17  and  C_26
REMARK                            x       y       z     vdW  Elec       q    Type
REMARK                         _______ _______ _______ _____ _____    ______ ____
ROOT
ATOM      1  C   UNL     1      -4.728   5.107   0.561  0.00  0.00    +0.235 C 
ATOM      2  O   UNL     1      -3.603   5.543   0.440  0.00  0.00    -0.274 OA
ATOM      3  N   UNL     1      -5.759   5.950   0.769  0.00  0.00    -0.278 N 
ATOM      4  H   UNL     1      -6.659   5.601   0.866  0.00  0.00    +0.155 HD
ENDROOT
BRANCH   3   5
ATOM      5  C   UNL     1      -5.532   7.317   0.847  0.00  0.00    +0.090 A 
ATOM      6  C   UNL     1      -6.453   8.332   1.048  0.00  0.00    +0.084 A 
ATOM      7  C   UNL     1      -5.955   9.700   1.097  0.00  0.00    -0.018 A 
ATOM      8  C   UNL     1      -4.622   9.826   0.919  0.00  0.00    -0.004 A 
ATOM      9  S   UNL     1      -4.031   8.169   0.707  0.00  0.00    -0.077 S 
ATOM     10  C   UNL     1      -3.819  11.089   0.890  0.00  0.00    +0.043 C 
ATOM     11  C   UNL     1      -4.191  11.954   2.101  0.00  0.00    +0.005 C 
ATOM     12  C   UNL     1      -5.355  12.859   1.708  0.00  0.00    +0.001 C 
ATOM     13  C   UNL     1      -6.260  12.146   0.705  0.00  0.00    +0.005 C 
ATOM     14  C   UNL     1      -6.869  10.896   1.331  0.00  0.00    +0.037 C 
BRANCH   6  15
ATOM     15  C   UNL     1      -7.847   8.046   1.208  0.00  0.00    +0.102 C 
ATOM     16  N   UNL     1      -8.953   7.819   1.334  0.00  0.00    -0.191 NA
ENDBRANCH   6  15
ENDBRANCH   3   5
BRANCH   1  17
ATOM     17  C   UNL     1      -4.974   3.622   0.477  0.00  0.00    +0.198 C 
BRANCH  17  18
ATOM     18  N   UNL     1      -3.704   2.929   0.247  0.00  0.00    -0.335 N 
ATOM     19  H   UNL     1      -2.881   3.437   0.174  0.00  0.00    +0.147 HD
BRANCH  18  25
ATOM     20  C   UNL     1      -2.454   0.869   0.029  0.00  0.00    +0.057 A 
ATOM     21  C   UNL     1      -2.443  -0.524  -0.090  0.00  0.00    +0.015 A 
ATOM     22  C   UNL     1      -3.630  -1.222  -0.092  0.00  0.00    +0.001 A 
ATOM     23  C   UNL     1      -4.838  -0.551   0.011  0.00  0.00    +0.002 A 
ATOM     24  C   UNL     1      -4.866   0.824   0.124  0.00  0.00    +0.024 A 
ATOM     25  C   UNL     1      -3.678   1.546   0.134  0.00  0.00    +0.040 A 
BRANCH  20  28
ATOM     26  C   UNL     1       1.248   1.712   0.054  0.00  0.00    +0.128 C 
ATOM     27  N   UNL     1      -0.011   0.963   0.051  0.00  0.00    -0.314 N 
ATOM     28  C   UNL     1      -1.186   1.622   0.038  0.00  0.00    +0.246 C 
ATOM     29  O   UNL     1      -1.202   2.838   0.033  0.00  0.00    -0.270 OA
ATOM     30  H   UNL     1       0.002  -0.006   0.056  0.00  0.00    +0.149 HD
ENDBRANCH  20  28
ENDBRANCH  18  25
ENDBRANCH  17  18
ENDBRANCH   1  17
TORSDOF 6
