REMARK  Name = ZINC43107598
REMARK  10 active torsions:
REMARK  status: ('A' for Active; 'I' for Inactive)
REMARK    1  A    between atoms: C_1  and  C_2
REMARK    2  A    between atoms: N_4  and  N_5
REMARK    3  A    between atoms: N_8  and  C_9
REMARK    4  A    between atoms: C_9  and  C_10
REMARK    5  A    between atoms: C_10  and  C_12
REMARK    6  A    between atoms: C_10  and  C_22
REMARK    7  A    between atoms: C_16  and  O_20
REMARK    8  A    between atoms: C_17  and  O_18
REMARK    9  A    between atoms: O_18  and  C_19
REMARK   10  A    between atoms: O_20  and  C_21
REMARK                            x       y       z     vdW  Elec       q    Type
REMARK                         _______ _______ _______ _____ _____    ______ ____
ROOT
ATOM      1  C   UNL     1      -5.906  -1.898   0.048  0.00  0.00    +0.072 C 
ENDROOT
BRANCH   1   2
ATOM      2  C   UNL     1      -7.198  -2.664  -0.067  0.00  0.00    -0.013 A 
ATOM      3  C   UNL     1      -7.652  -3.597   0.785  0.00  0.00    +0.088 A 
ATOM      4  N   UNL     1      -8.861  -4.073   0.354  0.00  0.00    -0.360 N 
ATOM      5  H   UNL     1      -9.384  -4.754   0.805  0.00  0.00    +0.165 HD
ATOM      6  C   UNL     1      -9.222  -3.443  -0.816  0.00  0.00    +0.047 A 
ATOM      7  C   UNL     1      -8.200  -2.528  -1.127  0.00  0.00    +0.003 A 
ATOM      8  C   UNL     1      -8.300  -1.735  -2.272  0.00  0.00    +0.010 A 
ATOM      9  C   UNL     1      -9.395  -1.849  -3.082  0.00  0.00    +0.001 A 
ATOM     10  C   UNL     1     -10.408  -2.747  -2.777  0.00  0.00    +0.002 A 
ATOM     11  C   UNL     1     -10.325  -3.546  -1.657  0.00  0.00    +0.026 A 
ENDBRANCH   1   2
BRANCH   1  12
ATOM     12  C   UNL     1      -5.896  -1.122   1.340  0.00  0.00    +0.007 A 
ATOM     13  C   UNL     1      -5.993  -1.788   2.548  0.00  0.00    +0.008 A 
ATOM     14  C   UNL     1      -5.984  -1.080   3.734  0.00  0.00    +0.004 A 
ATOM     15  C   UNL     1      -5.878   0.299   3.719  0.00  0.00    +0.049 A 
ATOM     16  C   UNL     1      -5.781   0.973   2.513  0.00  0.00    +0.162 A 
ATOM     17  C   UNL     1      -5.784   0.259   1.318  0.00  0.00    +0.165 A 
BRANCH  17  18
ATOM     18  O   UNL     1      -5.683   0.915   0.131  0.00  0.00    -0.491 OA
ATOM     19  C   UNL     1      -6.903   1.331  -0.486  0.00  0.00    +0.277 C 
ENDBRANCH  17  18
BRANCH  16  20
ATOM     20  O   UNL     1      -5.677   2.329   2.496  0.00  0.00    -0.491 OA
ATOM     21  C   UNL     1      -5.675   2.995   3.760  0.00  0.00    +0.277 C 
ENDBRANCH  16  20
ENDBRANCH   1  12
BRANCH   1  22
ATOM     22  C   UNL     1      -4.729  -2.876   0.032  0.00  0.00    +0.118 C 
BRANCH  22  26
ATOM     23  N   UNL     1      -1.137  -2.095   0.002  0.00  0.00    -0.218 N 
ATOM     24  C   UNL     1      -2.295  -2.784   0.009  0.00  0.00    +0.316 C 
ATOM     25  O   UNL     1      -2.278  -4.000   0.002  0.00  0.00    -0.251 OA
ATOM     26  N   UNL     1      -3.471  -2.126   0.024  0.00  0.00    -0.297 N 
ATOM     27  H   UNL     1      -0.290  -2.568  -0.009  0.00  0.00    +0.174 HD
ATOM     28  H   UNL     1      -3.484  -1.157   0.029  0.00  0.00    +0.150 HD
BRANCH  23  32
ATOM     29  C   UNL     1      -0.018   1.503   0.010  0.00  0.00    +0.110 C 
ATOM     30  C   UNL     1       0.002  -0.004   0.002  0.00  0.00    +0.226 C 
ATOM     31  O   UNL     1       1.060  -0.596  -0.011  0.00  0.00    -0.275 OA
ATOM     32  N   UNL     1      -1.156  -0.694   0.009  0.00  0.00    -0.233 N 
ATOM     33  H   UNL     1      -2.002  -0.220   0.020  0.00  0.00    +0.173 HD
ENDBRANCH  23  32
ENDBRANCH  22  26
ENDBRANCH   1  22
TORSDOF 7
