REMARK  Name = ZINC39921240
REMARK  4 active torsions:
REMARK  status: ('A' for Active; 'I' for Inactive)
REMARK    1  A    between atoms: C_4  and  O_27
REMARK    2  A    between atoms: C_5  and  C_7
REMARK    3  A    between atoms: C_22  and  N_26
REMARK    4  A    between atoms: C_23  and  C_24
REMARK                            x       y       z     vdW  Elec       q    Type
REMARK                         _______ _______ _______ _____ _____    ______ ____
ROOT
ATOM      1  C   UNL     1       1.227  -2.187  -0.022  0.00  0.00    +0.087 C 
ATOM      2  C   UNL     1       0.501  -2.698  -1.270  0.00  0.00    +0.154 C 
ATOM      3  C   UNL     1       0.220  -4.167  -0.999  0.00  0.00    +0.129 C 
ATOM      4  C   UNL     1       0.747  -5.104  -1.874  0.00  0.00    +0.035 A 
ATOM      5  C   UNL     1       0.513  -6.484  -1.699  0.00  0.00    +0.013 A 
ATOM      6  C   UNL     1       1.042  -7.373  -2.583  0.00  0.00    +0.001 A 
ATOM      7  C   UNL     1       1.814  -6.950  -3.660  0.00  0.00    +0.002 A 
ATOM      8  C   UNL     1       2.078  -5.632  -3.881  0.00  0.00    +0.024 A 
ATOM      9  C   UNL     1       1.565  -4.657  -3.009  0.00  0.00    +0.044 A 
ATOM     10  N   UNL     1       1.831  -3.363  -3.220  0.00  0.00    -0.284 N 
ATOM     11  C   UNL     1       1.371  -2.367  -2.462  0.00  0.00    +0.229 C 
ATOM     12  O   UNL     1       1.647  -1.208  -2.712  0.00  0.00    -0.275 OA
ATOM     13  O   UNL     1      -0.508  -4.489   0.072  0.00  0.00    -0.444 OA
ATOM     14  C   UNL     1      -0.258  -3.793   1.207  0.00  0.00    +0.198 C 
ATOM     15  C   UNL     1       0.539  -2.703   1.212  0.00  0.00    +0.095 C 
ATOM     16  H   UNL     1       2.390  -3.130  -3.979  0.00  0.00    +0.155 HD
ENDROOT
BRANCH   1  21
ATOM     17  C   UNL     1      -0.017   1.378   0.010  0.00  0.00    +0.001 A 
ATOM     18  C   UNL     1       1.170   2.088   0.002  0.00  0.00    +0.004 A 
ATOM     19  C   UNL     1       2.377   1.417  -0.013  0.00  0.00    +0.046 A 
ATOM     20  C   UNL     1       2.399   0.030  -0.021  0.00  0.00    +0.121 A 
ATOM     21  C   UNL     1       1.207  -0.680  -0.013  0.00  0.00    +0.003 A 
ATOM     22  C   UNL     1       0.002  -0.004   0.002  0.00  0.00    +0.008 A 
BRANCH  20  23
ATOM     23  O   UNL     1       3.586  -0.632  -0.037  0.00  0.00    -0.506 OA
ATOM     24  H   UNL     1       3.938  -0.829   0.842  0.00  0.00    +0.292 HD
ENDBRANCH  20  23
ENDBRANCH   1  21
BRANCH  14  25
ATOM     25  N   UNL     1      -0.831  -4.206   2.384  0.00  0.00    -0.328 N 
ATOM     26  H   UNL     1      -1.407  -4.987   2.395  0.00  0.00    +0.145 HD
ATOM     27  H   UNL     1      -0.661  -3.717   3.204  0.00  0.00    +0.145 HD
ENDBRANCH  14  25
BRANCH  15  28
ATOM     28  C   UNL     1       0.740  -2.009   2.449  0.00  0.00    +0.100 C 
ATOM     29  N   UNL     1       0.898  -1.458   3.429  0.00  0.00    -0.191 NA
ENDBRANCH  15  28
TORSDOF 4
