REMARK  Name = ZINC44784634
REMARK  6 active torsions:
REMARK  status: ('A' for Active; 'I' for Inactive)
REMARK    1  A    between atoms: C_1  and  C_2
REMARK    2  A    between atoms: C_5  and  N_9
REMARK    3  A    between atoms: C_7  and  C_8
REMARK    4  A    between atoms: C_10  and  C_12
REMARK    5  A    between atoms: C_12  and  C_18
REMARK    6  A    between atoms: N_19  and  O_20
REMARK                            x       y       z     vdW  Elec       q    Type
REMARK                         _______ _______ _______ _____ _____    ______ ____
ROOT
ATOM      1  C   UNL     1      -0.030  -6.228  -1.242  0.00  0.00    +0.105 C 
ATOM      2  C   UNL     1      -1.343  -6.217  -0.457  0.00  0.00    +0.024 C 
ATOM      3  C   UNL     1      -2.425  -5.516  -1.282  0.00  0.00    +0.001 C 
ATOM      4  C   UNL     1      -2.625  -6.264  -2.601  0.00  0.00    +0.000 C 
ATOM      5  C   UNL     1      -1.312  -6.275  -3.386  0.00  0.00    +0.001 C 
ATOM      6  C   UNL     1      -0.231  -6.976  -2.562  0.00  0.00    +0.024 C 
ENDROOT
BRANCH   1   7
ATOM      7  C   UNL     1       1.035  -6.919  -0.430  0.00  0.00    +0.147 C 
ATOM      8  N   UNL     1       1.716  -7.887  -0.948  0.00  0.00    -0.076 NA
ATOM      9  N   UNL     1       1.282  -6.518   0.864  0.00  0.00    -0.343 N 
ATOM     10  H   UNL     1       0.664  -5.921   1.313  0.00  0.00    +0.144 HD
ATOM     11  H   UNL     1       2.075  -6.833   1.326  0.00  0.00    +0.144 HD
BRANCH   8  12
ATOM     12  O   UNL     1       2.717  -8.536  -0.185  0.00  0.00    -0.408 OA
ATOM     13  H   UNL     1       3.172  -9.247  -0.657  0.00  0.00    +0.328 HD
ENDBRANCH   8  12
ENDBRANCH   1   7
BRANCH   1  15
ATOM     14  N   UNL     1       0.304  -3.873  -0.565  0.00  0.00    -0.285 N 
ATOM     15  C   UNL     1       0.396  -4.811  -1.528  0.00  0.00    +0.231 C 
ATOM     16  O   UNL     1       0.821  -4.515  -2.625  0.00  0.00    -0.274 OA
ATOM     17  H   UNL     1       0.039  -4.124   0.334  0.00  0.00    +0.155 HD
BRANCH  14  22
ATOM     18  C   UNL     1       1.467   1.548  -1.768  0.00  0.00    +0.044 C 
ATOM     19  C   UNL     1       1.158   0.108  -1.448  0.00  0.00    -0.047 A 
ATOM     20  C   UNL     1       1.857  -0.904  -2.080  0.00  0.00    +0.005 A 
ATOM     21  C   UNL     1       1.577  -2.225  -1.789  0.00  0.00    +0.023 A 
ATOM     22  C   UNL     1       0.591  -2.536  -0.861  0.00  0.00    +0.034 A 
ATOM     23  C   UNL     1      -0.109  -1.517  -0.229  0.00  0.00    +0.027 A 
ATOM     24  C   UNL     1       0.180  -0.198  -0.520  0.00  0.00    -0.046 A 
ATOM     25  C   UNL     1      -0.576   0.908   0.170  0.00  0.00    +0.044 C 
ENDBRANCH  14  22
ENDBRANCH   1  15
TORSDOF 4
