REMARK  Name = ZINC62828501
REMARK  6 active torsions:
REMARK  status: ('A' for Active; 'I' for Inactive)
REMARK    1  A    between atoms: C_1  and  C_2
REMARK    2  A    between atoms: C_2  and  C_4
REMARK    3  A    between atoms: C_2  and  N_11
REMARK    4  A    between atoms: C_4  and  N_5
REMARK    5  A    between atoms: N_14  and  C_15
REMARK    6  A    between atoms: C_16  and  C_20
REMARK                            x       y       z     vdW  Elec       q    Type
REMARK                         _______ _______ _______ _____ _____    ______ ____
ROOT
ATOM      1  N   UNL     1       0.688  -0.476  -1.203  0.00  0.00    -0.298 N 
ATOM      2  C   UNL     1       0.006  -0.608  -2.358  0.00  0.00    +0.304 C 
ATOM      3  O   UNL     1      -1.178  -0.335  -2.400  0.00  0.00    -0.252 OA
ATOM      4  N   UNL     1       0.637  -1.043  -3.467  0.00  0.00    -0.263 N 
ATOM      5  H   UNL     1       1.632  -0.695  -1.170  0.00  0.00    +0.150 HD
ATOM      6  H   UNL     1       1.582  -1.261  -3.434  0.00  0.00    +0.157 HD
ENDROOT
BRANCH   4   7
ATOM      7  C   UNL     1      -0.063  -1.178  -4.654  0.00  0.00    +0.087 A 
ATOM      8  C   UNL     1       0.416  -1.613  -5.885  0.00  0.00    +0.092 A 
ATOM      9  C   UNL     1      -0.541  -1.659  -6.969  0.00  0.00    +0.024 A 
ATOM     10  C   UNL     1      -1.792  -1.274  -6.664  0.00  0.00    +0.048 A 
ATOM     11  S   UNL     1      -1.686  -0.861  -4.936  0.00  0.00    -0.081 S 
BRANCH   8  12
ATOM     12  C   UNL     1       1.770  -1.992  -6.068  0.00  0.00    +0.389 C 
ATOM     13  O   UNL     1       2.157  -2.370  -7.167  0.00  0.00    -0.241 OA
ATOM     14  O   UNL     1       2.553  -1.940  -5.127  0.00  0.00    -0.241 OA
ENDBRANCH   8  12
ENDBRANCH   4   7
BRANCH   1  16
ATOM     15  C   UNL     1      -0.019   1.526   0.010  0.00  0.00    +0.026 C 
ATOM     16  C   UNL     1       0.002  -0.004   0.002  0.00  0.00    +0.055 C 
BRANCH  16  17
ATOM     17  C   UNL     1       0.742  -0.511   1.242  0.00  0.00    -0.057 C 
BRANCH  17  18
ATOM     18  N   UNL     1       0.867  -1.973   1.174  0.00  0.00    +0.381 N 
ATOM     19  C   UNL     1      -0.469  -2.580   1.233  0.00  0.00    -0.079 C 
ATOM     20  C   UNL     1      -0.350  -4.098   1.081  0.00  0.00    -0.019 C 
ATOM     21  C   UNL     1       0.515  -4.653   2.216  0.00  0.00    -0.004 C 
ATOM     22  C   UNL     1       1.880  -3.959   2.190  0.00  0.00    -0.019 C 
ATOM     23  C   UNL     1       1.679  -2.446   2.301  0.00  0.00    -0.079 C 
ATOM     24  H   UNL     1       1.313  -2.232   0.306  0.00  0.00    -0.082 HD
ENDBRANCH  17  18
ENDBRANCH  16  17
ENDBRANCH   1  16
TORSDOF 5
