REMARK  Name = ZINC04934164
REMARK  6 active torsions:
REMARK  status: ('A' for Active; 'I' for Inactive)
REMARK    1  A    between atoms: C_1  and  C_2
REMARK    2  A    between atoms: C_5  and  N_9
REMARK    3  A    between atoms: C_10  and  C_12
REMARK    4  A    between atoms: C_13  and  N_25
REMARK    5  A    between atoms: N_14  and  C_17
REMARK    6  A    between atoms: C_17  and  C_18
REMARK                            x       y       z     vdW  Elec       q    Type
REMARK                         _______ _______ _______ _____ _____    ______ ____
ROOT
ATOM      1  C   UNL     1      -3.678  -1.042  -0.199  0.00  0.00    +0.188 A 
ATOM      2  C   UNL     1      -3.809  -2.421  -0.316  0.00  0.00    +0.147 A 
ATOM      3  N   UNL     1      -5.137  -2.673  -0.387  0.00  0.00    -0.226 N 
ATOM      4  N   UNL     1      -5.792  -1.437  -0.311  0.00  0.00    -0.063 NA
ATOM      5  N   UNL     1      -4.912  -0.505  -0.196  0.00  0.00    -0.123 NA
ENDROOT
BRANCH   1   7
ATOM      6  N   UNL     1      -2.428   1.041   0.019  0.00  0.00    -0.279 N 
ATOM      7  C   UNL     1      -2.414  -0.303  -0.090  0.00  0.00    +0.272 C 
ATOM      8  O   UNL     1      -1.355  -0.902  -0.098  0.00  0.00    -0.268 OA
ATOM      9  H   UNL     1      -3.271   1.512   0.107  0.00  0.00    +0.155 HD
BRANCH   6  14
ATOM     10  C   UNL     1       2.447   3.944  -0.045  0.00  0.00    +0.044 C 
ATOM     11  C   UNL     1       1.153   3.171  -0.025  0.00  0.00    -0.049 A 
ATOM     12  C   UNL     1       1.082   1.928  -0.626  0.00  0.00    +0.005 A 
ATOM     13  C   UNL     1      -0.102   1.218  -0.610  0.00  0.00    +0.025 A 
ATOM     14  C   UNL     1      -1.225   1.755   0.006  0.00  0.00    +0.052 A 
ATOM     15  C   UNL     1      -1.149   3.002   0.615  0.00  0.00    +0.062 A 
ATOM     16  C   UNL     1       0.040   3.708   0.595  0.00  0.00    +0.025 A 
ATOM     17 CL   UNL     1      -2.547   3.676   1.394  0.00  0.00    -0.082 Cl
ENDBRANCH   6  14
ENDBRANCH   1   7
BRANCH   2  18
ATOM     18  N   UNL     1      -2.788  -3.348  -0.353  0.00  0.00    -0.341 N 
ATOM     19  H   UNL     1      -1.865  -3.056  -0.294  0.00  0.00    +0.144 HD
ATOM     20  H   UNL     1      -2.993  -4.292  -0.438  0.00  0.00    +0.144 HD
ENDBRANCH   2  18
BRANCH   3  21
ATOM     21  C   UNL     1      -5.769  -3.988  -0.519  0.00  0.00    +0.182 C 
BRANCH  21  22
ATOM     22  C   UNL     1      -6.040  -4.555   0.851  0.00  0.00    -0.026 A 
ATOM     23  C   UNL     1      -5.087  -5.338   1.476  0.00  0.00    +0.007 A 
ATOM     24  C   UNL     1      -5.333  -5.853   2.735  0.00  0.00    +0.020 A 
ATOM     25  C   UNL     1      -6.537  -5.594   3.365  0.00  0.00    +0.041 A 
ATOM     26  C   UNL     1      -7.492  -4.815   2.737  0.00  0.00    +0.020 A 
ATOM     27  C   UNL     1      -7.244  -4.296   1.480  0.00  0.00    +0.007 A 
ATOM     28 CL   UNL     1      -6.849  -6.246   4.944  0.00  0.00    -0.084 Cl
ENDBRANCH  21  22
ENDBRANCH   3  21
TORSDOF 5
