REMARK  Name = ZINC45631731
REMARK  7 active torsions:
REMARK  status: ('A' for Active; 'I' for Inactive)
REMARK    1  A    between atoms: C_1  and  C_2
REMARK    2  A    between atoms: C_5  and  N_9
REMARK    3  A    between atoms: C_10  and  C_12
REMARK    4  A    between atoms: C_12  and  C_14
REMARK    5  A    between atoms: C_12  and  N_15
REMARK    6  A    between atoms: N_15  and  C_16
REMARK    7  A    between atoms: C_25  and  C_28
REMARK                            x       y       z     vdW  Elec       q    Type
REMARK                         _______ _______ _______ _____ _____    ______ ____
ROOT
ATOM      1  N   UNL     1       0.417  -6.850   2.490  0.00  0.00    -0.333 N 
ATOM      2  H   UNL     1       0.756  -6.270   3.190  0.00  0.00    +0.147 HD
ENDROOT
BRANCH   1   3
ATOM      3  C   UNL     1       0.034  -8.161   2.792  0.00  0.00    +0.030 A 
ATOM      4  C   UNL     1      -0.446  -8.993   1.789  0.00  0.00    +0.026 A 
ATOM      5  C   UNL     1      -0.826 -10.289   2.083  0.00  0.00    +0.049 A 
ATOM      6  C   UNL     1      -0.728 -10.761   3.380  0.00  0.00    +0.143 A 
ATOM      7  C   UNL     1      -0.247  -9.929   4.390  0.00  0.00    +0.077 A 
ATOM      8  C   UNL     1       0.139  -8.632   4.094  0.00  0.00    +0.050 A 
ATOM      9  N   UNL     1      -0.157 -10.421   5.699  0.00  0.00    -0.279 N 
ATOM     10  C   UNL     1      -0.229 -11.755   5.904  0.00  0.00    +0.258 C 
ATOM     11  O   UNL     1      -0.183 -12.201   7.031  0.00  0.00    -0.271 OA
ATOM     12  C   UNL     1      -0.367 -12.685   4.726  0.00  0.00    +0.256 C 
ATOM     13  O   UNL     1      -1.098 -12.036   3.683  0.00  0.00    -0.478 OA
ATOM     14  C   UNL     1       1.023 -13.066   4.213  0.00  0.00    +0.062 C 
ATOM     15  H   UNL     1      -0.043  -9.814   6.447  0.00  0.00    +0.155 HD
ENDBRANCH   1   3
BRANCH   1  16
ATOM     16  C   UNL     1       0.306  -6.353   1.116  0.00  0.00    +0.154 C 
ATOM     17  C   UNL     1       1.559  -6.744   0.330  0.00  0.00    +0.038 C 
BRANCH  16  19
ATOM     18  N   UNL     1       0.057  -4.171  -0.023  0.00  0.00    -0.284 N 
ATOM     19  C   UNL     1       0.174  -4.852   1.134  0.00  0.00    +0.237 C 
ATOM     20  O   UNL     1       0.172  -4.256   2.191  0.00  0.00    -0.273 OA
ATOM     21  H   UNL     1      -0.009  -4.651  -0.863  0.00  0.00    +0.155 HD
BRANCH  18  26
ATOM     22  C   UNL     1      -0.047   1.502   0.013  0.00  0.00    +0.047 C 
ATOM     23  C   UNL     1      -0.019  -0.004   0.004  0.00  0.00    -0.015 A 
ATOM     24  C   UNL     1       0.592  -0.677  -1.038  0.00  0.00    +0.008 A 
ATOM     25  C   UNL     1       0.619  -2.058  -1.049  0.00  0.00    +0.024 A 
ATOM     26  C   UNL     1       0.031  -2.772  -0.013  0.00  0.00    +0.036 A 
ATOM     27  C   UNL     1      -0.582  -2.096   1.032  0.00  0.00    +0.062 A 
ATOM     28  C   UNL     1      -0.601  -0.713   1.042  0.00  0.00    +0.128 A 
ATOM     29  F   UNL     1      -1.193  -0.052   2.061  0.00  0.00    -0.205 F 
ENDBRANCH  18  26
ENDBRANCH  16  19
ENDBRANCH   1  16
TORSDOF 4
