REMARK  Name = ZINC02294110
REMARK  2 active torsions:
REMARK  status: ('A' for Active; 'I' for Inactive)
REMARK    1  A    between atoms: N_16  and  C_17
REMARK    2  A    between atoms: C_22  and  C_23
REMARK                            x       y       z     vdW  Elec       q    Type
REMARK                         _______ _______ _______ _____ _____    ______ ____
ROOT
ATOM      1  C   UNL     1      -0.323   0.471   0.857  0.00  0.00    +0.001 A 
ATOM      2  C   UNL     1       0.797   1.291   0.979  0.00  0.00    +0.002 A 
ATOM      3  C   UNL     1       2.055   0.792   0.819  0.00  0.00    +0.028 A 
ATOM      4  C   UNL     1       2.232  -0.570   0.528  0.00  0.00    +0.080 A 
ATOM      5  C   UNL     1       1.089  -1.404   0.404  0.00  0.00    +0.065 A 
ATOM      6  C   UNL     1      -0.192  -0.855   0.575  0.00  0.00    +0.015 A 
ATOM      7  C   UNL     1       1.275  -2.765   0.113  0.00  0.00    +0.267 A 
ATOM      8  O   UNL     1       0.221  -3.591  -0.014  0.00  0.00    -0.267 OA
ATOM      9  N   UNL     1       2.547  -3.232  -0.041  0.00  0.00    -0.251 N 
ATOM     10  C   UNL     1       2.731  -4.566  -0.327  0.00  0.00    +0.116 A 
ATOM     11  C   UNL     1       3.978  -5.047  -0.481  0.00  0.00    +0.077 A 
ATOM     12  C   UNL     1       5.109  -4.120  -0.338  0.00  0.00    +0.151 A 
ATOM     13  N   UNL     1       4.868  -2.836  -0.060  0.00  0.00    -0.193 NA
ATOM     14  C   UNL     1       3.620  -2.385   0.089  0.00  0.00    +0.240 A 
ATOM     15  N   UNL     1       3.450  -1.093   0.365  0.00  0.00    -0.212 NA
ATOM     16  N   UNL     1       6.362  -4.557  -0.484  0.00  0.00    -0.338 N 
ATOM     17 BR   UNL     1       4.269  -6.874  -0.874  0.00  0.00    -0.045 Br
ATOM     18  H   UNL     1       6.532  -5.496  -0.654  0.00  0.00    +0.167 HD
ENDROOT
BRANCH  16  19
ATOM     19  C   UNL     1       7.393  -3.690  -0.394  0.00  0.00    +0.053 A 
ATOM     20  C   UNL     1       7.308  -2.427  -0.994  0.00  0.00    +0.026 A 
ATOM     21  C   UNL     1       8.363  -1.549  -0.899  0.00  0.00    +0.002 A 
ATOM     22  C   UNL     1       9.516  -1.903  -0.210  0.00  0.00    +0.001 A 
ATOM     23  C   UNL     1       9.624  -3.138   0.388  0.00  0.00    +0.015 A 
ATOM     24  C   UNL     1       8.565  -4.047   0.311  0.00  0.00    +0.060 A 
BRANCH  24  25
ATOM     25  C   UNL     1       8.672  -5.365   0.953  0.00  0.00    +0.244 C 
ATOM     26  O   UNL     1       7.711  -6.110   0.976  0.00  0.00    -0.270 OA
ATOM     27  N   UNL     1       9.835  -5.748   1.517  0.00  0.00    -0.325 N 
ATOM     28  H   UNL     1      10.601  -5.154   1.499  0.00  0.00    +0.145 HD
ATOM     29  H   UNL     1       9.905  -6.617   1.941  0.00  0.00    +0.145 HD
ENDBRANCH  24  25
ENDBRANCH  16  19
TORSDOF 2
