REMARK  Name = ZINC59280244
REMARK  9 active torsions:
REMARK  status: ('A' for Active; 'I' for Inactive)
REMARK    1  A    between atoms: C_1  and  C_2
REMARK    2  A    between atoms: C_3  and  C_11
REMARK    3  A    between atoms: C_7  and  N_8
REMARK    4  A    between atoms: N_13  and  C_14
REMARK    5  A    between atoms: C_14  and  C_16
REMARK    6  A    between atoms: C_14  and  C_21
REMARK    7  A    between atoms: C_21  and  C_22
REMARK    8  A    between atoms: C_21  and  C_23
REMARK    9  A    between atoms: C_21  and  C_24
REMARK                            x       y       z     vdW  Elec       q    Type
REMARK                         _______ _______ _______ _____ _____    ______ ____
ROOT
ATOM      1  C   UNL     1      -0.768  -0.163  -2.475  0.00  0.00    +0.245 C 
ATOM      2  O   UNL     1      -0.931   1.040  -2.530  0.00  0.00    -0.270 OA
ATOM      3  N   UNL     1      -0.959  -0.919  -3.574  0.00  0.00    -0.304 N 
ATOM      4  H   UNL     1      -0.829  -1.880  -3.531  0.00  0.00    +0.150 HD
ENDROOT
BRANCH   1   7
ATOM      5  C   UNL     1      -0.618   1.432  -0.065  0.00  0.00    +0.047 C 
ATOM      6  C   UNL     1      -0.285  -0.038  -0.034  0.00  0.00    -0.008 A 
ATOM      7  C   UNL     1      -0.361  -0.797  -1.203  0.00  0.00    +0.042 A 
ATOM      8  C   UNL     1      -0.050  -2.157  -1.166  0.00  0.00    +0.013 A 
ATOM      9  C   UNL     1       0.329  -2.743   0.025  0.00  0.00    +0.003 A 
ATOM     10  C   UNL     1       0.402  -1.985   1.179  0.00  0.00    +0.033 A 
ATOM     11  C   UNL     1       0.102  -0.634   1.148  0.00  0.00    +0.130 A 
BRANCH  11  12
ATOM     12  N   UNL     1       0.189   0.171   2.387  0.00  0.00    +0.057 N 
ATOM     13  O   UNL     1       0.396  -0.372   3.447  0.00  0.00    -0.126 OA
ATOM     14  O   UNL     1       0.054   1.371   2.339  0.00  0.00    -0.126 OA
ENDBRANCH  11  12
ENDBRANCH   1   7
BRANCH   3  15
ATOM     15  C   UNL     1      -1.363  -0.291  -4.835  0.00  0.00    +0.115 C 
BRANCH  15  16
ATOM     16  C   UNL     1      -2.084  -1.300  -5.690  0.00  0.00    +0.010 A 
ATOM     17  C   UNL     1      -3.178  -1.130  -6.473  0.00  0.00    +0.013 A 
ATOM     18  C   UNL     1      -3.672  -2.211  -7.179  0.00  0.00    +0.008 A 
ATOM     19  C   UNL     1      -3.050  -3.410  -7.066  0.00  0.00    +0.045 A 
ATOM     20  S   UNL     1      -1.716  -3.029  -5.942  0.00  0.00    -0.100 S 
ENDBRANCH  15  16
BRANCH  15  21
ATOM     21  C   UNL     1      -0.122   0.211  -5.575  0.00  0.00    -0.015 C 
ATOM     22  C   UNL     1       0.809  -0.968  -5.868  0.00  0.00    +0.013 C 
ATOM     23  C   UNL     1      -0.544   0.867  -6.891  0.00  0.00    +0.013 C 
ATOM     24  C   UNL     1       0.610   1.236  -4.706  0.00  0.00    +0.013 C 
ENDBRANCH  15  21
ENDBRANCH   3  15
TORSDOF 5
