REMARK  Name = ZINC08947555
REMARK  8 active torsions:
REMARK  status: ('A' for Active; 'I' for Inactive)
REMARK    1  A    between atoms: C_1  and  C_2
REMARK    2  A    between atoms: C_2  and  C_16
REMARK    3  A    between atoms: N_5  and  C_9
REMARK    4  A    between atoms: C_9  and  C_10
REMARK    5  A    between atoms: C_19  and  C_22
REMARK    6  A    between atoms: C_22  and  C_23
REMARK    7  A    between atoms: C_22  and  C_24
REMARK    8  A    between atoms: C_22  and  C_25
REMARK                            x       y       z     vdW  Elec       q    Type
REMARK                         _______ _______ _______ _____ _____    ______ ____
ROOT
ATOM      1  C   UNL     1      -0.698   2.034   1.278  0.00  0.00    +0.047 C 
ATOM      2  C   UNL     1      -0.018   1.512   0.010  0.00  0.00    +0.135 C 
ATOM      3  C   UNL     1       0.002  -0.004   0.002  0.00  0.00    +0.251 C 
ATOM      4  O   UNL     1      -0.954  -0.749   0.008  0.00  0.00    -0.272 OA
ATOM      5  N   UNL     1       1.304  -0.351  -0.012  0.00  0.00    -0.215 N 
ATOM      6  C   UNL     1       2.101   0.724  -0.014  0.00  0.00    +0.310 C 
ATOM      7  O   UNL     1       3.315   0.665  -0.026  0.00  0.00    -0.252 OA
ATOM      8  N   UNL     1       1.409   1.877  -0.001  0.00  0.00    -0.281 N 
ATOM      9  H   UNL     1       1.777   2.775  -0.000  0.00  0.00    +0.152 HD
ENDROOT
BRANCH   2  10
ATOM     10  C   UNL     1      -0.711   2.039  -1.220  0.00  0.00    -0.015 A 
ATOM     11  C   UNL     1      -1.712   1.299  -1.820  0.00  0.00    +0.006 A 
ATOM     12  C   UNL     1      -2.351   1.785  -2.946  0.00  0.00    +0.004 A 
ATOM     13  C   UNL     1      -1.981   3.007  -3.477  0.00  0.00    -0.042 A 
ATOM     14  C   UNL     1      -0.977   3.745  -2.879  0.00  0.00    +0.004 A 
ATOM     15  C   UNL     1      -0.342   3.261  -1.750  0.00  0.00    +0.006 A 
BRANCH  13  16
ATOM     16  C   UNL     1      -2.673   3.534  -4.707  0.00  0.00    -0.013 C 
ATOM     17  C   UNL     1      -1.646   3.733  -5.824  0.00  0.00    +0.015 C 
ATOM     18  C   UNL     1      -3.735   2.532  -5.164  0.00  0.00    +0.015 C 
ATOM     19  C   UNL     1      -3.340   4.872  -4.383  0.00  0.00    +0.015 C 
ENDBRANCH  13  16
ENDBRANCH   2  10
BRANCH   5  20
ATOM     20  C   UNL     1       1.788  -1.734  -0.024  0.00  0.00    +0.214 C 
BRANCH  20  21
ATOM     21  C   UNL     1       1.940  -2.201  -1.448  0.00  0.00    +0.238 C 
ATOM     22  O   UNL     1       1.671  -1.453  -2.364  0.00  0.00    -0.274 OA
ATOM     23  N   UNL     1       2.375  -3.451  -1.705  0.00  0.00    -0.239 N 
ATOM     24  C   UNL     1       2.511  -3.869  -2.979  0.00  0.00    +0.303 C 
ATOM     25  O   UNL     1       2.241  -3.119  -3.896  0.00  0.00    -0.253 OA
ATOM     26  N   UNL     1       2.946  -5.118  -3.235  0.00  0.00    -0.313 N 
ATOM     27  H   UNL     1       2.590  -4.049  -0.972  0.00  0.00    +0.159 HD
ATOM     28  H   UNL     1       3.161  -5.717  -2.503  0.00  0.00    +0.146 HD
ATOM     29  H   UNL     1       3.043  -5.419  -4.152  0.00  0.00    +0.146 HD
ENDBRANCH  20  21
ENDBRANCH   5  20
TORSDOF 4
