REMARK  Name = ZINC43188318
REMARK  15 active torsions:
REMARK  status: ('A' for Active; 'I' for Inactive)
REMARK    1  A    between atoms: C_1  and  C_2
REMARK    2  A    between atoms: C_2  and  N_3
REMARK    3  A    between atoms: N_3  and  C_4
REMARK    4  A    between atoms: C_4  and  C_5
REMARK    5  A    between atoms: N_8  and  C_9
REMARK    6  A    between atoms: C_12  and  C_15
REMARK    7  A    between atoms: C_15  and  C_17
REMARK    8  A    between atoms: C_15  and  N_18
REMARK    9  A    between atoms: N_21  and  C_22
REMARK   10  A    between atoms: C_22  and  C_23
REMARK   11  A    between atoms: C_23  and  C_24
REMARK   12  A    between atoms: C_23  and  C_25
REMARK   13  A    between atoms: C_23  and  N_26
REMARK   14  A    between atoms: N_26  and  C_27
REMARK   15  A    between atoms: N_26  and  C_28
REMARK                            x       y       z     vdW  Elec       q    Type
REMARK                         _______ _______ _______ _____ _____    ______ ____
ROOT
ATOM      1  C   UNL     1      -3.999  -1.936   7.154  0.00  0.00    +0.102 C 
ATOM      2  C   UNL     1      -3.460  -3.273   7.665  0.00  0.00    +0.033 C 
ENDROOT
BRANCH   1   6
ATOM      3  C   UNL     1      -1.975  -0.869   3.544  0.00  0.00    +0.035 A 
ATOM      4  C   UNL     1      -3.240  -1.440   3.490  0.00  0.00    +0.023 A 
ATOM      5  C   UNL     1      -3.892  -1.783   4.658  0.00  0.00    +0.007 A 
ATOM      6  C   UNL     1      -3.285  -1.560   5.881  0.00  0.00    -0.027 A 
ATOM      7  C   UNL     1      -2.026  -0.991   5.938  0.00  0.00    +0.007 A 
ATOM      8  C   UNL     1      -1.367  -0.651   4.773  0.00  0.00    +0.023 A 
BRANCH   3  12
ATOM      9  N   UNL     1       0.654  -0.403   1.109  0.00  0.00    -0.286 N 
ATOM     10  C   UNL     1       0.026  -0.654   2.275  0.00  0.00    +0.306 C 
ATOM     11  O   UNL     1       0.667  -1.000   3.248  0.00  0.00    -0.252 OA
ATOM     12  N   UNL     1      -1.312  -0.520   2.362  0.00  0.00    -0.269 N 
ATOM     13  H   UNL     1      -1.816  -0.183   1.605  0.00  0.00    +0.156 HD
BRANCH   9  15
ATOM     14  C   UNL     1      -0.549  -1.221  -0.857  0.00  0.00    +0.024 C 
ATOM     15  C   UNL     1      -0.118   0.014  -0.064  0.00  0.00    +0.106 C 
ENDBRANCH   9  15
BRANCH   9  16
ATOM     16  C   UNL     1       2.109  -0.548   1.015  0.00  0.00    +0.106 C 
ATOM     17  C   UNL     1       2.777   0.783   1.366  0.00  0.00    +0.024 C 
ENDBRANCH   9  16
ENDBRANCH   3  12
ENDBRANCH   1   6
BRANCH   1  18
ATOM     18  N   UNL     1      -3.772  -0.900   8.165  0.00  0.00    -0.293 N 
ATOM     19  C   UNL     1      -4.660  -0.729   9.165  0.00  0.00    +0.300 C 
ATOM     20  O   UNL     1      -5.649  -1.434   9.227  0.00  0.00    -0.253 OA
ATOM     21  N   UNL     1      -4.452   0.224  10.095  0.00  0.00    -0.301 N 
ATOM     22  H   UNL     1      -2.984  -0.338   8.115  0.00  0.00    +0.151 HD
ATOM     23  H   UNL     1      -3.663   0.787  10.045  0.00  0.00    +0.150 HD
BRANCH  21  24
ATOM     24  C   UNL     1      -5.416   0.410  11.182  0.00  0.00    +0.093 C 
BRANCH  24  25
ATOM     25  C   UNL     1      -5.013   1.625  12.019  0.00  0.00    -0.056 C 
ATOM     26  C   UNL     1      -5.004   2.874  11.135  0.00  0.00    -0.008 C 
ATOM     27  C   UNL     1      -6.015   1.815  13.159  0.00  0.00    -0.008 C 
BRANCH  25  28
ATOM     28  N   UNL     1      -3.671   1.411  12.578  0.00  0.00    +0.380 N 
ATOM     29  C   UNL     1      -3.330   2.524  13.474  0.00  0.00    -0.096 C 
ATOM     30  C   UNL     1      -3.650   0.151  13.332  0.00  0.00    -0.096 C 
ATOM     31  H   UNL     1      -2.998   1.366  11.827  0.00  0.00    -0.082 HD
ENDBRANCH  25  28
ENDBRANCH  24  25
ENDBRANCH  21  24
ENDBRANCH   1  18
TORSDOF 8
