REMARK  Name = ZINC39660885
REMARK  5 active torsions:
REMARK  status: ('A' for Active; 'I' for Inactive)
REMARK    1  A    between atoms: C_1  and  O_2
REMARK    2  A    between atoms: O_2  and  C_3
REMARK    3  A    between atoms: C_6  and  C_10
REMARK    4  A    between atoms: C_14  and  C_23
REMARK    5  A    between atoms: N_25  and  C_26
REMARK                            x       y       z     vdW  Elec       q    Type
REMARK                         _______ _______ _______ _____ _____    ______ ____
ROOT
ATOM      1  C   UNL     1      -4.955  -2.615   0.035  0.00  0.00    +0.247 C 
ATOM      2  O   UNL     1      -5.434  -2.996   1.085  0.00  0.00    -0.270 OA
ATOM      3  N   UNL     1      -5.608  -2.838  -1.123  0.00  0.00    -0.296 N 
ATOM      4  C   UNL     1      -5.133  -2.568  -2.501  0.00  0.00    +0.121 C 
ATOM      5  C   UNL     1      -5.634  -3.772  -3.329  0.00  0.00    +0.100 C 
ATOM      6  C   UNL     1      -6.837  -4.317  -2.542  0.00  0.00    -0.004 C 
ATOM      7  C   UNL     1      -6.962  -3.413  -1.307  0.00  0.00    +0.115 C 
ATOM      8  C   UNL     1      -6.577  -5.757  -2.110  0.00  0.00    -0.010 C 
ATOM      9  C   UNL     1      -7.810  -6.295  -1.379  0.00  0.00    -0.082 C 
ATOM     10  N   UNL     1      -8.975  -6.233  -2.269  0.00  0.00    +0.379 N 
ATOM     11  C   UNL     1      -9.274  -4.836  -2.605  0.00  0.00    -0.082 C 
ATOM     12  C   UNL     1      -8.104  -4.235  -3.388  0.00  0.00    -0.010 C 
ATOM     13  H   UNL     1      -8.779  -6.747  -3.115  0.00  0.00    -0.086 HD
ATOM     14  H   UNL     1      -9.772  -6.644  -1.807  0.00  0.00    -0.086 HD
ENDROOT
BRANCH   1  18
ATOM     15  C   UNL     1      -1.222  -0.588   0.013  0.00  0.00    +0.157 A 
ATOM     16  C   UNL     1      -1.537  -1.451   1.056  0.00  0.00    +0.085 A 
ATOM     17  C   UNL     1      -2.747  -2.111   1.067  0.00  0.00    +0.036 A 
ATOM     18  C   UNL     1      -3.659  -1.911   0.027  0.00  0.00    +0.040 A 
ATOM     19  C   UNL     1      -3.339  -1.042  -1.020  0.00  0.00    +0.036 A 
ATOM     20  C   UNL     1      -2.129  -0.382  -1.021  0.00  0.00    +0.085 A 
ATOM     21 CL   UNL     1      -1.734   0.702  -2.318  0.00  0.00    -0.080 Cl
ATOM     22 CL   UNL     1      -0.403  -1.699   2.348  0.00  0.00    -0.080 Cl
BRANCH  15  24
ATOM     23  C   UNL     1       0.020   1.335   0.651  0.00  0.00    +0.277 C 
ATOM     24  O   UNL     1      -0.030   0.060   0.006  0.00  0.00    -0.492 OA
ENDBRANCH  15  24
ENDBRANCH   1  18
BRANCH   5  25
ATOM     25  C   UNL     1      -6.062  -3.321  -4.702  0.00  0.00    +0.219 C 
ATOM     26  O   UNL     1      -6.419  -2.176  -4.881  0.00  0.00    -0.275 OA
ATOM     27  N   UNL     1      -6.049  -4.191  -5.731  0.00  0.00    -0.302 N 
ATOM     28  H   UNL     1      -5.763  -5.107  -5.589  0.00  0.00    +0.150 HD
BRANCH  27  29
ATOM     29  C   UNL     1      -6.466  -3.754  -7.066  0.00  0.00    +0.185 C 
ATOM     30  C   UNL     1      -5.850  -4.669  -8.155  0.00  0.00    +0.075 C 
ATOM     31  C   UNL     1      -7.049  -5.610  -8.453  0.00  0.00    +0.234 C 
ATOM     32  O   UNL     1      -8.186  -4.734  -8.300  0.00  0.00    -0.463 OA
ATOM     33  C   UNL     1      -7.963  -3.928  -7.240  0.00  0.00    +0.328 C 
ATOM     34  O   UNL     1      -8.813  -3.429  -6.542  0.00  0.00    -0.249 OA
ENDBRANCH  27  29
ENDBRANCH   5  25
TORSDOF 4
