REMARK  Name = ZINC39532132
REMARK  11 active torsions:
REMARK  status: ('A' for Active; 'I' for Inactive)
REMARK    1  A    between atoms: C_1  and  C_2
REMARK    2  A    between atoms: C_2  and  C_3
REMARK    3  A    between atoms: C_6  and  C_9
REMARK    4  A    between atoms: C_9  and  C_11
REMARK    5  A    between atoms: C_9  and  N_23
REMARK    6  A    between atoms: C_11  and  N_12
REMARK    7  A    between atoms: N_12  and  S_13
REMARK    8  A    between atoms: S_13  and  O_16
REMARK    9  A    between atoms: O_16  and  C_17
REMARK   10  A    between atoms: C_27  and  C_30
REMARK   11  A    between atoms: C_35  and  O_36
REMARK                            x       y       z     vdW  Elec       q    Type
REMARK                         _______ _______ _______ _____ _____    ______ ____
ROOT
ATOM      1  C   UNL     1       2.797  -1.919   4.683  0.00  0.00    -0.060 C 
ENDROOT
BRANCH   1   2
ATOM      2  N   UNL     1       1.690  -2.770   5.140  0.00  0.00    +0.381 N 
ATOM      3  C   UNL     1       1.954  -3.221   6.513  0.00  0.00    -0.098 C 
ATOM      4  C   UNL     1       0.801  -4.108   6.988  0.00  0.00    -0.101 C 
ATOM      5  N   UNL     1       0.683  -5.275   6.104  0.00  0.00    +0.381 N 
ATOM      6  C   UNL     1       0.420  -4.823   4.731  0.00  0.00    -0.054 C 
ATOM      7  C   UNL     1       1.573  -3.937   4.255  0.00  0.00    -0.090 C 
ATOM      8  H   UNL     1       1.544  -5.801   6.125  0.00  0.00    -0.085 HD
ATOM      9  H   UNL     1      -0.077  -5.859   6.417  0.00  0.00    -0.085 HD
ATOM     10  H   UNL     1       0.830  -2.244   5.118  0.00  0.00    -0.081 HD
BRANCH   6  11
ATOM     11  C   UNL     1       0.299  -6.020   3.823  0.00  0.00    -0.022 A 
ATOM     12  C   UNL     1       0.823  -7.238   4.211  0.00  0.00    +0.005 A 
ATOM     13  C   UNL     1       0.714  -8.336   3.379  0.00  0.00    +0.000 A 
ATOM     14  C   UNL     1       0.079  -8.219   2.156  0.00  0.00    +0.004 A 
ATOM     15  C   UNL     1      -0.447  -7.004   1.763  0.00  0.00    +0.045 A 
ATOM     16  C   UNL     1      -0.343  -5.902   2.599  0.00  0.00    +0.118 A 
BRANCH  16  17
ATOM     17  O   UNL     1      -0.865  -4.706   2.217  0.00  0.00    -0.507 OA
ATOM     18  H   UNL     1      -0.248  -4.147   1.725  0.00  0.00    +0.292 HD
ENDBRANCH  16  17
ENDBRANCH   6  11
ENDBRANCH   1   2
BRANCH   1  22
ATOM     19  C   UNL     1       2.247  -0.961   0.557  0.00  0.00    -0.048 A 
ATOM     20  C   UNL     1       3.510  -1.251   1.037  0.00  0.00    +0.004 A 
ATOM     21  C   UNL     1       3.688  -1.561   2.372  0.00  0.00    +0.002 A 
ATOM     22  C   UNL     1       2.603  -1.580   3.228  0.00  0.00    -0.063 A 
ATOM     23  C   UNL     1       1.339  -1.290   2.748  0.00  0.00    +0.002 A 
ATOM     24  C   UNL     1       1.162  -0.976   1.414  0.00  0.00    +0.004 A 
BRANCH  19  26
ATOM     25  C   UNL     1       2.201   0.886  -1.097  0.00  0.00    +0.009 C 
ATOM     26  C   UNL     1       2.052  -0.624  -0.899  0.00  0.00    +0.032 C 
ENDBRANCH  19  26
ENDBRANCH   1  22
BRANCH   1  27
ATOM     27  C   UNL     1       2.823  -0.630   5.508  0.00  0.00    -0.121 C 
BRANCH  27  28
ATOM     28  N   UNL     1       3.171  -0.945   6.895  0.00  0.00    +0.491 NA
BRANCH  28  29
ATOM     29  S   UNL     1       3.273   0.267   8.019  0.00  0.00    +0.066 S 
ATOM     30  O   UNL     1       4.373   1.082   7.638  0.00  0.00    -0.159 OA
ATOM     31  O   UNL     1       1.960   0.786   8.177  0.00  0.00    -0.159 OA
BRANCH  29  32
ATOM     32  O   UNL     1       3.649  -0.379   9.345  0.00  0.00    -0.362 OA
BRANCH  32  33
ATOM     33  C   UNL     1       4.951  -0.759   9.425  0.00  0.00    +0.154 A 
ATOM     34  C   UNL     1       5.331  -2.029   9.017  0.00  0.00    +0.048 A 
ATOM     35  C   UNL     1       6.655  -2.413   9.100  0.00  0.00    +0.004 A 
ATOM     36  C   UNL     1       7.602  -1.532   9.589  0.00  0.00    +0.000 A 
ATOM     37  C   UNL     1       7.227  -0.266   9.996  0.00  0.00    +0.004 A 
ATOM     38  C   UNL     1       5.904   0.125   9.910  0.00  0.00    +0.048 A 
ENDBRANCH  32  33
ENDBRANCH  29  32
ENDBRANCH  28  29
ENDBRANCH  27  28
ENDBRANCH   1  27
TORSDOF 10
