REMARK  Name = ZINC02057033
REMARK  7 active torsions:
REMARK  status: ('A' for Active; 'I' for Inactive)
REMARK    1  A    between atoms: C_1  and  C_2
REMARK    2  A    between atoms: C_2  and  C_3
REMARK    3  A    between atoms: C_3  and  C_4
REMARK    4  A    between atoms: C_4  and  S_5
REMARK    5  A    between atoms: S_5  and  C_6
REMARK    6  A    between atoms: C_19  and  C_22
REMARK    7  A    between atoms: C_27  and  O_28
REMARK                            x       y       z     vdW  Elec       q    Type
REMARK                         _______ _______ _______ _____ _____    ______ ____
ROOT
ATOM      1  C   UNL     1      -0.828   9.256  -1.974  0.00  0.00    +0.212 A 
ATOM      2  N   UNL     1      -1.103   7.982  -1.710  0.00  0.00    -0.184 NA
ATOM      3  C   UNL     1      -0.108   7.127  -1.545  0.00  0.00    +0.248 A 
ATOM      4  C   UNL     1       1.220   7.602  -1.647  0.00  0.00    +0.156 A 
ATOM      5  N   UNL     1       1.424   8.883  -1.914  0.00  0.00    -0.141 NA
ATOM      6  N   UNL     1       0.425   9.681  -2.071  0.00  0.00    -0.122 NA
ATOM      7  C   UNL     1       2.347   6.665  -1.456  0.00  0.00    +0.028 A 
ATOM      8  C   UNL     1       3.422   6.632  -2.335  0.00  0.00    +0.012 A 
ATOM      9  C   UNL     1       4.472   5.765  -2.103  0.00  0.00    +0.001 A 
ATOM     10  C   UNL     1       4.458   4.927  -1.001  0.00  0.00    +0.002 A 
ATOM     11  C   UNL     1       3.390   4.945  -0.122  0.00  0.00    +0.024 A 
ATOM     12  C   UNL     1       2.330   5.804  -0.343  0.00  0.00    +0.039 A 
ATOM     13  N   UNL     1       1.228   5.838   0.516  0.00  0.00    -0.305 N 
ATOM     14  C   UNL     1      -0.059   5.351   0.029  0.00  0.00    +0.297 C 
ATOM     15  O   UNL     1      -0.335   5.818  -1.287  0.00  0.00    -0.449 OA
ATOM     16  H   UNL     1       1.316   6.179   1.420  0.00  0.00    +0.150 HD
ENDROOT
BRANCH  14  17
ATOM     17  C   UNL     1      -0.043   3.844   0.021  0.00  0.00    +0.053 A 
ATOM     18  C   UNL     1       0.290   3.162  -1.133  0.00  0.00    +0.012 A 
ATOM     19  C   UNL     1       0.305   1.779  -1.140  0.00  0.00    +0.001 A 
ATOM     20  C   UNL     1      -0.013   1.076   0.007  0.00  0.00    +0.004 A 
ATOM     21  C   UNL     1      -0.351   1.753   1.162  0.00  0.00    +0.046 A 
ATOM     22  C   UNL     1      -0.362   3.141   1.174  0.00  0.00    +0.125 A 
BRANCH  22  23
ATOM     23  O   UNL     1      -0.689   3.810   2.311  0.00  0.00    -0.506 OA
ATOM     24  H   UNL     1      -1.634   3.995   2.400  0.00  0.00    +0.292 HD
ENDBRANCH  22  23
ENDBRANCH  14  17
BRANCH   1  25
ATOM     25  S   UNL     1      -2.150  10.399  -2.196  0.00  0.00    -0.084 S 
BRANCH  25  26
ATOM     26  C   UNL     1      -1.208  11.912  -2.513  0.00  0.00    +0.077 C 
BRANCH  26  27
ATOM     27  C   UNL     1      -2.174  13.076  -2.743  0.00  0.00    +0.011 C 
BRANCH  27  29
ATOM     28  C   UNL     1      -2.344  15.518  -3.241  0.00  0.00    +0.004 C 
ATOM     29  C   UNL     1      -1.378  14.354  -3.011  0.00  0.00    -0.003 C 
ENDBRANCH  27  29
ENDBRANCH  26  27
ENDBRANCH  25  26
ENDBRANCH   1  25
TORSDOF 6
