REMARK  Name = ZINC10768353
REMARK  5 active torsions:
REMARK  status: ('A' for Active; 'I' for Inactive)
REMARK    1  A    between atoms: C_5  and  S_6
REMARK    2  A    between atoms: S_6  and  N_9
REMARK    3  A    between atoms: C_13  and  C_16
REMARK    4  A    between atoms: N_18  and  C_19
REMARK    5  A    between atoms: C_20  and  C_28
REMARK                            x       y       z     vdW  Elec       q    Type
REMARK                         _______ _______ _______ _____ _____    ______ ____
ROOT
ATOM      1  C   UNL     1      -0.857  -2.211  -0.002  0.00  0.00    +0.222 C 
ATOM      2  O   UNL     1       0.276  -2.642  -0.015  0.00  0.00    -0.275 OA
ATOM      3  N   UNL     1      -1.073  -0.880   0.007  0.00  0.00    -0.279 N 
ATOM      4  H   UNL     1      -1.979  -0.536   0.018  0.00  0.00    +0.155 HD
ENDROOT
BRANCH   3   5
ATOM      5  C   UNL     1       0.002  -0.004   0.002  0.00  0.00    +0.084 A 
ATOM      6  C   UNL     1      -0.017   1.383   0.010  0.00  0.00    +0.068 A 
ATOM      7  C   UNL     1       1.262   2.072   0.001  0.00  0.00    -0.023 A 
ATOM      8  C   UNL     1       2.348   1.269  -0.014  0.00  0.00    -0.004 A 
ATOM      9  S   UNL     1       1.694  -0.376  -0.016  0.00  0.00    -0.077 S 
ATOM     10  C   UNL     1       3.785   1.693  -0.027  0.00  0.00    +0.043 C 
ATOM     11  C   UNL     1       3.847   3.182  -0.398  0.00  0.00    +0.005 C 
ATOM     12  C   UNL     1       2.828   3.945   0.454  0.00  0.00    +0.005 C 
ATOM     13  C   UNL     1       1.408   3.589   0.009  0.00  0.00    +0.037 C 
BRANCH   6  14
ATOM     14  C   UNL     1      -1.281   2.127   0.020  0.00  0.00    +0.244 C 
ATOM     15  O   UNL     1      -1.800   2.430   1.078  0.00  0.00    -0.270 OA
ATOM     16  N   UNL     1      -1.867   2.474  -1.143  0.00  0.00    -0.325 N 
ATOM     17  H   UNL     1      -1.454   2.232  -1.986  0.00  0.00    +0.145 HD
ATOM     18  H   UNL     1      -2.704   2.966  -1.136  0.00  0.00    +0.145 HD
ENDBRANCH   6  14
ENDBRANCH   3   5
BRANCH   1  23
ATOM     19  N   UNL     1      -2.655  -5.517  -0.134  0.00  0.00    -0.175 NA
ATOM     20  C   UNL     1      -3.598  -5.317  -1.243  0.00  0.00    +0.109 C 
ATOM     21  C   UNL     1      -4.090  -3.867  -1.216  0.00  0.00    +0.018 C 
ATOM     22  C   UNL     1      -2.886  -2.923  -1.238  0.00  0.00    +0.015 C 
ATOM     23  C   UNL     1      -2.025  -3.163   0.004  0.00  0.00    +0.091 C 
ATOM     24  C   UNL     1      -1.509  -4.605  -0.009  0.00  0.00    +0.122 C 
BRANCH  19  25
ATOM     25  S   UNL     1      -2.878  -6.745   0.954  0.00  0.00    +0.067 S 
ATOM     26  O   UNL     1      -3.661  -7.732   0.296  0.00  0.00    -0.152 OA
ATOM     27  O   UNL     1      -1.603  -7.031   1.511  0.00  0.00    -0.152 OA
BRANCH  25  32
ATOM     28  C   UNL     1      -5.219  -6.090   2.381  0.00  0.00    +0.038 A 
ATOM     29  C   UNL     1      -5.787  -5.535   3.513  0.00  0.00    +0.030 A 
ATOM     30  C   UNL     1      -4.975  -5.014   4.467  0.00  0.00    +0.080 A 
ATOM     31  S   UNL     1      -3.356  -5.310   3.776  0.00  0.00    -0.057 S 
ATOM     32  C   UNL     1      -3.869  -6.108   2.263  0.00  0.00    +0.144 A 
ATOM     33 CL   UNL     1      -5.400  -4.256   5.970  0.00  0.00    -0.076 Cl
ENDBRANCH  25  32
ENDBRANCH  19  25
ENDBRANCH   1  23
TORSDOF 5
