REMARK  Name = ZINC04124402
REMARK  7 active torsions:
REMARK  status: ('A' for Active; 'I' for Inactive)
REMARK    1  A    between atoms: C_1  and  C_2
REMARK    2  A    between atoms: C_2  and  C_3
REMARK    3  A    between atoms: C_2  and  C_4
REMARK    4  A    between atoms: C_2  and  C_5
REMARK    5  A    between atoms: N_7  and  C_8
REMARK    6  A    between atoms: C_8  and  C_27
REMARK    7  A    between atoms: N_14  and  C_19
REMARK                            x       y       z     vdW  Elec       q    Type
REMARK                         _______ _______ _______ _____ _____    ______ ____
ROOT
ATOM      1  C   UNL     1       0.306  -2.733  -1.811  0.00  0.00    +0.240 C 
ATOM      2  C   UNL     1       0.923  -3.992  -2.372  0.00  0.00    +0.097 A 
ATOM      3  C   UNL     1       1.981  -4.809  -1.954  0.00  0.00    +0.262 A 
ATOM      4  N   UNL     1       2.306  -5.896  -2.686  0.00  0.00    -0.274 N 
ATOM      5  C   UNL     1       1.618  -6.187  -3.805  0.00  0.00    +0.335 A 
ATOM      6  O   UNL     1       1.924  -7.170  -4.452  0.00  0.00    -0.246 OA
ATOM      7  N   UNL     1       0.600  -5.415  -4.222  0.00  0.00    -0.249 N 
ATOM      8  C   UNL     1       0.231  -4.294  -3.507  0.00  0.00    +0.125 A 
ATOM      9  N   UNL     1      -0.761  -3.371  -3.737  0.00  0.00    -0.269 N 
ATOM     10  C   UNL     1      -0.800  -2.411  -2.796  0.00  0.00    +0.256 C 
ATOM     11  O   UNL     1      -1.567  -1.474  -2.746  0.00  0.00    -0.272 OA
ATOM     12  O   UNL     1       2.602  -4.542  -0.940  0.00  0.00    -0.267 OA
ATOM     13  H   UNL     1      -1.365  -3.407  -4.495  0.00  0.00    +0.156 HD
ATOM     14  H   UNL     1       3.037  -6.468  -2.405  0.00  0.00    +0.173 HD
ENDROOT
BRANCH   7  15
ATOM     15  C   UNL     1      -0.093  -5.752  -5.393  0.00  0.00    +0.053 A 
ATOM     16  C   UNL     1      -1.205  -6.580  -5.329  0.00  0.00    +0.029 A 
ATOM     17  C   UNL     1      -1.886  -6.911  -6.484  0.00  0.00    +0.040 A 
ATOM     18  C   UNL     1      -1.460  -6.417  -7.706  0.00  0.00    +0.124 A 
ATOM     19  C   UNL     1      -0.351  -5.592  -7.772  0.00  0.00    +0.040 A 
ATOM     20  C   UNL     1       0.329  -5.254  -6.618  0.00  0.00    +0.029 A 
ATOM     21  F   UNL     1      -2.128  -6.742  -8.834  0.00  0.00    -0.205 F 
ENDBRANCH   7  15
BRANCH   1  24
ATOM     22  C   UNL     1      -0.924  -2.005   0.163  0.00  0.00    +0.220 C 
ATOM     23  O   UNL     1      -1.075  -0.924  -0.366  0.00  0.00    -0.275 OA
ATOM     24  N   UNL     1      -0.247  -2.980  -0.477  0.00  0.00    -0.290 N 
ATOM     25  H   UNL     1      -0.127  -3.844  -0.054  0.00  0.00    +0.150 HD
BRANCH  22  27
ATOM     26  C   UNL     1      -2.207  -1.000   2.031  0.00  0.00    +0.020 C 
ATOM     27  C   UNL     1      -1.493  -2.259   1.535  0.00  0.00    +0.039 C 
ATOM     28  C   UNL     1      -0.360  -2.616   2.499  0.00  0.00    +0.020 C 
ATOM     29  C   UNL     1      -2.490  -3.418   1.467  0.00  0.00    +0.020 C 
ENDBRANCH  22  27
ENDBRANCH   1  24
BRANCH   1  30
ATOM     30  C   UNL     1       1.333  -1.600  -1.765  0.00  0.00    +0.424 C 
ATOM     31  F   UNL     1       2.383  -1.956  -0.911  0.00  0.00    -0.167 F 
ATOM     32  F   UNL     1       1.835  -1.373  -3.051  0.00  0.00    -0.167 F 
ATOM     33  F   UNL     1       0.722  -0.435  -1.290  0.00  0.00    -0.167 F 
ENDBRANCH   1  30
TORSDOF 4
