REMARK  Name = ZINC67026823
REMARK  4 active torsions:
REMARK  status: ('A' for Active; 'I' for Inactive)
REMARK    1  A    between atoms: C_1  and  C_2
REMARK    2  A    between atoms: N_4  and  C_5
REMARK    3  A    between atoms: C_5  and  C_6
REMARK    4  A    between atoms: C_9  and  C_11
REMARK                            x       y       z     vdW  Elec       q    Type
REMARK                         _______ _______ _______ _____ _____    ______ ____
ROOT
ATOM      1  C   UNL     1      -6.249  -4.050   1.060  0.00  0.00    +0.253 C 
ATOM      2  O   UNL     1      -7.183  -4.308   0.323  0.00  0.00    -0.269 OA
ATOM      3  N   UNL     1      -6.378  -4.211   2.392  0.00  0.00    -0.294 N 
ATOM      4  C   UNL     1      -5.299  -3.812   3.309  0.00  0.00    +0.108 C 
ATOM      5  C   UNL     1      -4.943  -4.997   4.211  0.00  0.00    +0.019 C 
ATOM      6  C   UNL     1      -6.206  -5.516   4.904  0.00  0.00    +0.007 C 
ATOM      7  C   UNL     1      -7.205  -5.981   3.846  0.00  0.00    +0.010 C 
ATOM      8  C   UNL     1      -7.600  -4.783   2.967  0.00  0.00    +0.079 C 
ATOM      9  C   UNL     1      -8.541  -5.260   1.863  0.00  0.00    +0.023 C 
ATOM     10  C   UNL     1      -9.805  -5.843   2.502  0.00  0.00    +0.002 C 
ATOM     11  C   UNL     1      -9.434  -7.016   3.410  0.00  0.00    +0.000 C 
ATOM     12  C   UNL     1      -8.464  -6.545   4.502  0.00  0.00    +0.005 C 
ENDROOT
BRANCH   1  16
ATOM     13  C   UNL     1      -2.703  -2.371  -0.064  0.00  0.00    +0.008 A 
ATOM     14  C   UNL     1      -3.159  -3.303  -0.937  0.00  0.00    +0.013 A 
ATOM     15  C   UNL     1      -4.346  -3.942  -0.672  0.00  0.00    +0.021 A 
ATOM     16  C   UNL     1      -4.985  -3.564   0.499  0.00  0.00    +0.074 A 
ATOM     17  S   UNL     1      -3.865  -2.338   1.148  0.00  0.00    -0.087 S 
BRANCH  13  18
ATOM     18  C   UNL     1      -1.438  -1.557  -0.157  0.00  0.00    +0.146 C 
BRANCH  18  22
ATOM     19  C   UNL     1      -1.006   1.870  -1.809  0.00  0.00    +0.109 C 
ATOM     20  C   UNL     1      -0.724   0.585  -1.074  0.00  0.00    +0.210 C 
ATOM     21  O   UNL     1       0.395   0.353  -0.666  0.00  0.00    -0.276 OA
ATOM     22  N   UNL     1      -1.713  -0.307  -0.871  0.00  0.00    -0.311 N 
ATOM     23  H   UNL     1      -2.608  -0.122  -1.197  0.00  0.00    +0.149 HD
ENDBRANCH  18  22
ENDBRANCH  13  18
ENDBRANCH   1  16
TORSDOF 3
