REMARK  Name = ZINC47084365
REMARK  6 active torsions:
REMARK  status: ('A' for Active; 'I' for Inactive)
REMARK    1  A    between atoms: C_1  and  C_2
REMARK    2  A    between atoms: C_2  and  C_3
REMARK    3  A    between atoms: C_2  and  C_4
REMARK    4  A    between atoms: C_2  and  C_16
REMARK    5  A    between atoms: C_4  and  N_5
REMARK    6  A    between atoms: N_8  and  N_9
REMARK                            x       y       z     vdW  Elec       q    Type
REMARK                         _______ _______ _______ _____ _____    ______ ____
ROOT
ATOM      1  N   UNL     1      -2.119  -0.061   1.218  0.00  0.00    -0.297 N 
ATOM      2  C   UNL     1      -3.403  -0.406   1.442  0.00  0.00    +0.316 C 
ATOM      3  O   UNL     1      -3.992  -1.108   0.643  0.00  0.00    -0.251 OA
ATOM      4  N   UNL     1      -4.034   0.029   2.551  0.00  0.00    -0.218 N 
ATOM      5  H   UNL     1      -1.649   0.499   1.855  0.00  0.00    +0.150 HD
ATOM      6  H   UNL     1      -4.957  -0.219   2.712  0.00  0.00    +0.174 HD
ENDROOT
BRANCH   4   7
ATOM      7  N   UNL     1      -3.355   0.839   3.471  0.00  0.00    -0.231 N 
ATOM      8  C   UNL     1      -4.003   1.285   4.610  0.00  0.00    +0.232 A 
ATOM      9  N   UNL     1      -5.263   0.933   4.817  0.00  0.00    -0.222 NA
ATOM     10  C   UNL     1      -5.911   1.342   5.895  0.00  0.00    +0.116 A 
ATOM     11  C   UNL     1      -5.256   2.149   6.812  0.00  0.00    +0.039 A 
ATOM     12  C   UNL     1      -3.938   2.498   6.564  0.00  0.00    +0.116 A 
ATOM     13  N   UNL     1      -3.346   2.050   5.469  0.00  0.00    -0.222 NA
ATOM     14  H   UNL     1      -2.431   1.087   3.310  0.00  0.00    +0.173 HD
ENDBRANCH   4   7
BRANCH   1  15
ATOM     15  C   UNL     1      -1.433  -0.534   0.013  0.00  0.00    +0.116 C 
BRANCH  15  17
ATOM     16  C   UNL     1      -0.019   1.526   0.010  0.00  0.00    +0.017 C 
ATOM     17  C   UNL     1       0.002  -0.004   0.002  0.00  0.00    +0.006 C 
ATOM     18  C   UNL     1       0.742  -0.511   1.242  0.00  0.00    +0.017 C 
BRANCH  17  19
ATOM     19  C   UNL     1       0.707  -0.490  -1.238  0.00  0.00    -0.040 A 
ATOM     20  C   UNL     1       0.036  -1.284  -2.148  0.00  0.00    +0.005 A 
ATOM     21  C   UNL     1       0.682  -1.730  -3.286  0.00  0.00    +0.015 A 
ATOM     22  C   UNL     1       2.001  -1.381  -3.513  0.00  0.00    +0.018 A 
ATOM     23  C   UNL     1       2.673  -0.586  -2.602  0.00  0.00    +0.015 A 
ATOM     24  C   UNL     1       2.024  -0.137  -1.467  0.00  0.00    +0.005 A 
ATOM     25 BR   UNL     1       2.886  -1.991  -5.069  0.00  0.00    -0.050 Br
ENDBRANCH  17  19
ENDBRANCH  15  17
ENDBRANCH   1  15
TORSDOF 4
